MODEL 1
REMARK VINA RESULT:      -6.0      0.000      0.000
REMARK  Name = 
REMARK  11 active torsions:
REMARK  status: ('A' for Active; 'I' for Inactive)
REMARK    1  A    between atoms: C_1  and  C_2
REMARK    2  A    between atoms: C_2  and  O_3
REMARK    3  A    between atoms: O_3  and  C_4
REMARK    4  A    between atoms: C_7  and  O_8
REMARK    5  A    between atoms: O_8  and  C_9
REMARK    6  A    between atoms: C_9  and  C_10
REMARK    7  A    between atoms: N_19  and  C_20
REMARK    8  A    between atoms: C_23  and  C_24
REMARK    9  A    between atoms: C_24  and  C_25
REMARK   10  A    between atoms: C_25  and  O_27
REMARK   11  A    between atoms: C_29  and  C_30
REMARK                            x       y       z     vdW  Elec       q    Type
REMARK                         _______ _______ _______ _____ _____    ______ ____
ROOT
ATOM      1  C   UNL     1      -1.448  11.048  19.051  0.00  0.00    +0.000 A 
ATOM      2  C   UNL     1      -1.884  11.928  20.036  0.00  0.00    +0.000 A 
ATOM      3  C   UNL     1      -3.113  12.592  19.897  0.00  0.00    +0.000 A 
ATOM      4  C   UNL     1      -3.994  12.320  18.853  0.00  0.00    +0.000 A 
ATOM      5  C   UNL     1      -3.566  11.422  17.838  0.00  0.00    +0.000 A 
ATOM      6  C   UNL     1      -4.375  11.137  16.713  0.00  0.00    +0.000 A 
ATOM      7  C   UNL     1      -3.966  10.262  15.706  0.00  0.00    +0.000 A 
ATOM      8  C   UNL     1      -2.736   9.630  15.806  0.00  0.00    +0.000 A 
ATOM      9  C   UNL     1      -1.917   9.879  16.909  0.00  0.00    +0.000 A 
ATOM     10  C   UNL     1      -2.294  10.775  17.937  0.00  0.00    +0.000 A 
ATOM     11  C   UNL     1      -3.197  13.547  21.016  0.00  0.00    +0.000 C 
ATOM     12  O   UNL     1      -3.887  14.547  21.054  0.00  0.00    +0.000 OA
ATOM     13  N   UNL     1      -2.283  13.127  21.978  0.00  0.00    +0.000 N 
ATOM     14  C   UNL     1      -1.257  12.329  21.341  0.00  0.00    +0.000 C 
ENDROOT
BRANCH  13  15
ATOM     15  C   UNL     1      -2.023  13.932  23.106  0.00  0.00    +0.000 A 
ATOM     16  C   UNL     1      -1.009  14.894  23.069  0.00  0.00    +0.000 A 
ATOM     17  C   UNL     1      -0.774  15.714  24.175  0.00  0.00    +0.000 A 
ATOM     18  C   UNL     1      -1.552  15.586  25.332  0.00  0.00    +0.000 A 
ATOM     19  C   UNL     1      -2.601  14.658  25.346  0.00  0.00    +0.000 A 
ATOM     20  C   UNL     1      -2.847  13.823  24.243  0.00  0.00    +0.000 A 
ATOM     21  C   UNL     1      -3.965  12.820  24.322  0.00  0.00    +0.000 C 
BRANCH  18  22
ATOM     22  C   UNL     1      -1.240  16.404  26.565  0.00  0.00    +0.000 C 
BRANCH  22  23
ATOM     23  C   UNL     1       0.188  16.907  26.644  0.00  0.00    +0.000 C 
ATOM     24  O   UNL     1       1.121  16.203  27.004  0.00  0.00    +0.000 OA
BRANCH  23  25
ATOM     25  O   UNL     1       0.385  18.175  26.216  0.00  0.00    +0.000 OA
ATOM     26  H   UNL     1      -0.164  18.428  25.447  0.00  0.00    +0.000 HD
ENDBRANCH  23  25
ENDBRANCH  22  23
ENDBRANCH  18  22
ENDBRANCH  13  15
BRANCH   1  27
ATOM     27  O   UNL     1      -0.251  10.374  19.106  0.00  0.00    +0.000 OA
BRANCH  27  29
ATOM     28  C   UNL     1       1.870  10.205  17.972  0.00  0.00    +0.000 C 
ATOM     29  C   UNL     1       0.894  11.121  18.691  0.00  0.00    +0.000 C 
ENDBRANCH  27  29
ENDBRANCH   1  27
BRANCH   4  30
ATOM     30  O   UNL     1      -5.270  12.817  18.719  0.00  0.00    +0.000 OA
BRANCH  30  31
ATOM     31  C   UNL     1      -6.227  12.421  19.705  0.00  0.00    +0.000 C 
ATOM     32  C   UNL     1      -6.994  11.201  19.234  0.00  0.00    +0.000 C 
ENDBRANCH  30  31
ENDBRANCH   4  30
TORSDOF 8
ENDMDL
MODEL 2
REMARK VINA RESULT:      -5.9      3.577      8.689
REMARK  Name = 
REMARK  11 active torsions:
REMARK  status: ('A' for Active; 'I' for Inactive)
REMARK    1  A    between atoms: C_1  and  C_2
REMARK    2  A    between atoms: C_2  and  O_3
REMARK    3  A    between atoms: O_3  and  C_4
REMARK    4  A    between atoms: C_7  and  O_8
REMARK    5  A    between atoms: O_8  and  C_9
REMARK    6  A    between atoms: C_9  and  C_10
REMARK    7  A    between atoms: N_19  and  C_20
REMARK    8  A    between atoms: C_23  and  C_24
REMARK    9  A    between atoms: C_24  and  C_25
REMARK   10  A    between atoms: C_25  and  O_27
REMARK   11  A    between atoms: C_29  and  C_30
REMARK                            x       y       z     vdW  Elec       q    Type
REMARK                         _______ _______ _______ _____ _____    ______ ____
ROOT
ATOM      1  C   UNL     1      -2.074  12.958  20.355  0.00  0.00    +0.000 A 
ATOM      2  C   UNL     1      -0.937  12.216  20.049  0.00  0.00    +0.000 A 
ATOM      3  C   UNL     1       0.295  12.859  19.851  0.00  0.00    +0.000 A 
ATOM      4  C   UNL     1       0.467  14.225  20.064  0.00  0.00    +0.000 A 
ATOM      5  C   UNL     1      -0.683  14.999  20.379  0.00  0.00    +0.000 A 
ATOM      6  C   UNL     1      -0.606  16.401  20.552  0.00  0.00    +0.000 A 
ATOM      7  C   UNL     1      -1.727  17.175  20.856  0.00  0.00    +0.000 A 
ATOM      8  C   UNL     1      -2.960  16.561  21.013  0.00  0.00    +0.000 A 
ATOM      9  C   UNL     1      -3.070  15.178  20.861  0.00  0.00    +0.000 A 
ATOM     10  C   UNL     1      -1.957  14.367  20.535  0.00  0.00    +0.000 A 
ATOM     11  C   UNL     1       1.236  11.820  19.398  0.00  0.00    +0.000 C 
ATOM     12  O   UNL     1       2.261  12.005  18.772  0.00  0.00    +0.000 OA
ATOM     13  N   UNL     1       0.688  10.592  19.756  0.00  0.00    +0.000 N 
ATOM     14  C   UNL     1      -0.746  10.734  19.895  0.00  0.00    +0.000 C 
ENDROOT
BRANCH  13  15
ATOM     15  C   UNL     1       1.290   9.394  19.318  0.00  0.00    +0.000 A 
ATOM     16  C   UNL     1       1.674   9.244  17.982  0.00  0.00    +0.000 A 
ATOM     17  C   UNL     1       2.301   8.070  17.557  0.00  0.00    +0.000 A 
ATOM     18  C   UNL     1       2.556   7.032  18.462  0.00  0.00    +0.000 A 
ATOM     19  C   UNL     1       2.217   7.207  19.810  0.00  0.00    +0.000 A 
ATOM     20  C   UNL     1       1.582   8.381  20.252  0.00  0.00    +0.000 A 
ATOM     21  C   UNL     1       1.209   8.505  21.704  0.00  0.00    +0.000 C 
BRANCH  18  22
ATOM     22  C   UNL     1       3.146   5.723  17.987  0.00  0.00    +0.000 C 
BRANCH  22  23
ATOM     23  C   UNL     1       2.205   4.538  18.078  0.00  0.00    +0.000 C 
ATOM     24  O   UNL     1       1.188   4.444  17.404  0.00  0.00    +0.000 OA
BRANCH  23  25
ATOM     25  O   UNL     1       2.599   3.541  18.903  0.00  0.00    +0.000 OA
ATOM     26  H   UNL     1       1.948   2.818  18.996  0.00  0.00    +0.000 HD
ENDBRANCH  23  25
ENDBRANCH  22  23
ENDBRANCH  18  22
ENDBRANCH  13  15
BRANCH   1  27
ATOM     27  O   UNL     1      -3.317  12.405  20.547  0.00  0.00    +0.000 OA
BRANCH  27  29
ATOM     28  C   UNL     1      -5.576  12.380  19.705  0.00  0.00    +0.000 C 
ATOM     29  C   UNL     1      -4.103  12.237  19.365  0.00  0.00    +0.000 C 
ENDBRANCH  27  29
ENDBRANCH   1  27
BRANCH   4  30
ATOM     30  O   UNL     1       1.662  14.906  20.030  0.00  0.00    +0.000 OA
BRANCH  30  31
ATOM     31  C   UNL     1       2.109  15.369  18.754  0.00  0.00    +0.000 C 
ATOM     32  C   UNL     1       2.943  16.626  18.912  0.00  0.00    +0.000 C 
ENDBRANCH  30  31
ENDBRANCH   4  30
TORSDOF 8
ENDMDL
MODEL 3
REMARK VINA RESULT:      -5.9      3.212      8.108
REMARK  Name = 
REMARK  11 active torsions:
REMARK  status: ('A' for Active; 'I' for Inactive)
REMARK    1  A    between atoms: C_1  and  C_2
REMARK    2  A    between atoms: C_2  and  O_3
REMARK    3  A    between atoms: O_3  and  C_4
REMARK    4  A    between atoms: C_7  and  O_8
REMARK    5  A    between atoms: O_8  and  C_9
REMARK    6  A    between atoms: C_9  and  C_10
REMARK    7  A    between atoms: N_19  and  C_20
REMARK    8  A    between atoms: C_23  and  C_24
REMARK    9  A    between atoms: C_24  and  C_25
REMARK   10  A    between atoms: C_25  and  O_27
REMARK   11  A    between atoms: C_29  and  C_30
REMARK                            x       y       z     vdW  Elec       q    Type
REMARK                         _______ _______ _______ _____ _____    ______ ____
ROOT
ATOM      1  C   UNL     1      -0.122  13.511  21.547  0.00  0.00    +0.000 A 
ATOM      2  C   UNL     1      -0.041  12.340  20.800  0.00  0.00    +0.000 A 
ATOM      3  C   UNL     1      -1.186  11.816  20.179  0.00  0.00    +0.000 A 
ATOM      4  C   UNL     1      -2.406  12.488  20.176  0.00  0.00    +0.000 A 
ATOM      5  C   UNL     1      -2.506  13.688  20.932  0.00  0.00    +0.000 A 
ATOM      6  C   UNL     1      -3.725  14.400  21.030  0.00  0.00    +0.000 A 
ATOM      7  C   UNL     1      -3.841  15.576  21.773  0.00  0.00    +0.000 A 
ATOM      8  C   UNL     1      -2.730  16.084  22.428  0.00  0.00    +0.000 A 
ATOM      9  C   UNL     1      -1.509  15.413  22.343  0.00  0.00    +0.000 A 
ATOM     10  C   UNL     1      -1.362  14.209  21.614  0.00  0.00    +0.000 A 
ATOM     11  C   UNL     1      -0.792  10.514  19.614  0.00  0.00    +0.000 C 
ATOM     12  O   UNL     1      -1.539   9.596  19.341  0.00  0.00    +0.000 OA
ATOM     13  N   UNL     1       0.597  10.512  19.527  0.00  0.00    +0.000 N 
ATOM     14  C   UNL     1       1.134  11.459  20.483  0.00  0.00    +0.000 C 
ENDROOT
BRANCH  13  15
ATOM     15  C   UNL     1       1.282   9.335  19.162  0.00  0.00    +0.000 A 
ATOM     16  C   UNL     1       1.791   9.186  17.868  0.00  0.00    +0.000 A 
ATOM     17  C   UNL     1       2.499   8.034  17.518  0.00  0.00    +0.000 A 
ATOM     18  C   UNL     1       2.712   7.018  18.457  0.00  0.00    +0.000 A 
ATOM     19  C   UNL     1       2.247   7.194  19.766  0.00  0.00    +0.000 A 
ATOM     20  C   UNL     1       1.529   8.345  20.133  0.00  0.00    +0.000 A 
ATOM     21  C   UNL     1       1.022   8.471  21.544  0.00  0.00    +0.000 C 
BRANCH  18  22
ATOM     22  C   UNL     1       3.394   5.728  18.056  0.00  0.00    +0.000 C 
BRANCH  22  23
ATOM     23  C   UNL     1       2.492   4.510  18.062  0.00  0.00    +0.000 C 
ATOM     24  O   UNL     1       1.431   4.466  17.453  0.00  0.00    +0.000 OA
BRANCH  23  25
ATOM     25  O   UNL     1       2.969   3.433  18.727  0.00  0.00    +0.000 OA
ATOM     26  H   UNL     1       3.109   2.645  18.165  0.00  0.00    +0.000 HD
ENDBRANCH  23  25
ENDBRANCH  22  23
ENDBRANCH  18  22
ENDBRANCH  13  15
BRANCH   1  27
ATOM     27  O   UNL     1       0.949  14.076  22.197  0.00  0.00    +0.000 OA
BRANCH  27  29
ATOM     28  C   UNL     1       3.251  14.530  21.641  0.00  0.00    +0.000 C 
ATOM     29  C   UNL     1       1.799  14.892  21.386  0.00  0.00    +0.000 C 
ENDBRANCH  27  29
ENDBRANCH   1  27
BRANCH   4  30
ATOM     30  O   UNL     1      -3.533  12.119  19.478  0.00  0.00    +0.000 OA
BRANCH  30  31
ATOM     31  C   UNL     1      -3.394  11.952  18.065  0.00  0.00    +0.000 C 
ATOM     32  C   UNL     1      -4.644  11.318  17.485  0.00  0.00    +0.000 C 
ENDBRANCH  30  31
ENDBRANCH   4  30
TORSDOF 8
ENDMDL
MODEL 4
REMARK VINA RESULT:      -5.9      3.403      5.960
REMARK  Name = 
REMARK  11 active torsions:
REMARK  status: ('A' for Active; 'I' for Inactive)
REMARK    1  A    between atoms: C_1  and  C_2
REMARK    2  A    between atoms: C_2  and  O_3
REMARK    3  A    between atoms: O_3  and  C_4
REMARK    4  A    between atoms: C_7  and  O_8
REMARK    5  A    between atoms: O_8  and  C_9
REMARK    6  A    between atoms: C_9  and  C_10
REMARK    7  A    between atoms: N_19  and  C_20
REMARK    8  A    between atoms: C_23  and  C_24
REMARK    9  A    between atoms: C_24  and  C_25
REMARK   10  A    between atoms: C_25  and  O_27
REMARK   11  A    between atoms: C_29  and  C_30
REMARK                            x       y       z     vdW  Elec       q    Type
REMARK                         _______ _______ _______ _____ _____    ______ ____
ROOT
ATOM      1  C   UNL     1      -4.294  13.311  21.658  0.00  0.00    +0.000 A 
ATOM      2  C   UNL     1      -3.083  13.395  20.977  0.00  0.00    +0.000 A 
ATOM      3  C   UNL     1      -2.903  12.707  19.767  0.00  0.00    +0.000 A 
ATOM      4  C   UNL     1      -3.939  12.021  19.138  0.00  0.00    +0.000 A 
ATOM      5  C   UNL     1      -5.184  11.927  19.818  0.00  0.00    +0.000 A 
ATOM      6  C   UNL     1      -6.269  11.198  19.276  0.00  0.00    +0.000 A 
ATOM      7  C   UNL     1      -7.495  11.091  19.934  0.00  0.00    +0.000 A 
ATOM      8  C   UNL     1      -7.676  11.730  21.151  0.00  0.00    +0.000 A 
ATOM      9  C   UNL     1      -6.630  12.467  21.709  0.00  0.00    +0.000 A 
ATOM     10  C   UNL     1      -5.369  12.579  21.077  0.00  0.00    +0.000 A 
ATOM     11  C   UNL     1      -1.486  12.879  19.399  0.00  0.00    +0.000 C 
ATOM     12  O   UNL     1      -0.846  12.159  18.659  0.00  0.00    +0.000 OA
ATOM     13  N   UNL     1      -1.010  13.972  20.117  0.00  0.00    +0.000 N 
ATOM     14  C   UNL     1      -1.828  14.157  21.298  0.00  0.00    +0.000 C 
ENDROOT
BRANCH  13  15
ATOM     15  C   UNL     1       0.363  14.291  20.092  0.00  0.00    +0.000 A 
ATOM     16  C   UNL     1       1.287  13.491  20.771  0.00  0.00    +0.000 A 
ATOM     17  C   UNL     1       2.651  13.788  20.717  0.00  0.00    +0.000 A 
ATOM     18  C   UNL     1       3.110  14.888  19.981  0.00  0.00    +0.000 A 
ATOM     19  C   UNL     1       2.187  15.656  19.260  0.00  0.00    +0.000 A 
ATOM     20  C   UNL     1       0.811  15.372  19.308  0.00  0.00    +0.000 A 
ATOM     21  C   UNL     1      -0.142  16.248  18.542  0.00  0.00    +0.000 C 
BRANCH  18  22
ATOM     22  C   UNL     1       4.573  15.270  19.999  0.00  0.00    +0.000 C 
BRANCH  22  23
ATOM     23  C   UNL     1       5.099  15.810  18.684  0.00  0.00    +0.000 C 
ATOM     24  O   UNL     1       5.320  15.098  17.714  0.00  0.00    +0.000 OA
BRANCH  23  25
ATOM     25  O   UNL     1       5.244  17.154  18.620  0.00  0.00    +0.000 OA
ATOM     26  H   UNL     1       4.503  17.615  18.177  0.00  0.00    +0.000 HD
ENDBRANCH  23  25
ENDBRANCH  22  23
ENDBRANCH  18  22
ENDBRANCH  13  15
BRANCH   1  27
ATOM     27  O   UNL     1      -4.541  13.941  22.854  0.00  0.00    +0.000 OA
BRANCH  27  29
ATOM     28  C   UNL     1      -4.430  12.369  24.679  0.00  0.00    +0.000 C 
ATOM     29  C   UNL     1      -3.736  13.508  23.954  0.00  0.00    +0.000 C 
ENDBRANCH  27  29
ENDBRANCH   1  27
BRANCH   4  30
ATOM     30  O   UNL     1      -3.888  11.443  17.890  0.00  0.00    +0.000 OA
BRANCH  30  31
ATOM     31  C   UNL     1      -3.306  10.140  17.802  0.00  0.00    +0.000 C 
ATOM     32  C   UNL     1      -2.648   9.947  16.450  0.00  0.00    +0.000 C 
ENDBRANCH  30  31
ENDBRANCH   4  30
TORSDOF 8
ENDMDL
MODEL 5
REMARK VINA RESULT:      -5.8      3.346      8.557
REMARK  Name = 
REMARK  11 active torsions:
REMARK  status: ('A' for Active; 'I' for Inactive)
REMARK    1  A    between atoms: C_1  and  C_2
REMARK    2  A    between atoms: C_2  and  O_3
REMARK    3  A    between atoms: O_3  and  C_4
REMARK    4  A    between atoms: C_7  and  O_8
REMARK    5  A    between atoms: O_8  and  C_9
REMARK    6  A    between atoms: C_9  and  C_10
REMARK    7  A    between atoms: N_19  and  C_20
REMARK    8  A    between atoms: C_23  and  C_24
REMARK    9  A    between atoms: C_24  and  C_25
REMARK   10  A    between atoms: C_25  and  O_27
REMARK   11  A    between atoms: C_29  and  C_30
REMARK                            x       y       z     vdW  Elec       q    Type
REMARK                         _______ _______ _______ _____ _____    ______ ____
ROOT
ATOM      1  C   UNL     1      -2.417  12.882  20.229  0.00  0.00    +0.000 A 
ATOM      2  C   UNL     1      -1.236  12.182  20.004  0.00  0.00    +0.000 A 
ATOM      3  C   UNL     1      -0.003  12.853  20.008  0.00  0.00    +0.000 A 
ATOM      4  C   UNL     1       0.112  14.199  20.350  0.00  0.00    +0.000 A 
ATOM      5  C   UNL     1      -1.084  14.930  20.585  0.00  0.00    +0.000 A 
ATOM      6  C   UNL     1      -1.059  16.314  20.879  0.00  0.00    +0.000 A 
ATOM      7  C   UNL     1      -2.225  17.047  21.106  0.00  0.00    +0.000 A 
ATOM      8  C   UNL     1      -3.454  16.407  21.063  0.00  0.00    +0.000 A 
ATOM      9  C   UNL     1      -3.515  15.040  20.788  0.00  0.00    +0.000 A 
ATOM     10  C   UNL     1      -2.353  14.273  20.534  0.00  0.00    +0.000 A 
ATOM     11  C   UNL     1       1.008  11.866  19.590  0.00  0.00    +0.000 C 
ATOM     12  O   UNL     1       2.096  12.115  19.110  0.00  0.00    +0.000 OA
ATOM     13  N   UNL     1       0.448  10.607  19.779  0.00  0.00    +0.000 N 
ATOM     14  C   UNL     1      -0.995  10.720  19.755  0.00  0.00    +0.000 C 
ENDROOT
BRANCH  13  15
ATOM     15  C   UNL     1       1.124   9.456  19.323  0.00  0.00    +0.000 A 
ATOM     16  C   UNL     1       1.522   9.355  17.986  0.00  0.00    +0.000 A 
ATOM     17  C   UNL     1       2.221   8.230  17.542  0.00  0.00    +0.000 A 
ATOM     18  C   UNL     1       2.535   7.193  18.429  0.00  0.00    +0.000 A 
ATOM     19  C   UNL     1       2.181   7.322  19.778  0.00  0.00    +0.000 A 
ATOM     20  C   UNL     1       1.473   8.446  20.239  0.00  0.00    +0.000 A 
ATOM     21  C   UNL     1       1.088   8.520  21.691  0.00  0.00    +0.000 C 
BRANCH  18  22
ATOM     22  C   UNL     1       3.206   5.931  17.933  0.00  0.00    +0.000 C 
BRANCH  22  23
ATOM     23  C   UNL     1       2.435   4.656  18.210  0.00  0.00    +0.000 C 
ATOM     24  O   UNL     1       2.720   3.893  19.123  0.00  0.00    +0.000 OA
BRANCH  23  25
ATOM     25  O   UNL     1       1.354   4.444  17.425  0.00  0.00    +0.000 OA
ATOM     26  H   UNL     1       0.839   5.251  17.227  0.00  0.00    +0.000 HD
ENDBRANCH  23  25
ENDBRANCH  22  23
ENDBRANCH  18  22
ENDBRANCH  13  15
BRANCH   1  27
ATOM     27  O   UNL     1      -3.662  12.300  20.224  0.00  0.00    +0.000 OA
BRANCH  27  29
ATOM     28  C   UNL     1      -5.678  11.647  19.074  0.00  0.00    +0.000 C 
ATOM     29  C   UNL     1      -4.225  12.066  18.931  0.00  0.00    +0.000 C 
ENDBRANCH  27  29
ENDBRANCH   1  27
BRANCH   4  30
ATOM     30  O   UNL     1       1.287  14.895  20.516  0.00  0.00    +0.000 OA
BRANCH  30  31
ATOM     31  C   UNL     1       2.021  14.651  21.718  0.00  0.00    +0.000 C 
ATOM     32  C   UNL     1       2.676  15.930  22.203  0.00  0.00    +0.000 C 
ENDBRANCH  30  31
ENDBRANCH   4  30
TORSDOF 8
ENDMDL
MODEL 6
REMARK VINA RESULT:      -5.8      3.067      8.386
REMARK  Name = 
REMARK  11 active torsions:
REMARK  status: ('A' for Active; 'I' for Inactive)
REMARK    1  A    between atoms: C_1  and  C_2
REMARK    2  A    between atoms: C_2  and  O_3
REMARK    3  A    between atoms: O_3  and  C_4
REMARK    4  A    between atoms: C_7  and  O_8
REMARK    5  A    between atoms: O_8  and  C_9
REMARK    6  A    between atoms: C_9  and  C_10
REMARK    7  A    between atoms: N_19  and  C_20
REMARK    8  A    between atoms: C_23  and  C_24
REMARK    9  A    between atoms: C_24  and  C_25
REMARK   10  A    between atoms: C_25  and  O_27
REMARK   11  A    between atoms: C_29  and  C_30
REMARK                            x       y       z     vdW  Elec       q    Type
REMARK                         _______ _______ _______ _____ _____    ______ ____
ROOT
ATOM      1  C   UNL     1      -2.861  12.674  20.232  0.00  0.00    +0.000 A 
ATOM      2  C   UNL     1      -1.654  11.983  20.210  0.00  0.00    +0.000 A 
ATOM      3  C   UNL     1      -0.522  12.515  20.846  0.00  0.00    +0.000 A 
ATOM      4  C   UNL     1      -0.577  13.673  21.618  0.00  0.00    +0.000 A 
ATOM      5  C   UNL     1      -1.802  14.392  21.655  0.00  0.00    +0.000 A 
ATOM      6  C   UNL     1      -1.926  15.609  22.366  0.00  0.00    +0.000 A 
ATOM      7  C   UNL     1      -3.121  16.328  22.406  0.00  0.00    +0.000 A 
ATOM      8  C   UNL     1      -4.237  15.837  21.747  0.00  0.00    +0.000 A 
ATOM      9  C   UNL     1      -4.154  14.634  21.045  0.00  0.00    +0.000 A 
ATOM     10  C   UNL     1      -2.953  13.890  20.969  0.00  0.00    +0.000 A 
ATOM     11  C   UNL     1       0.603  11.627  20.504  0.00  0.00    +0.000 C 
ATOM     12  O   UNL     1       1.781  11.922  20.528  0.00  0.00    +0.000 OA
ATOM     13  N   UNL     1       0.053  10.422  20.078  0.00  0.00    +0.000 N 
ATOM     14  C   UNL     1      -1.295  10.656  19.603  0.00  0.00    +0.000 C 
ENDROOT
BRANCH  13  15
ATOM     15  C   UNL     1       0.882   9.419  19.535  0.00  0.00    +0.000 A 
ATOM     16  C   UNL     1       1.319   9.505  18.209  0.00  0.00    +0.000 A 
ATOM     17  C   UNL     1       2.168   8.529  17.682  0.00  0.00    +0.000 A 
ATOM     18  C   UNL     1       2.595   7.455  18.474  0.00  0.00    +0.000 A 
ATOM     19  C   UNL     1       2.197   7.400  19.816  0.00  0.00    +0.000 A 
ATOM     20  C   UNL     1       1.340   8.373  20.359  0.00  0.00    +0.000 A 
ATOM     21  C   UNL     1       0.916   8.250  21.797  0.00  0.00    +0.000 C 
BRANCH  18  22
ATOM     22  C   UNL     1       3.434   6.346  17.880  0.00  0.00    +0.000 C 
BRANCH  22  23
ATOM     23  C   UNL     1       2.991   4.947  18.260  0.00  0.00    +0.000 C 
ATOM     24  O   UNL     1       1.975   4.429  17.817  0.00  0.00    +0.000 OA
BRANCH  23  25
ATOM     25  O   UNL     1       3.833   4.267  19.072  0.00  0.00    +0.000 OA
ATOM     26  H   UNL     1       4.759   4.245  18.759  0.00  0.00    +0.000 HD
ENDBRANCH  23  25
ENDBRANCH  22  23
ENDBRANCH  18  22
ENDBRANCH  13  15
BRANCH   1  27
ATOM     27  O   UNL     1      -4.007  12.227  19.619  0.00  0.00    +0.000 OA
BRANCH  27  29
ATOM     28  C   UNL     1      -4.490  10.649  17.861  0.00  0.00    +0.000 C 
ATOM     29  C   UNL     1      -3.904  12.005  18.210  0.00  0.00    +0.000 C 
ENDBRANCH  27  29
ENDBRANCH   1  27
BRANCH   4  30
ATOM     30  O   UNL     1       0.445  14.183  22.387  0.00  0.00    +0.000 OA
BRANCH  30  31
ATOM     31  C   UNL     1       1.446  14.948  21.711  0.00  0.00    +0.000 C 
ATOM     32  C   UNL     1       1.426  16.385  22.193  0.00  0.00    +0.000 C 
ENDBRANCH  30  31
ENDBRANCH   4  30
TORSDOF 8
ENDMDL
MODEL 7
REMARK VINA RESULT:      -5.8      3.355      8.290
REMARK  Name = 
REMARK  11 active torsions:
REMARK  status: ('A' for Active; 'I' for Inactive)
REMARK    1  A    between atoms: C_1  and  C_2
REMARK    2  A    between atoms: C_2  and  O_3
REMARK    3  A    between atoms: O_3  and  C_4
REMARK    4  A    between atoms: C_7  and  O_8
REMARK    5  A    between atoms: O_8  and  C_9
REMARK    6  A    between atoms: C_9  and  C_10
REMARK    7  A    between atoms: N_19  and  C_20
REMARK    8  A    between atoms: C_23  and  C_24
REMARK    9  A    between atoms: C_24  and  C_25
REMARK   10  A    between atoms: C_25  and  O_27
REMARK   11  A    between atoms: C_29  and  C_30
REMARK                            x       y       z     vdW  Elec       q    Type
REMARK                         _______ _______ _______ _____ _____    ______ ____
ROOT
ATOM      1  C   UNL     1      -2.840  11.041  18.349  0.00  0.00    +0.000 A 
ATOM      2  C   UNL     1      -1.602  10.525  18.718  0.00  0.00    +0.000 A 
ATOM      3  C   UNL     1      -0.932  11.030  19.843  0.00  0.00    +0.000 A 
ATOM      4  C   UNL     1      -1.512  11.964  20.699  0.00  0.00    +0.000 A 
ATOM      5  C   UNL     1      -2.778  12.500  20.339  0.00  0.00    +0.000 A 
ATOM      6  C   UNL     1      -3.409  13.496  21.122  0.00  0.00    +0.000 A 
ATOM      7  C   UNL     1      -4.649  14.036  20.778  0.00  0.00    +0.000 A 
ATOM      8  C   UNL     1      -5.305  13.579  19.645  0.00  0.00    +0.000 A 
ATOM      9  C   UNL     1      -4.716  12.589  18.857  0.00  0.00    +0.000 A 
ATOM     10  C   UNL     1      -3.452  12.034  19.167  0.00  0.00    +0.000 A 
ATOM     11  C   UNL     1       0.394  10.389  19.859  0.00  0.00    +0.000 C 
ATOM     12  O   UNL     1       1.387  10.811  20.417  0.00  0.00    +0.000 OA
ATOM     13  N   UNL     1       0.307   9.256  19.055  0.00  0.00    +0.000 N 
ATOM     14  C   UNL     1      -0.775   9.428  18.109  0.00  0.00    +0.000 C 
ENDROOT
BRANCH  13  15
ATOM     15  C   UNL     1       1.466   8.514  18.751  0.00  0.00    +0.000 A 
ATOM     16  C   UNL     1       2.209   8.804  17.602  0.00  0.00    +0.000 A 
ATOM     17  C   UNL     1       3.377   8.091  17.319  0.00  0.00    +0.000 A 
ATOM     18  C   UNL     1       3.819   7.081  18.182  0.00  0.00    +0.000 A 
ATOM     19  C   UNL     1       3.101   6.829  19.358  0.00  0.00    +0.000 A 
ATOM     20  C   UNL     1       1.923   7.535  19.655  0.00  0.00    +0.000 A 
ATOM     21  C   UNL     1       1.171   7.203  20.914  0.00  0.00    +0.000 C 
BRANCH  18  22
ATOM     22  C   UNL     1       5.028   6.242  17.831  0.00  0.00    +0.000 C 
BRANCH  22  23
ATOM     23  C   UNL     1       4.881   4.765  18.139  0.00  0.00    +0.000 C 
ATOM     24  O   UNL     1       5.557   4.192  18.982  0.00  0.00    +0.000 OA
BRANCH  23  25
ATOM     25  O   UNL     1       3.896   4.123  17.470  0.00  0.00    +0.000 OA
ATOM     26  H   UNL     1       3.012   4.208  17.881  0.00  0.00    +0.000 HD
ENDBRANCH  23  25
ENDBRANCH  22  23
ENDBRANCH  18  22
ENDBRANCH  13  15
BRANCH   1  27
ATOM     27  O   UNL     1      -3.549  10.611  17.252  0.00  0.00    +0.000 OA
BRANCH  27  29
ATOM     28  C   UNL     1      -2.867   9.971  15.030  0.00  0.00    +0.000 C 
ATOM     29  C   UNL     1      -3.102  11.121  15.994  0.00  0.00    +0.000 C 
ENDBRANCH  27  29
ENDBRANCH   1  27
BRANCH   4  30
ATOM     30  O   UNL     1      -0.988  12.404  21.893  0.00  0.00    +0.000 OA
BRANCH  30  31
ATOM     31  C   UNL     1      -1.446  11.754  23.081  0.00  0.00    +0.000 C 
ATOM     32  C   UNL     1      -0.821  10.378  23.203  0.00  0.00    +0.000 C 
ENDBRANCH  30  31
ENDBRANCH   4  30
TORSDOF 8
ENDMDL
MODEL 8
REMARK VINA RESULT:      -5.8      3.245      7.920
REMARK  Name = 
REMARK  11 active torsions:
REMARK  status: ('A' for Active; 'I' for Inactive)
REMARK    1  A    between atoms: C_1  and  C_2
REMARK    2  A    between atoms: C_2  and  O_3
REMARK    3  A    between atoms: O_3  and  C_4
REMARK    4  A    between atoms: C_7  and  O_8
REMARK    5  A    between atoms: O_8  and  C_9
REMARK    6  A    between atoms: C_9  and  C_10
REMARK    7  A    between atoms: N_19  and  C_20
REMARK    8  A    between atoms: C_23  and  C_24
REMARK    9  A    between atoms: C_24  and  C_25
REMARK   10  A    between atoms: C_25  and  O_27
REMARK   11  A    between atoms: C_29  and  C_30
REMARK                            x       y       z     vdW  Elec       q    Type
REMARK                         _______ _______ _______ _____ _____    ______ ____
ROOT
ATOM      1  C   UNL     1      -0.319  13.357  21.553  0.00  0.00    +0.000 A 
ATOM      2  C   UNL     1      -0.164  12.214  20.776  0.00  0.00    +0.000 A 
ATOM      3  C   UNL     1      -1.256  11.681  20.074  0.00  0.00    +0.000 A 
ATOM      4  C   UNL     1      -2.492  12.321  20.021  0.00  0.00    +0.000 A 
ATOM      5  C   UNL     1      -2.669  13.492  20.807  0.00  0.00    +0.000 A 
ATOM      6  C   UNL     1      -3.911  14.169  20.857  0.00  0.00    +0.000 A 
ATOM      7  C   UNL     1      -4.102  15.316  21.628  0.00  0.00    +0.000 A 
ATOM      8  C   UNL     1      -3.044  15.831  22.362  0.00  0.00    +0.000 A 
ATOM      9  C   UNL     1      -1.802  15.195  22.327  0.00  0.00    +0.000 A 
ATOM     10  C   UNL     1      -1.581  14.020  21.570  0.00  0.00    +0.000 A 
ATOM     11  C   UNL     1      -0.794  10.408  19.492  0.00  0.00    +0.000 C 
ATOM     12  O   UNL     1      -1.499   9.481  19.148  0.00  0.00    +0.000 OA
ATOM     13  N   UNL     1       0.597  10.446  19.485  0.00  0.00    +0.000 N 
ATOM     14  C   UNL     1       1.051  11.374  20.500  0.00  0.00    +0.000 C 
ENDROOT
BRANCH  13  15
ATOM     15  C   UNL     1       1.334   9.300  19.125  0.00  0.00    +0.000 A 
ATOM     16  C   UNL     1       1.912   9.203  17.855  0.00  0.00    +0.000 A 
ATOM     17  C   UNL     1       2.671   8.082  17.510  0.00  0.00    +0.000 A 
ATOM     18  C   UNL     1       2.866   7.045  18.431  0.00  0.00    +0.000 A 
ATOM     19  C   UNL     1       2.329   7.170  19.719  0.00  0.00    +0.000 A 
ATOM     20  C   UNL     1       1.560   8.289  20.079  0.00  0.00    +0.000 A 
ATOM     21  C   UNL     1       0.978   8.359  21.465  0.00  0.00    +0.000 C 
BRANCH  18  22
ATOM     22  C   UNL     1       3.605   5.787  18.030  0.00  0.00    +0.000 C 
BRANCH  22  23
ATOM     23  C   UNL     1       5.077   5.779  18.392  0.00  0.00    +0.000 C 
ATOM     24  O   UNL     1       5.518   5.184  19.365  0.00  0.00    +0.000 OA
BRANCH  23  25
ATOM     25  O   UNL     1       5.896   6.414  17.522  0.00  0.00    +0.000 OA
ATOM     26  H   UNL     1       6.790   6.596  17.875  0.00  0.00    +0.000 HD
ENDBRANCH  23  25
ENDBRANCH  22  23
ENDBRANCH  18  22
ENDBRANCH  13  15
BRANCH   1  27
ATOM     27  O   UNL     1       0.696  13.928  22.282  0.00  0.00    +0.000 OA
BRANCH  27  29
ATOM     28  C   UNL     1       2.881  14.372  21.362  0.00  0.00    +0.000 C 
ATOM     29  C   UNL     1       1.476  14.904  21.587  0.00  0.00    +0.000 C 
ENDBRANCH  27  29
ENDBRANCH   1  27
BRANCH   4  30
ATOM     30  O   UNL     1      -3.567  11.945  19.248  0.00  0.00    +0.000 OA
BRANCH  30  31
ATOM     31  C   UNL     1      -3.358  11.881  17.835  0.00  0.00    +0.000 C 
ATOM     32  C   UNL     1      -4.638  11.474  17.132  0.00  0.00    +0.000 C 
ENDBRANCH  30  31
ENDBRANCH   4  30
TORSDOF 8
ENDMDL
MODEL 9
REMARK VINA RESULT:      -5.8      2.782      8.008
REMARK  Name = 
REMARK  11 active torsions:
REMARK  status: ('A' for Active; 'I' for Inactive)
REMARK    1  A    between atoms: C_1  and  C_2
REMARK    2  A    between atoms: C_2  and  O_3
REMARK    3  A    between atoms: O_3  and  C_4
REMARK    4  A    between atoms: C_7  and  O_8
REMARK    5  A    between atoms: O_8  and  C_9
REMARK    6  A    between atoms: C_9  and  C_10
REMARK    7  A    between atoms: N_19  and  C_20
REMARK    8  A    between atoms: C_23  and  C_24
REMARK    9  A    between atoms: C_24  and  C_25
REMARK   10  A    between atoms: C_25  and  O_27
REMARK   11  A    between atoms: C_29  and  C_30
REMARK                            x       y       z     vdW  Elec       q    Type
REMARK                         _______ _______ _______ _____ _____    ______ ____
ROOT
ATOM      1  C   UNL     1      -3.720  12.341  19.350  0.00  0.00    +0.000 A 
ATOM      2  C   UNL     1      -2.486  11.739  19.577  0.00  0.00    +0.000 A 
ATOM      3  C   UNL     1      -1.678  12.164  20.644  0.00  0.00    +0.000 A 
ATOM      4  C   UNL     1      -2.110  13.100  21.580  0.00  0.00    +0.000 A 
ATOM      5  C   UNL     1      -3.369  13.724  21.365  0.00  0.00    +0.000 A 
ATOM      6  C   UNL     1      -3.855  14.728  22.235  0.00  0.00    +0.000 A 
ATOM      7  C   UNL     1      -5.086  15.353  22.034  0.00  0.00    +0.000 A 
ATOM      8  C   UNL     1      -5.878  14.976  20.961  0.00  0.00    +0.000 A 
ATOM      9  C   UNL     1      -5.435  13.980  20.089  0.00  0.00    +0.000 A 
ATOM     10  C   UNL     1      -4.183  13.340  20.254  0.00  0.00    +0.000 A 
ATOM     11  C   UNL     1      -0.399  11.443  20.508  0.00  0.00    +0.000 C 
ATOM     12  O   UNL     1       0.669  11.785  20.974  0.00  0.00    +0.000 OA
ATOM     13  N   UNL     1      -0.637  10.347  19.684  0.00  0.00    +0.000 N 
ATOM     14  C   UNL     1      -1.795  10.616  18.857  0.00  0.00    +0.000 C 
ENDROOT
BRANCH  13  15
ATOM     15  C   UNL     1       0.437   9.547  19.243  0.00  0.00    +0.000 A 
ATOM     16  C   UNL     1       1.028   9.783  17.999  0.00  0.00    +0.000 A 
ATOM     17  C   UNL     1       2.115   9.012  17.577  0.00  0.00    +0.000 A 
ATOM     18  C   UNL     1       2.627   7.998  18.395  0.00  0.00    +0.000 A 
ATOM     19  C   UNL     1       2.065   7.799  19.663  0.00  0.00    +0.000 A 
ATOM     20  C   UNL     1       0.969   8.564  20.099  0.00  0.00    +0.000 A 
ATOM     21  C   UNL     1       0.382   8.288  21.457  0.00  0.00    +0.000 C 
BRANCH  18  22
ATOM     22  C   UNL     1       3.739   7.098  17.903  0.00  0.00    +0.000 C 
BRANCH  22  23
ATOM     23  C   UNL     1       3.659   5.668  18.399  0.00  0.00    +0.000 C 
ATOM     24  O   UNL     1       2.913   4.834  17.903  0.00  0.00    +0.000 OA
BRANCH  23  25
ATOM     25  O   UNL     1       4.524   5.343  19.386  0.00  0.00    +0.000 OA
ATOM     26  H   UNL     1       4.914   4.450  19.298  0.00  0.00    +0.000 HD
ENDBRANCH  23  25
ENDBRANCH  22  23
ENDBRANCH  18  22
ENDBRANCH  13  15
BRANCH   1  27
ATOM     27  O   UNL     1      -4.559  11.993  18.319  0.00  0.00    +0.000 OA
BRANCH  27  29
ATOM     28  C   UNL     1      -6.749  10.985  18.344  0.00  0.00    +0.000 C 
ATOM     29  C   UNL     1      -5.255  10.755  18.484  0.00  0.00    +0.000 C 
ENDBRANCH  27  29
ENDBRANCH   1  27
BRANCH   4  30
ATOM     30  O   UNL     1      -1.443  13.466  22.727  0.00  0.00    +0.000 OA
BRANCH  30  31
ATOM     31  C   UNL     1      -0.432  14.467  22.599  0.00  0.00    +0.000 C 
ATOM     32  C   UNL     1      -0.629  15.552  23.640  0.00  0.00    +0.000 C 
ENDBRANCH  30  31
ENDBRANCH   4  30
TORSDOF 8
ENDMDL
