MODEL 1
REMARK VINA RESULT:      -8.1      0.000      0.000
REMARK  Name = 
REMARK  6 active torsions:
REMARK  status: ('A' for Active; 'I' for Inactive)
REMARK    1  A    between atoms: C_1  and  O_2
REMARK    2  A    between atoms: O_2  and  C_3
REMARK    3  A    between atoms: C_6  and  C_7
REMARK    4  A    between atoms: C_11  and  C_12
REMARK    5  A    between atoms: C_13  and  C_14
REMARK    6  A    between atoms: C_18  and  C_19
REMARK                            x       y       z     vdW  Elec       q    Type
REMARK                         _______ _______ _______ _____ _____    ______ ____
ROOT
ATOM      1  C   UNL     1       6.770   5.126  15.145  0.00  0.00    +0.000 A 
ATOM      2  C   UNL     1       7.507   5.025  13.959  0.00  0.00    +0.000 A 
ATOM      3  C   UNL     1       7.026   4.288  12.877  0.00  0.00    +0.000 A 
ATOM      4  C   UNL     1       5.793   3.641  12.961  0.00  0.00    +0.000 A 
ATOM      5  C   UNL     1       5.034   3.769  14.136  0.00  0.00    +0.000 A 
ATOM      6  C   UNL     1       5.496   4.520  15.235  0.00  0.00    +0.000 A 
ENDROOT
BRANCH   4   7
ATOM      7  C   UNL     1       5.252   2.808  11.848  0.00  0.00    +0.000 C 
ATOM      8  N   UNL     1       5.922   1.666  11.496  0.00  0.00    +0.000 N 
ATOM      9  O   UNL     1       4.224   3.118  11.261  0.00  0.00    +0.000 OA
ATOM     10  H   UNL     1       6.753   1.310  11.938  0.00  0.00    +0.000 HD
ATOM     11  H   UNL     1       5.515   1.115  10.751  0.00  0.00    +0.000 HD
ENDBRANCH   4   7
BRANCH   1  13
ATOM     12  C   UNL     1       7.583   5.039  17.381  0.00  0.00    +0.000 C 
ATOM     13  O   UNL     1       7.235   5.812  16.238  0.00  0.00    +0.000 OA
ENDBRANCH   1  13
BRANCH   6  14
ATOM     14  C   UNL     1       4.673   4.509  16.467  0.00  0.00    +0.000 C 
ATOM     15  C   UNL     1       3.900   3.483  16.864  0.00  0.00    +0.000 C 
BRANCH  15  16
ATOM     16  C   UNL     1       2.941   3.530  17.982  0.00  0.00    +0.000 A 
ATOM     17  C   UNL     1       1.999   2.504  18.121  0.00  0.00    +0.000 A 
ATOM     18  C   UNL     1       0.989   2.588  19.083  0.00  0.00    +0.000 A 
ATOM     19  C   UNL     1       0.902   3.707  19.912  0.00  0.00    +0.000 A 
ATOM     20  C   UNL     1       1.832   4.745  19.793  0.00  0.00    +0.000 A 
ATOM     21  C   UNL     1       1.729   5.975  20.644  0.00  0.00    +0.000 C 
ATOM     22  C   UNL     1       2.843   4.649  18.823  0.00  0.00    +0.000 A 
ENDBRANCH  15  16
ENDBRANCH   6  14
TORSDOF 4
ENDMDL
MODEL 2
REMARK VINA RESULT:      -8.1      6.926      9.370
REMARK  Name = 
REMARK  6 active torsions:
REMARK  status: ('A' for Active; 'I' for Inactive)
REMARK    1  A    between atoms: C_1  and  O_2
REMARK    2  A    between atoms: O_2  and  C_3
REMARK    3  A    between atoms: C_6  and  C_7
REMARK    4  A    between atoms: C_11  and  C_12
REMARK    5  A    between atoms: C_13  and  C_14
REMARK    6  A    between atoms: C_18  and  C_19
REMARK                            x       y       z     vdW  Elec       q    Type
REMARK                         _______ _______ _______ _____ _____    ______ ____
ROOT
ATOM      1  C   UNL     1       9.574  11.652  20.393  0.00  0.00    +0.000 A 
ATOM      2  C   UNL     1      10.069  12.957  20.503  0.00  0.00    +0.000 A 
ATOM      3  C   UNL     1      10.644  13.600  19.408  0.00  0.00    +0.000 A 
ATOM      4  C   UNL     1      10.731  12.947  18.177  0.00  0.00    +0.000 A 
ATOM      5  C   UNL     1      10.204  11.652  18.053  0.00  0.00    +0.000 A 
ATOM      6  C   UNL     1       9.606  10.991  19.145  0.00  0.00    +0.000 A 
ENDROOT
BRANCH   4   7
ATOM      7  C   UNL     1      11.373  13.574  16.985  0.00  0.00    +0.000 C 
ATOM      8  N   UNL     1      12.330  12.868  16.307  0.00  0.00    +0.000 N 
ATOM      9  O   UNL     1      11.052  14.692  16.602  0.00  0.00    +0.000 OA
ATOM     10  H   UNL     1      12.637  11.934  16.522  0.00  0.00    +0.000 HD
ATOM     11  H   UNL     1      12.729  13.315  15.492  0.00  0.00    +0.000 HD
ENDBRANCH   4   7
BRANCH   1  13
ATOM     12  C   UNL     1       8.330  11.763  22.420  0.00  0.00    +0.000 C 
ATOM     13  O   UNL     1       9.036  10.982  21.463  0.00  0.00    +0.000 OA
ENDBRANCH   1  13
BRANCH   6  14
ATOM     14  C   UNL     1       9.174   9.587  18.943  0.00  0.00    +0.000 C 
ATOM     15  C   UNL     1       8.284   9.184  18.020  0.00  0.00    +0.000 C 
BRANCH  15  16
ATOM     16  C   UNL     1       7.711   7.829  17.932  0.00  0.00    +0.000 A 
ATOM     17  C   UNL     1       8.190   6.826  18.783  0.00  0.00    +0.000 A 
ATOM     18  C   UNL     1       7.767   5.502  18.631  0.00  0.00    +0.000 A 
ATOM     19  C   UNL     1       6.868   5.164  17.620  0.00  0.00    +0.000 A 
ATOM     20  C   UNL     1       6.374   6.149  16.759  0.00  0.00    +0.000 A 
ATOM     21  C   UNL     1       5.443   5.798  15.638  0.00  0.00    +0.000 C 
ATOM     22  C   UNL     1       6.805   7.476  16.920  0.00  0.00    +0.000 A 
ENDBRANCH  15  16
ENDBRANCH   6  14
TORSDOF 4
ENDMDL
MODEL 3
REMARK VINA RESULT:      -8.0      3.181      5.524
REMARK  Name = 
REMARK  6 active torsions:
REMARK  status: ('A' for Active; 'I' for Inactive)
REMARK    1  A    between atoms: C_1  and  O_2
REMARK    2  A    between atoms: O_2  and  C_3
REMARK    3  A    between atoms: C_6  and  C_7
REMARK    4  A    between atoms: C_11  and  C_12
REMARK    5  A    between atoms: C_13  and  C_14
REMARK    6  A    between atoms: C_18  and  C_19
REMARK                            x       y       z     vdW  Elec       q    Type
REMARK                         _______ _______ _______ _____ _____    ______ ____
ROOT
ATOM      1  C   UNL     1       2.894   4.661  17.664  0.00  0.00    +0.000 A 
ATOM      2  C   UNL     1       3.692   3.644  17.127  0.00  0.00    +0.000 A 
ATOM      3  C   UNL     1       4.973   3.915  16.650  0.00  0.00    +0.000 A 
ATOM      4  C   UNL     1       5.483   5.213  16.705  0.00  0.00    +0.000 A 
ATOM      5  C   UNL     1       4.700   6.230  17.276  0.00  0.00    +0.000 A 
ATOM      6  C   UNL     1       3.408   5.973  17.776  0.00  0.00    +0.000 A 
ENDROOT
BRANCH   4   7
ATOM      7  C   UNL     1       6.831   5.564  16.172  0.00  0.00    +0.000 C 
ATOM      8  N   UNL     1       7.377   4.775  15.195  0.00  0.00    +0.000 N 
ATOM      9  O   UNL     1       7.444   6.541  16.581  0.00  0.00    +0.000 OA
ATOM     10  H   UNL     1       6.940   3.973  14.771  0.00  0.00    +0.000 HD
ATOM     11  H   UNL     1       8.283   5.055  14.842  0.00  0.00    +0.000 HD
ENDBRANCH   4   7
BRANCH   1  13
ATOM     12  C   UNL     1       1.293   3.092  18.465  0.00  0.00    +0.000 C 
ATOM     13  O   UNL     1       1.615   4.431  18.107  0.00  0.00    +0.000 OA
ENDBRANCH   1  13
BRANCH   6  14
ATOM     14  C   UNL     1       2.618   7.129  18.262  0.00  0.00    +0.000 C 
ATOM     15  C   UNL     1       2.360   7.392  19.555  0.00  0.00    +0.000 C 
BRANCH  15  16
ATOM     16  C   UNL     1       1.427   8.426  20.038  0.00  0.00    +0.000 A 
ATOM     17  C   UNL     1       1.080   9.486  19.191  0.00  0.00    +0.000 A 
ATOM     18  C   UNL     1       0.311  10.553  19.664  0.00  0.00    +0.000 A 
ATOM     19  C   UNL     1      -0.111  10.579  20.993  0.00  0.00    +0.000 A 
ATOM     20  C   UNL     1       0.222   9.532  21.857  0.00  0.00    +0.000 A 
ATOM     21  C   UNL     1      -0.184   9.563  23.300  0.00  0.00    +0.000 C 
ATOM     22  C   UNL     1       0.994   8.464  21.372  0.00  0.00    +0.000 A 
ENDBRANCH  15  16
ENDBRANCH   6  14
TORSDOF 4
ENDMDL
MODEL 4
REMARK VINA RESULT:      -8.0      3.349      5.597
REMARK  Name = 
REMARK  6 active torsions:
REMARK  status: ('A' for Active; 'I' for Inactive)
REMARK    1  A    between atoms: C_1  and  O_2
REMARK    2  A    between atoms: O_2  and  C_3
REMARK    3  A    between atoms: C_6  and  C_7
REMARK    4  A    between atoms: C_11  and  C_12
REMARK    5  A    between atoms: C_13  and  C_14
REMARK    6  A    between atoms: C_18  and  C_19
REMARK                            x       y       z     vdW  Elec       q    Type
REMARK                         _______ _______ _______ _____ _____    ______ ____
ROOT
ATOM      1  C   UNL     1       2.821   4.568  17.666  0.00  0.00    +0.000 A 
ATOM      2  C   UNL     1       3.586   3.515  17.150  0.00  0.00    +0.000 A 
ATOM      3  C   UNL     1       4.932   3.696  16.834  0.00  0.00    +0.000 A 
ATOM      4  C   UNL     1       5.539   4.937  17.032  0.00  0.00    +0.000 A 
ATOM      5  C   UNL     1       4.785   5.986  17.582  0.00  0.00    +0.000 A 
ATOM      6  C   UNL     1       3.427   5.819  17.922  0.00  0.00    +0.000 A 
ENDROOT
BRANCH   4   7
ATOM      7  C   UNL     1       6.964   5.194  16.673  0.00  0.00    +0.000 C 
ATOM      8  N   UNL     1       7.923   4.325  17.123  0.00  0.00    +0.000 N 
ATOM      9  O   UNL     1       7.284   6.152  15.981  0.00  0.00    +0.000 OA
ATOM     10  H   UNL     1       7.757   3.494  17.666  0.00  0.00    +0.000 HD
ATOM     11  H   UNL     1       8.875   4.519  16.843  0.00  0.00    +0.000 HD
ENDBRANCH   4   7
BRANCH   1  13
ATOM     12  C   UNL     1       1.149   3.598  19.055  0.00  0.00    +0.000 C 
ATOM     13  O   UNL     1       1.485   4.429  17.951  0.00  0.00    +0.000 OA
ENDBRANCH   1  13
BRANCH   6  14
ATOM     14  C   UNL     1       2.687   7.012  18.397  0.00  0.00    +0.000 C 
ATOM     15  C   UNL     1       2.383   7.264  19.682  0.00  0.00    +0.000 C 
BRANCH  15  16
ATOM     16  C   UNL     1       1.494   8.345  20.144  0.00  0.00    +0.000 A 
ATOM     17  C   UNL     1       0.915   8.259  21.416  0.00  0.00    +0.000 A 
ATOM     18  C   UNL     1      -0.039   9.194  21.828  0.00  0.00    +0.000 A 
ATOM     19  C   UNL     1      -0.433  10.220  20.969  0.00  0.00    +0.000 A 
ATOM     20  C   UNL     1       0.133  10.327  19.695  0.00  0.00    +0.000 A 
ATOM     21  C   UNL     1      -0.310  11.396  18.742  0.00  0.00    +0.000 C 
ATOM     22  C   UNL     1       1.091   9.383  19.291  0.00  0.00    +0.000 A 
ENDBRANCH  15  16
ENDBRANCH   6  14
TORSDOF 4
ENDMDL
MODEL 5
REMARK VINA RESULT:      -7.9      3.680      5.854
REMARK  Name = 
REMARK  6 active torsions:
REMARK  status: ('A' for Active; 'I' for Inactive)
REMARK    1  A    between atoms: C_1  and  O_2
REMARK    2  A    between atoms: O_2  and  C_3
REMARK    3  A    between atoms: C_6  and  C_7
REMARK    4  A    between atoms: C_11  and  C_12
REMARK    5  A    between atoms: C_13  and  C_14
REMARK    6  A    between atoms: C_18  and  C_19
REMARK                            x       y       z     vdW  Elec       q    Type
REMARK                         _______ _______ _______ _____ _____    ______ ____
ROOT
ATOM      1  C   UNL     1       2.814   4.581  17.612  0.00  0.00    +0.000 A 
ATOM      2  C   UNL     1       3.586   3.603  16.975  0.00  0.00    +0.000 A 
ATOM      3  C   UNL     1       4.941   3.812  16.721  0.00  0.00    +0.000 A 
ATOM      4  C   UNL     1       5.551   5.007  17.105  0.00  0.00    +0.000 A 
ATOM      5  C   UNL     1       4.789   5.977  17.776  0.00  0.00    +0.000 A 
ATOM      6  C   UNL     1       3.421   5.779  18.054  0.00  0.00    +0.000 A 
ENDROOT
BRANCH   4   7
ATOM      7  C   UNL     1       6.987   5.297  16.821  0.00  0.00    +0.000 C 
ATOM      8  N   UNL     1       7.923   4.350  17.137  0.00  0.00    +0.000 N 
ATOM      9  O   UNL     1       7.334   6.352  16.306  0.00  0.00    +0.000 OA
ATOM     10  H   UNL     1       7.735   3.442  17.531  0.00  0.00    +0.000 HD
ATOM     11  H   UNL     1       8.884   4.572  16.912  0.00  0.00    +0.000 HD
ENDBRANCH   4   7
BRANCH   1  13
ATOM     12  C   UNL     1       1.097   3.397  18.758  0.00  0.00    +0.000 C 
ATOM     13  O   UNL     1       1.471   4.418  17.841  0.00  0.00    +0.000 OA
ENDBRANCH   1  13
BRANCH   6  14
ATOM     14  C   UNL     1       2.677   6.902  18.671  0.00  0.00    +0.000 C 
ATOM     15  C   UNL     1       2.248   7.992  18.011  0.00  0.00    +0.000 C 
BRANCH  15  16
ATOM     16  C   UNL     1       1.674   9.192  18.644  0.00  0.00    +0.000 A 
ATOM     17  C   UNL     1       1.902  10.448  18.067  0.00  0.00    +0.000 A 
ATOM     18  C   UNL     1       1.491  11.615  18.716  0.00  0.00    +0.000 A 
ATOM     19  C   UNL     1       0.856  11.543  19.956  0.00  0.00    +0.000 A 
ATOM     20  C   UNL     1       0.616  10.301  20.551  0.00  0.00    +0.000 A 
ATOM     21  C   UNL     1      -0.024  10.204  21.903  0.00  0.00    +0.000 C 
ATOM     22  C   UNL     1       1.032   9.134  19.890  0.00  0.00    +0.000 A 
ENDBRANCH  15  16
ENDBRANCH   6  14
TORSDOF 4
ENDMDL
MODEL 6
REMARK VINA RESULT:      -7.9      3.308      7.312
REMARK  Name = 
REMARK  6 active torsions:
REMARK  status: ('A' for Active; 'I' for Inactive)
REMARK    1  A    between atoms: C_1  and  O_2
REMARK    2  A    between atoms: O_2  and  C_3
REMARK    3  A    between atoms: C_6  and  C_7
REMARK    4  A    between atoms: C_11  and  C_12
REMARK    5  A    between atoms: C_13  and  C_14
REMARK    6  A    between atoms: C_18  and  C_19
REMARK                            x       y       z     vdW  Elec       q    Type
REMARK                         _______ _______ _______ _____ _____    ______ ____
ROOT
ATOM      1  C   UNL     1       3.500   3.873  18.910  0.00  0.00    +0.000 A 
ATOM      2  C   UNL     1       2.824   4.411  20.011  0.00  0.00    +0.000 A 
ATOM      3  C   UNL     1       2.368   5.728  19.998  0.00  0.00    +0.000 A 
ATOM      4  C   UNL     1       2.578   6.533  18.877  0.00  0.00    +0.000 A 
ATOM      5  C   UNL     1       3.224   5.986  17.756  0.00  0.00    +0.000 A 
ATOM      6  C   UNL     1       3.680   4.653  17.745  0.00  0.00    +0.000 A 
ENDROOT
BRANCH   4   7
ATOM      7  C   UNL     1       2.146   7.960  18.827  0.00  0.00    +0.000 C 
ATOM      8  N   UNL     1       2.317   8.658  17.661  0.00  0.00    +0.000 N 
ATOM      9  O   UNL     1       1.636   8.506  19.797  0.00  0.00    +0.000 OA
ATOM     10  H   UNL     1       2.693   8.289  16.803  0.00  0.00    +0.000 HD
ATOM     11  H   UNL     1       1.994   9.616  17.657  0.00  0.00    +0.000 HD
ENDBRANCH   4   7
BRANCH   1  13
ATOM     12  C   UNL     1       4.444   2.077  20.156  0.00  0.00    +0.000 C 
ATOM     13  O   UNL     1       3.993   2.591  18.908  0.00  0.00    +0.000 OA
ENDBRANCH   1  13
BRANCH   6  14
ATOM     14  C   UNL     1       4.443   4.199  16.558  0.00  0.00    +0.000 C 
ATOM     15  C   UNL     1       5.380   4.927  15.925  0.00  0.00    +0.000 C 
BRANCH  15  16
ATOM     16  C   UNL     1       6.008   4.564  14.642  0.00  0.00    +0.000 A 
ATOM     17  C   UNL     1       7.184   5.214  14.246  0.00  0.00    +0.000 A 
ATOM     18  C   UNL     1       7.727   4.994  12.977  0.00  0.00    +0.000 A 
ATOM     19  C   UNL     1       7.094   4.128  12.084  0.00  0.00    +0.000 A 
ATOM     20  C   UNL     1       5.921   3.467  12.457  0.00  0.00    +0.000 A 
ATOM     21  C   UNL     1       5.202   2.568  11.496  0.00  0.00    +0.000 C 
ATOM     22  C   UNL     1       5.384   3.695  13.735  0.00  0.00    +0.000 A 
ENDBRANCH  15  16
ENDBRANCH   6  14
TORSDOF 4
ENDMDL
MODEL 7
REMARK VINA RESULT:      -7.8      3.157      6.987
REMARK  Name = 
REMARK  6 active torsions:
REMARK  status: ('A' for Active; 'I' for Inactive)
REMARK    1  A    between atoms: C_1  and  O_2
REMARK    2  A    between atoms: O_2  and  C_3
REMARK    3  A    between atoms: C_6  and  C_7
REMARK    4  A    between atoms: C_11  and  C_12
REMARK    5  A    between atoms: C_13  and  C_14
REMARK    6  A    between atoms: C_18  and  C_19
REMARK                            x       y       z     vdW  Elec       q    Type
REMARK                         _______ _______ _______ _____ _____    ______ ____
ROOT
ATOM      1  C   UNL     1       4.794   5.249  18.766  0.00  0.00    +0.000 A 
ATOM      2  C   UNL     1       3.939   5.499  19.846  0.00  0.00    +0.000 A 
ATOM      3  C   UNL     1       2.752   4.783  20.001  0.00  0.00    +0.000 A 
ATOM      4  C   UNL     1       2.401   3.798  19.078  0.00  0.00    +0.000 A 
ATOM      5  C   UNL     1       3.273   3.519  18.012  0.00  0.00    +0.000 A 
ATOM      6  C   UNL     1       4.483   4.222  17.846  0.00  0.00    +0.000 A 
ENDROOT
BRANCH   4   7
ATOM      7  C   UNL     1       1.124   3.032  19.175  0.00  0.00    +0.000 C 
ATOM      8  N   UNL     1       0.396   3.112  20.332  0.00  0.00    +0.000 N 
ATOM      9  O   UNL     1       0.717   2.352  18.243  0.00  0.00    +0.000 OA
ATOM     10  H   UNL     1       0.629   3.669  21.138  0.00  0.00    +0.000 HD
ATOM     11  H   UNL     1      -0.474   2.597  20.355  0.00  0.00    +0.000 HD
ENDBRANCH   4   7
BRANCH   1  13
ATOM     12  C   UNL     1       7.086   5.567  19.327  0.00  0.00    +0.000 C 
ATOM     13  O   UNL     1       5.949   5.962  18.568  0.00  0.00    +0.000 OA
ENDBRANCH   1  13
BRANCH   6  14
ATOM     14  C   UNL     1       5.285   3.929  16.634  0.00  0.00    +0.000 C 
ATOM     15  C   UNL     1       5.461   4.779  15.608  0.00  0.00    +0.000 C 
BRANCH  15  16
ATOM     16  C   UNL     1       6.097   4.435  14.324  0.00  0.00    +0.000 A 
ATOM     17  C   UNL     1       7.197   5.179  13.882  0.00  0.00    +0.000 A 
ATOM     18  C   UNL     1       7.735   4.968  12.609  0.00  0.00    +0.000 A 
ATOM     19  C   UNL     1       7.171   4.018  11.758  0.00  0.00    +0.000 A 
ATOM     20  C   UNL     1       6.072   3.262  12.177  0.00  0.00    +0.000 A 
ATOM     21  C   UNL     1       5.424   2.268  11.261  0.00  0.00    +0.000 C 
ATOM     22  C   UNL     1       5.541   3.481  13.459  0.00  0.00    +0.000 A 
ENDBRANCH  15  16
ENDBRANCH   6  14
TORSDOF 4
ENDMDL
MODEL 8
REMARK VINA RESULT:      -7.7      0.995      1.736
REMARK  Name = 
REMARK  6 active torsions:
REMARK  status: ('A' for Active; 'I' for Inactive)
REMARK    1  A    between atoms: C_1  and  O_2
REMARK    2  A    between atoms: O_2  and  C_3
REMARK    3  A    between atoms: C_6  and  C_7
REMARK    4  A    between atoms: C_11  and  C_12
REMARK    5  A    between atoms: C_13  and  C_14
REMARK    6  A    between atoms: C_18  and  C_19
REMARK                            x       y       z     vdW  Elec       q    Type
REMARK                         _______ _______ _______ _____ _____    ______ ____
ROOT
ATOM      1  C   UNL     1       7.027   5.179  15.778  0.00  0.00    +0.000 A 
ATOM      2  C   UNL     1       7.755   5.160  14.582  0.00  0.00    +0.000 A 
ATOM      3  C   UNL     1       7.251   4.526  13.447  0.00  0.00    +0.000 A 
ATOM      4  C   UNL     1       6.004   3.902  13.487  0.00  0.00    +0.000 A 
ATOM      5  C   UNL     1       5.255   3.949  14.674  0.00  0.00    +0.000 A 
ATOM      6  C   UNL     1       5.741   4.596  15.828  0.00  0.00    +0.000 A 
ENDROOT
BRANCH   4   7
ATOM      7  C   UNL     1       5.437   3.176  12.313  0.00  0.00    +0.000 C 
ATOM      8  N   UNL     1       6.116   2.093  11.820  0.00  0.00    +0.000 N 
ATOM      9  O   UNL     1       4.381   3.521  11.800  0.00  0.00    +0.000 OA
ATOM     10  H   UNL     1       6.970   1.713  12.192  0.00  0.00    +0.000 HD
ATOM     11  H   UNL     1       5.691   1.613  11.037  0.00  0.00    +0.000 HD
ENDBRANCH   4   7
BRANCH   1  13
ATOM     12  C   UNL     1       7.337   7.168  17.048  0.00  0.00    +0.000 C 
ATOM     13  O   UNL     1       7.515   5.762  16.921  0.00  0.00    +0.000 OA
ENDBRANCH   1  13
BRANCH   6  14
ATOM     14  C   UNL     1       4.925   4.502  17.062  0.00  0.00    +0.000 C 
ATOM     15  C   UNL     1       3.609   4.765  17.133  0.00  0.00    +0.000 C 
BRANCH  15  16
ATOM     16  C   UNL     1       2.831   4.855  18.381  0.00  0.00    +0.000 A 
ATOM     17  C   UNL     1       2.617   6.108  18.969  0.00  0.00    +0.000 A 
ATOM     18  C   UNL     1       2.005   6.213  20.221  0.00  0.00    +0.000 A 
ATOM     19  C   UNL     1       1.608   5.064  20.906  0.00  0.00    +0.000 A 
ATOM     20  C   UNL     1       1.808   3.802  20.339  0.00  0.00    +0.000 A 
ATOM     21  C   UNL     1       1.429   2.555  21.079  0.00  0.00    +0.000 C 
ATOM     22  C   UNL     1       2.424   3.708  19.080  0.00  0.00    +0.000 A 
ENDBRANCH  15  16
ENDBRANCH   6  14
TORSDOF 4
ENDMDL
MODEL 9
REMARK VINA RESULT:      -7.7      4.230      6.136
REMARK  Name = 
REMARK  6 active torsions:
REMARK  status: ('A' for Active; 'I' for Inactive)
REMARK    1  A    between atoms: C_1  and  O_2
REMARK    2  A    between atoms: O_2  and  C_3
REMARK    3  A    between atoms: C_6  and  C_7
REMARK    4  A    between atoms: C_11  and  C_12
REMARK    5  A    between atoms: C_13  and  C_14
REMARK    6  A    between atoms: C_18  and  C_19
REMARK                            x       y       z     vdW  Elec       q    Type
REMARK                         _______ _______ _______ _____ _____    ______ ____
ROOT
ATOM      1  C   UNL     1       2.953   5.020  17.759  0.00  0.00    +0.000 A 
ATOM      2  C   UNL     1       3.737   4.000  17.208  0.00  0.00    +0.000 A 
ATOM      3  C   UNL     1       5.017   4.263  16.722  0.00  0.00    +0.000 A 
ATOM      4  C   UNL     1       5.538   5.556  16.782  0.00  0.00    +0.000 A 
ATOM      5  C   UNL     1       4.769   6.576  17.367  0.00  0.00    +0.000 A 
ATOM      6  C   UNL     1       3.479   6.326  17.876  0.00  0.00    +0.000 A 
ENDROOT
BRANCH   4   7
ATOM      7  C   UNL     1       6.885   5.900  16.240  0.00  0.00    +0.000 C 
ATOM      8  N   UNL     1       7.317   5.268  15.105  0.00  0.00    +0.000 N 
ATOM      9  O   UNL     1       7.596   6.737  16.782  0.00  0.00    +0.000 OA
ATOM     10  H   UNL     1       6.795   4.594  14.570  0.00  0.00    +0.000 HD
ATOM     11  H   UNL     1       8.226   5.542  14.754  0.00  0.00    +0.000 HD
ENDBRANCH   4   7
BRANCH   1  13
ATOM     12  C   UNL     1       1.365   3.472  18.625  0.00  0.00    +0.000 C 
ATOM     13  O   UNL     1       1.676   4.797  18.211  0.00  0.00    +0.000 OA
ENDBRANCH   1  13
BRANCH   6  14
ATOM     14  C   UNL     1       2.703   7.486  18.377  0.00  0.00    +0.000 C 
ATOM     15  C   UNL     1       2.251   8.494  17.611  0.00  0.00    +0.000 C 
BRANCH  15  16
ATOM     16  C   UNL     1       1.644   9.737  18.121  0.00  0.00    +0.000 A 
ATOM     17  C   UNL     1       0.291   9.743  18.478  0.00  0.00    +0.000 A 
ATOM     18  C   UNL     1      -0.348  10.935  18.832  0.00  0.00    +0.000 A 
ATOM     19  C   UNL     1       0.358  12.138  18.822  0.00  0.00    +0.000 A 
ATOM     20  C   UNL     1       1.711  12.157  18.470  0.00  0.00    +0.000 A 
ATOM     21  C   UNL     1       2.475  13.446  18.410  0.00  0.00    +0.000 C 
ATOM     22  C   UNL     1       2.343  10.954  18.117  0.00  0.00    +0.000 A 
ENDBRANCH  15  16
ENDBRANCH   6  14
TORSDOF 4
ENDMDL
