MODEL 1
REMARK VINA RESULT:      -8.5      0.000      0.000
REMARK  Name = 
REMARK  8 active torsions:
REMARK  status: ('A' for Active; 'I' for Inactive)
REMARK    1  A    between atoms: C_1  and  O_2
REMARK    2  A    between atoms: O_2  and  C_3
REMARK    3  A    between atoms: C_5  and  O_6
REMARK    4  A    between atoms: O_6  and  C_7
REMARK    5  A    between atoms: C_10  and  C_12
REMARK    6  A    between atoms: C_15  and  C_16
REMARK    7  A    between atoms: C_26  and  C_27
REMARK    8  A    between atoms: C_27  and  N_28
REMARK                            x       y       z     vdW  Elec       q    Type
REMARK                         _______ _______ _______ _____ _____    ______ ____
ROOT
ATOM      1  O   UNL     1       1.575   7.087  19.675  0.00  0.00    +0.000 OA
ENDROOT
BRANCH   1   4
ATOM      2  C   UNL     1       0.783  10.430  20.984  0.00  0.00    +0.000 A 
ATOM      3  C   UNL     1       0.983   9.036  20.862  0.00  0.00    +0.000 A 
ATOM      4  C   UNL     1       1.393   8.452  19.662  0.00  0.00    +0.000 A 
ATOM      5  C   UNL     1       1.585   9.272  18.560  0.00  0.00    +0.000 A 
ATOM      6  C   UNL     1       1.379  10.654  18.667  0.00  0.00    +0.000 A 
ATOM      7  C   UNL     1       0.960  11.269  19.867  0.00  0.00    +0.000 A 
BRANCH   2   9
ATOM      8  C   UNL     1      -0.210   9.776  23.065  0.00  0.00    +0.000 C 
ATOM      9  O   UNL     1       0.332  10.788  22.228  0.00  0.00    +0.000 OA
ENDBRANCH   2   9
BRANCH   7  10
ATOM     10  C   UNL     1       0.825  12.795  19.900  0.00  0.00    +0.000 C 
BRANCH  10  11
ATOM     11  N   UNL     1       2.114  13.544  19.882  0.00  0.00    +0.000 NA
ATOM     12  C   UNL     1       2.396  13.941  18.474  0.00  0.00    +0.000 C 
ATOM     13  C   UNL     1       2.274  15.455  18.371  0.00  0.00    +0.000 C 
ATOM     14  C   UNL     1       2.653  15.934  19.745  0.00  0.00    +0.000 C 
ATOM     15  C   UNL     1       2.156  14.826  20.660  0.00  0.00    +0.000 C 
ATOM     16  C   UNL     1       1.114  14.939  21.815  0.00  0.00    +0.000 C 
ATOM     17  O   UNL     1       2.147  15.404  22.724  0.00  0.00    +0.000 OA
ATOM     18  C   UNL     1       3.146  14.776  21.861  0.00  0.00    +0.000 C 
ENDBRANCH  10  11
ENDBRANCH   7  10
ENDBRANCH   1   4
BRANCH   1  19
ATOM     19  C   UNL     1       2.899   6.558  19.938  0.00  0.00    +0.000 C 
ATOM     20  C   UNL     1       2.981   5.046  20.263  0.00  0.00    +0.000 C 
ATOM     21  N   UNL     1       4.113   4.995  19.355  0.00  0.00    +0.000 N 
ATOM     22  C   UNL     1       4.903   3.929  18.977  0.00  0.00    +0.000 C 
ATOM     23  O   UNL     1       4.768   2.826  19.522  0.00  0.00    +0.000 OA
ATOM     24  C   UNL     1       3.792   6.254  18.713  0.00  0.00    +0.000 C 
BRANCH  22  25
ATOM     25  C   UNL     1       5.899   4.181  17.943  0.00  0.00    +0.000 A 
ATOM     26  N   UNL     1       7.166   4.502  18.135  0.00  0.00    +0.000 NA
ATOM     27  N   UNL     1       7.743   4.607  16.895  0.00  0.00    +0.000 NA
ATOM     28  C   UNL     1       6.799   4.348  16.014  0.00  0.00    +0.000 A 
ATOM     29  O   UNL     1       5.588   4.060  16.602  0.00  0.00    +0.000 OA
BRANCH  28  30
ATOM     30  C   UNL     1       6.868   4.339  14.562  0.00  0.00    +0.000 A 
ATOM     31  C   UNL     1       7.712   5.263  13.923  0.00  0.00    +0.000 A 
ATOM     32  C   UNL     1       7.792   5.318  12.530  0.00  0.00    +0.000 A 
ATOM     33  C   UNL     1       7.031   4.446  11.758  0.00  0.00    +0.000 A 
ATOM     34  C   UNL     1       6.195   3.517  12.376  0.00  0.00    +0.000 A 
ATOM     35  C   UNL     1       6.115   3.461  13.772  0.00  0.00    +0.000 A 
ENDBRANCH  28  30
ENDBRANCH  22  25
ENDBRANCH   1  19
TORSDOF 7
ENDMDL
MODEL 2
REMARK VINA RESULT:      -8.4      2.497      3.502
REMARK  Name = 
REMARK  8 active torsions:
REMARK  status: ('A' for Active; 'I' for Inactive)
REMARK    1  A    between atoms: C_1  and  O_2
REMARK    2  A    between atoms: O_2  and  C_3
REMARK    3  A    between atoms: C_5  and  O_6
REMARK    4  A    between atoms: O_6  and  C_7
REMARK    5  A    between atoms: C_10  and  C_12
REMARK    6  A    between atoms: C_15  and  C_16
REMARK    7  A    between atoms: C_26  and  C_27
REMARK    8  A    between atoms: C_27  and  N_28
REMARK                            x       y       z     vdW  Elec       q    Type
REMARK                         _______ _______ _______ _____ _____    ______ ____
ROOT
ATOM      1  O   UNL     1       1.310   8.545  17.957  0.00  0.00    +0.000 OA
ENDROOT
BRANCH   1   4
ATOM      2  C   UNL     1      -1.222  11.170  18.424  0.00  0.00    +0.000 A 
ATOM      3  C   UNL     1      -0.469  10.091  17.906  0.00  0.00    +0.000 A 
ATOM      4  C   UNL     1       0.676   9.616  18.547  0.00  0.00    +0.000 A 
ATOM      5  C   UNL     1       1.088  10.243  19.713  0.00  0.00    +0.000 A 
ATOM      6  C   UNL     1       0.356  11.320  20.231  0.00  0.00    +0.000 A 
ATOM      7  C   UNL     1      -0.803  11.823  19.599  0.00  0.00    +0.000 A 
BRANCH   2   9
ATOM      8  C   UNL     1      -3.439  10.698  17.647  0.00  0.00    +0.000 C 
ATOM      9  O   UNL     1      -2.275  11.511  17.616  0.00  0.00    +0.000 OA
ENDBRANCH   2   9
BRANCH   7  10
ATOM     10  C   UNL     1      -1.570  12.963  20.277  0.00  0.00    +0.000 C 
BRANCH  10  11
ATOM     11  N   UNL     1      -1.394  13.052  21.755  0.00  0.00    +0.000 NA
ATOM     12  C   UNL     1      -0.498  14.207  22.044  0.00  0.00    +0.000 C 
ATOM     13  C   UNL     1      -1.318  15.285  22.738  0.00  0.00    +0.000 C 
ATOM     14  C   UNL     1      -2.379  14.508  23.468  0.00  0.00    +0.000 C 
ATOM     15  C   UNL     1      -2.631  13.312  22.563  0.00  0.00    +0.000 C 
ATOM     16  C   UNL     1      -3.972  12.899  21.882  0.00  0.00    +0.000 C 
ATOM     17  O   UNL     1      -4.405  12.235  23.098  0.00  0.00    +0.000 OA
ATOM     18  C   UNL     1      -3.005  12.127  23.502  0.00  0.00    +0.000 C 
ENDBRANCH  10  11
ENDBRANCH   7  10
ENDBRANCH   1   4
BRANCH   1  19
ATOM     19  C   UNL     1       2.534   8.042  18.548  0.00  0.00    +0.000 C 
ATOM     20  C   UNL     1       2.413   6.728  19.360  0.00  0.00    +0.000 C 
ATOM     21  N   UNL     1       3.614   6.288  18.674  0.00  0.00    +0.000 N 
ATOM     22  C   UNL     1       4.311   5.102  18.773  0.00  0.00    +0.000 C 
ATOM     23  O   UNL     1       4.001   4.264  19.628  0.00  0.00    +0.000 OA
ATOM     24  C   UNL     1       3.501   7.274  17.617  0.00  0.00    +0.000 C 
BRANCH  22  25
ATOM     25  C   UNL     1       5.425   4.913  17.851  0.00  0.00    +0.000 A 
ATOM     26  N   UNL     1       6.694   4.746  18.177  0.00  0.00    +0.000 NA
ATOM     27  N   UNL     1       7.386   4.568  17.005  0.00  0.00    +0.000 NA
ATOM     28  C   UNL     1       6.505   4.640  16.029  0.00  0.00    +0.000 A 
ATOM     29  O   UNL     1       5.224   4.854  16.485  0.00  0.00    +0.000 OA
BRANCH  28  30
ATOM     30  C   UNL     1       6.707   4.536  14.594  0.00  0.00    +0.000 A 
ATOM     31  C   UNL     1       5.929   3.618  13.869  0.00  0.00    +0.000 A 
ATOM     32  C   UNL     1       6.104   3.456  12.494  0.00  0.00    +0.000 A 
ATOM     33  C   UNL     1       7.061   4.213  11.824  0.00  0.00    +0.000 A 
ATOM     34  C   UNL     1       7.836   5.135  12.526  0.00  0.00    +0.000 A 
ATOM     35  C   UNL     1       7.659   5.298  13.904  0.00  0.00    +0.000 A 
ENDBRANCH  28  30
ENDBRANCH  22  25
ENDBRANCH   1  19
TORSDOF 7
ENDMDL
MODEL 3
REMARK VINA RESULT:      -8.4      2.192     10.390
REMARK  Name = 
REMARK  8 active torsions:
REMARK  status: ('A' for Active; 'I' for Inactive)
REMARK    1  A    between atoms: C_1  and  O_2
REMARK    2  A    between atoms: O_2  and  C_3
REMARK    3  A    between atoms: C_5  and  O_6
REMARK    4  A    between atoms: O_6  and  C_7
REMARK    5  A    between atoms: C_10  and  C_12
REMARK    6  A    between atoms: C_15  and  C_16
REMARK    7  A    between atoms: C_26  and  C_27
REMARK    8  A    between atoms: C_27  and  N_28
REMARK                            x       y       z     vdW  Elec       q    Type
REMARK                         _______ _______ _______ _____ _____    ______ ____
ROOT
ATOM      1  O   UNL     1       0.618   8.765  20.872  0.00  0.00    +0.000 OA
ENDROOT
BRANCH   1   4
ATOM      2  C   UNL     1       3.050   6.488  19.316  0.00  0.00    +0.000 A 
ATOM      3  C   UNL     1       2.153   7.097  20.224  0.00  0.00    +0.000 A 
ATOM      4  C   UNL     1       1.483   8.282  19.916  0.00  0.00    +0.000 A 
ATOM      5  C   UNL     1       1.730   8.880  18.689  0.00  0.00    +0.000 A 
ATOM      6  C   UNL     1       2.625   8.291  17.785  0.00  0.00    +0.000 A 
ATOM      7  C   UNL     1       3.319   7.096  18.074  0.00  0.00    +0.000 A 
BRANCH   2   9
ATOM      8  C   UNL     1       2.822   4.229  20.082  0.00  0.00    +0.000 C 
ATOM      9  O   UNL     1       3.639   5.364  19.835  0.00  0.00    +0.000 OA
ENDBRANCH   2   9
BRANCH   7  10
ATOM     10  C   UNL     1       4.228   6.497  16.996  0.00  0.00    +0.000 C 
BRANCH  10  11
ATOM     11  N   UNL     1       5.115   5.393  17.461  0.00  0.00    +0.000 NA
ATOM     12  C   UNL     1       4.897   4.220  16.570  0.00  0.00    +0.000 C 
ATOM     13  C   UNL     1       6.159   4.003  15.747  0.00  0.00    +0.000 C 
ATOM     14  C   UNL     1       7.256   4.515  16.640  0.00  0.00    +0.000 C 
ATOM     15  C   UNL     1       6.592   5.651  17.404  0.00  0.00    +0.000 C 
ATOM     16  C   UNL     1       7.008   7.155  17.426  0.00  0.00    +0.000 C 
ATOM     17  O   UNL     1       8.007   6.880  18.444  0.00  0.00    +0.000 OA
ATOM     18  C   UNL     1       7.261   5.678  18.810  0.00  0.00    +0.000 C 
ENDBRANCH  10  11
ENDBRANCH   7  10
ENDBRANCH   1   4
BRANCH   1  19
ATOM     19  C   UNL     1      -0.035  10.039  20.649  0.00  0.00    +0.000 C 
ATOM     20  C   UNL     1      -0.762  10.660  21.867  0.00  0.00    +0.000 C 
ATOM     21  N   UNL     1      -0.145  11.920  21.491  0.00  0.00    +0.000 N 
ATOM     22  C   UNL     1      -0.230  13.164  22.081  0.00  0.00    +0.000 C 
ATOM     23  O   UNL     1      -1.012  13.358  23.020  0.00  0.00    +0.000 OA
ATOM     24  C   UNL     1       0.861  11.299  20.651  0.00  0.00    +0.000 C 
BRANCH  22  25
ATOM     25  C   UNL     1       0.614  14.215  21.527  0.00  0.00    +0.000 A 
ATOM     26  N   UNL     1       1.726  14.691  22.057  0.00  0.00    +0.000 NA
ATOM     27  N   UNL     1       2.211  15.634  21.187  0.00  0.00    +0.000 NA
ATOM     28  C   UNL     1       1.369  15.686  20.175  0.00  0.00    +0.000 A 
ATOM     29  O   UNL     1       0.321  14.805  20.312  0.00  0.00    +0.000 OA
BRANCH  28  30
ATOM     30  C   UNL     1       1.400  16.527  18.991  0.00  0.00    +0.000 A 
ATOM     31  C   UNL     1       0.278  17.319  18.697  0.00  0.00    +0.000 A 
ATOM     32  C   UNL     1       0.243  18.121  17.555  0.00  0.00    +0.000 A 
ATOM     33  C   UNL     1       1.334  18.143  16.691  0.00  0.00    +0.000 A 
ATOM     34  C   UNL     1       2.459  17.370  16.972  0.00  0.00    +0.000 A 
ATOM     35  C   UNL     1       2.495  16.567  18.117  0.00  0.00    +0.000 A 
ENDBRANCH  28  30
ENDBRANCH  22  25
ENDBRANCH   1  19
TORSDOF 7
ENDMDL
MODEL 4
REMARK VINA RESULT:      -8.3      2.967      3.867
REMARK  Name = 
REMARK  8 active torsions:
REMARK  status: ('A' for Active; 'I' for Inactive)
REMARK    1  A    between atoms: C_1  and  O_2
REMARK    2  A    between atoms: O_2  and  C_3
REMARK    3  A    between atoms: C_5  and  O_6
REMARK    4  A    between atoms: O_6  and  C_7
REMARK    5  A    between atoms: C_10  and  C_12
REMARK    6  A    between atoms: C_15  and  C_16
REMARK    7  A    between atoms: C_26  and  C_27
REMARK    8  A    between atoms: C_27  and  N_28
REMARK                            x       y       z     vdW  Elec       q    Type
REMARK                         _______ _______ _______ _____ _____    ______ ____
ROOT
ATOM      1  O   UNL     1       1.405   8.867  17.628  0.00  0.00    +0.000 OA
ENDROOT
BRANCH   1   4
ATOM      2  C   UNL     1      -1.509  10.866  18.644  0.00  0.00    +0.000 A 
ATOM      3  C   UNL     1      -0.675   9.898  18.039  0.00  0.00    +0.000 A 
ATOM      4  C   UNL     1       0.704   9.873  18.256  0.00  0.00    +0.000 A 
ATOM      5  C   UNL     1       1.262  10.845  19.073  0.00  0.00    +0.000 A 
ATOM      6  C   UNL     1       0.446  11.816  19.669  0.00  0.00    +0.000 A 
ATOM      7  C   UNL     1      -0.950  11.867  19.463  0.00  0.00    +0.000 A 
BRANCH   2   9
ATOM      8  C   UNL     1      -3.157  11.056  16.915  0.00  0.00    +0.000 C 
ATOM      9  O   UNL     1      -2.819  10.745  18.259  0.00  0.00    +0.000 OA
ENDBRANCH   2   9
BRANCH   7  10
ATOM     10  C   UNL     1      -1.763  12.928  20.211  0.00  0.00    +0.000 C 
BRANCH  10  11
ATOM     11  N   UNL     1      -2.570  12.415  21.355  0.00  0.00    +0.000 NA
ATOM     12  C   UNL     1      -1.655  12.222  22.514  0.00  0.00    +0.000 C 
ATOM     13  C   UNL     1      -2.009  13.250  23.580  0.00  0.00    +0.000 C 
ATOM     14  C   UNL     1      -3.480  13.486  23.367  0.00  0.00    +0.000 C 
ATOM     15  C   UNL     1      -3.656  13.315  21.866  0.00  0.00    +0.000 C 
ATOM     16  C   UNL     1      -4.188  14.367  20.844  0.00  0.00    +0.000 C 
ATOM     17  O   UNL     1      -5.558  14.020  21.175  0.00  0.00    +0.000 OA
ATOM     18  C   UNL     1      -5.083  12.726  21.660  0.00  0.00    +0.000 C 
ENDBRANCH  10  11
ENDBRANCH   7  10
ENDBRANCH   1   4
BRANCH   1  19
ATOM     19  C   UNL     1       2.570   8.308  18.287  0.00  0.00    +0.000 C 
ATOM     20  C   UNL     1       2.326   7.053  19.160  0.00  0.00    +0.000 C 
ATOM     21  N   UNL     1       3.512   6.490  18.539  0.00  0.00    +0.000 N 
ATOM     22  C   UNL     1       4.116   5.263  18.722  0.00  0.00    +0.000 C 
ATOM     23  O   UNL     1       3.718   4.497  19.608  0.00  0.00    +0.000 OA
ATOM     24  C   UNL     1       3.505   7.424  17.430  0.00  0.00    +0.000 C 
BRANCH  22  25
ATOM     25  C   UNL     1       5.240   4.945  17.850  0.00  0.00    +0.000 A 
ATOM     26  N   UNL     1       6.463   4.623  18.232  0.00  0.00    +0.000 NA
ATOM     27  N   UNL     1       7.181   4.368  17.091  0.00  0.00    +0.000 NA
ATOM     28  C   UNL     1       6.362   4.551  16.076  0.00  0.00    +0.000 A 
ATOM     29  O   UNL     1       5.097   4.918  16.476  0.00  0.00    +0.000 OA
BRANCH  28  30
ATOM     30  C   UNL     1       6.617   4.431  14.651  0.00  0.00    +0.000 A 
ATOM     31  C   UNL     1       7.592   5.259  14.069  0.00  0.00    +0.000 A 
ATOM     32  C   UNL     1       7.854   5.206  12.699  0.00  0.00    +0.000 A 
ATOM     33  C   UNL     1       7.145   4.322  11.892  0.00  0.00    +0.000 A 
ATOM     34  C   UNL     1       6.180   3.487  12.454  0.00  0.00    +0.000 A 
ATOM     35  C   UNL     1       5.917   3.539  13.827  0.00  0.00    +0.000 A 
ENDBRANCH  28  30
ENDBRANCH  22  25
ENDBRANCH   1  19
TORSDOF 7
ENDMDL
MODEL 5
REMARK VINA RESULT:      -8.1      2.188      3.287
REMARK  Name = 
REMARK  8 active torsions:
REMARK  status: ('A' for Active; 'I' for Inactive)
REMARK    1  A    between atoms: C_1  and  O_2
REMARK    2  A    between atoms: O_2  and  C_3
REMARK    3  A    between atoms: C_5  and  O_6
REMARK    4  A    between atoms: O_6  and  C_7
REMARK    5  A    between atoms: C_10  and  C_12
REMARK    6  A    between atoms: C_15  and  C_16
REMARK    7  A    between atoms: C_26  and  C_27
REMARK    8  A    between atoms: C_27  and  N_28
REMARK                            x       y       z     vdW  Elec       q    Type
REMARK                         _______ _______ _______ _____ _____    ______ ____
ROOT
ATOM      1  O   UNL     1       1.232   8.163  19.323  0.00  0.00    +0.000 OA
ENDROOT
BRANCH   1   4
ATOM      2  C   UNL     1       0.286  11.399  20.790  0.00  0.00    +0.000 A 
ATOM      3  C   UNL     1       0.800  10.399  19.933  0.00  0.00    +0.000 A 
ATOM      4  C   UNL     1       0.715   9.042  20.249  0.00  0.00    +0.000 A 
ATOM      5  C   UNL     1       0.126   8.679  21.451  0.00  0.00    +0.000 A 
ATOM      6  C   UNL     1      -0.377   9.663  22.313  0.00  0.00    +0.000 A 
ATOM      7  C   UNL     1      -0.300  11.042  22.020  0.00  0.00    +0.000 A 
BRANCH   2   9
ATOM      8  C   UNL     1       1.861  13.047  20.049  0.00  0.00    +0.000 C 
ATOM      9  O   UNL     1       0.519  12.665  20.318  0.00  0.00    +0.000 OA
ENDBRANCH   2   9
BRANCH   7  10
ATOM     10  C   UNL     1      -0.937  12.036  22.997  0.00  0.00    +0.000 C 
BRANCH  10  11
ATOM     11  N   UNL     1      -2.182  12.693  22.506  0.00  0.00    +0.000 NA
ATOM     12  C   UNL     1      -3.303  12.280  23.395  0.00  0.00    +0.000 C 
ATOM     13  C   UNL     1      -3.758  13.498  24.188  0.00  0.00    +0.000 C 
ATOM     14  C   UNL     1      -3.448  14.651  23.273  0.00  0.00    +0.000 C 
ATOM     15  C   UNL     1      -2.202  14.193  22.531  0.00  0.00    +0.000 C 
ATOM     16  C   UNL     1      -0.801  14.880  22.507  0.00  0.00    +0.000 C 
ATOM     17  O   UNL     1      -1.246  15.789  21.466  0.00  0.00    +0.000 OA
ATOM     18  C   UNL     1      -2.285  14.825  21.110  0.00  0.00    +0.000 C 
ENDBRANCH  10  11
ENDBRANCH   7  10
ENDBRANCH   1   4
BRANCH   1  19
ATOM     19  C   UNL     1       2.373   7.348  19.691  0.00  0.00    +0.000 C 
ATOM     20  C   UNL     1       2.096   5.839  19.906  0.00  0.00    +0.000 C 
ATOM     21  N   UNL     1       3.297   5.591  19.128  0.00  0.00    +0.000 N 
ATOM     22  C   UNL     1       3.888   4.400  18.759  0.00  0.00    +0.000 C 
ATOM     23  O   UNL     1       3.459   3.326  19.200  0.00  0.00    +0.000 OA
ATOM     24  C   UNL     1       3.329   6.921  18.553  0.00  0.00    +0.000 C 
BRANCH  22  25
ATOM     25  C   UNL     1       5.036   4.483  17.865  0.00  0.00    +0.000 A 
ATOM     26  N   UNL     1       6.295   4.673  18.219  0.00  0.00    +0.000 NA
ATOM     27  N   UNL     1       7.040   4.645  17.067  0.00  0.00    +0.000 NA
ATOM     28  C   UNL     1       6.199   4.444  16.074  0.00  0.00    +0.000 A 
ATOM     29  O   UNL     1       4.895   4.324  16.500  0.00  0.00    +0.000 OA
BRANCH  28  30
ATOM     30  C   UNL     1       6.460   4.347  14.648  0.00  0.00    +0.000 A 
ATOM     31  C   UNL     1       7.527   5.084  14.108  0.00  0.00    +0.000 A 
ATOM     32  C   UNL     1       7.802   5.052  12.740  0.00  0.00    +0.000 A 
ATOM     33  C   UNL     1       7.014   4.278  11.893  0.00  0.00    +0.000 A 
ATOM     34  C   UNL     1       5.957   3.533  12.414  0.00  0.00    +0.000 A 
ATOM     35  C   UNL     1       5.682   3.565  13.785  0.00  0.00    +0.000 A 
ENDBRANCH  28  30
ENDBRANCH  22  25
ENDBRANCH   1  19
TORSDOF 7
ENDMDL
MODEL 6
REMARK VINA RESULT:      -8.1      2.243      3.054
REMARK  Name = 
REMARK  8 active torsions:
REMARK  status: ('A' for Active; 'I' for Inactive)
REMARK    1  A    between atoms: C_1  and  O_2
REMARK    2  A    between atoms: O_2  and  C_3
REMARK    3  A    between atoms: C_5  and  O_6
REMARK    4  A    between atoms: O_6  and  C_7
REMARK    5  A    between atoms: C_10  and  C_12
REMARK    6  A    between atoms: C_15  and  C_16
REMARK    7  A    between atoms: C_26  and  C_27
REMARK    8  A    between atoms: C_27  and  N_28
REMARK                            x       y       z     vdW  Elec       q    Type
REMARK                         _______ _______ _______ _____ _____    ______ ____
ROOT
ATOM      1  O   UNL     1       1.214   8.628  17.911  0.00  0.00    +0.000 OA
ENDROOT
BRANCH   1   4
ATOM      2  C   UNL     1      -1.259  11.319  18.320  0.00  0.00    +0.000 A 
ATOM      3  C   UNL     1      -0.618  10.112  17.958  0.00  0.00    +0.000 A 
ATOM      4  C   UNL     1       0.708   9.849  18.302  0.00  0.00    +0.000 A 
ATOM      5  C   UNL     1       1.414  10.817  19.002  0.00  0.00    +0.000 A 
ATOM      6  C   UNL     1       0.792  12.022  19.358  0.00  0.00    +0.000 A 
ATOM      7  C   UNL     1      -0.546  12.315  19.017  0.00  0.00    +0.000 A 
BRANCH   2   9
ATOM      8  C   UNL     1      -3.281  10.195  17.696  0.00  0.00    +0.000 C 
ATOM      9  O   UNL     1      -2.540  11.399  17.839  0.00  0.00    +0.000 OA
ENDBRANCH   2   9
BRANCH   7  10
ATOM     10  C   UNL     1      -1.156  13.632  19.507  0.00  0.00    +0.000 C 
BRANCH  10  11
ATOM     11  N   UNL     1      -0.799  14.012  20.904  0.00  0.00    +0.000 NA
ATOM     12  C   UNL     1      -0.586  15.486  20.942  0.00  0.00    +0.000 C 
ATOM     13  C   UNL     1      -1.709  16.110  21.758  0.00  0.00    +0.000 C 
ATOM     14  C   UNL     1      -2.079  15.028  22.736  0.00  0.00    +0.000 C 
ATOM     15  C   UNL     1      -1.834  13.745  21.956  0.00  0.00    +0.000 C 
ATOM     16  C   UNL     1      -2.869  12.631  21.607  0.00  0.00    +0.000 C 
ATOM     17  O   UNL     1      -2.685  12.026  22.914  0.00  0.00    +0.000 OA
ATOM     18  C   UNL     1      -1.381  12.682  23.001  0.00  0.00    +0.000 C 
ENDBRANCH  10  11
ENDBRANCH   7  10
ENDBRANCH   1   4
BRANCH   1  19
ATOM     19  C   UNL     1       2.457   8.165  18.494  0.00  0.00    +0.000 C 
ATOM     20  C   UNL     1       2.382   6.855  19.317  0.00  0.00    +0.000 C 
ATOM     21  N   UNL     1       3.589   6.444  18.621  0.00  0.00    +0.000 N 
ATOM     22  C   UNL     1       4.321   5.279  18.721  0.00  0.00    +0.000 C 
ATOM     23  O   UNL     1       4.043   4.439  19.586  0.00  0.00    +0.000 OA
ATOM     24  C   UNL     1       3.437   7.419  17.559  0.00  0.00    +0.000 C 
BRANCH  22  25
ATOM     25  C   UNL     1       5.431   5.116  17.790  0.00  0.00    +0.000 A 
ATOM     26  N   UNL     1       6.717   5.118  18.092  0.00  0.00    +0.000 NA
ATOM     27  N   UNL     1       7.400   4.895  16.924  0.00  0.00    +0.000 NA
ATOM     28  C   UNL     1       6.498   4.773  15.973  0.00  0.00    +0.000 A 
ATOM     29  O   UNL     1       5.211   4.896  16.444  0.00  0.00    +0.000 OA
BRANCH  28  30
ATOM     30  C   UNL     1       6.683   4.545  14.550  0.00  0.00    +0.000 A 
ATOM     31  C   UNL     1       7.655   5.295  13.868  0.00  0.00    +0.000 A 
ATOM     32  C   UNL     1       7.852   5.138  12.495  0.00  0.00    +0.000 A 
ATOM     33  C   UNL     1       7.079   4.224  11.785  0.00  0.00    +0.000 A 
ATOM     34  C   UNL     1       6.115   3.466  12.447  0.00  0.00    +0.000 A 
ATOM     35  C   UNL     1       5.918   3.622  13.823  0.00  0.00    +0.000 A 
ENDBRANCH  28  30
ENDBRANCH  22  25
ENDBRANCH   1  19
TORSDOF 7
ENDMDL
MODEL 7
REMARK VINA RESULT:      -8.1      1.524      1.950
REMARK  Name = 
REMARK  8 active torsions:
REMARK  status: ('A' for Active; 'I' for Inactive)
REMARK    1  A    between atoms: C_1  and  O_2
REMARK    2  A    between atoms: O_2  and  C_3
REMARK    3  A    between atoms: C_5  and  O_6
REMARK    4  A    between atoms: O_6  and  C_7
REMARK    5  A    between atoms: C_10  and  C_12
REMARK    6  A    between atoms: C_15  and  C_16
REMARK    7  A    between atoms: C_26  and  C_27
REMARK    8  A    between atoms: C_27  and  N_28
REMARK                            x       y       z     vdW  Elec       q    Type
REMARK                         _______ _______ _______ _____ _____    ______ ____
ROOT
ATOM      1  O   UNL     1       1.385   8.451  18.222  0.00  0.00    +0.000 OA
ENDROOT
BRANCH   1   4
ATOM      2  C   UNL     1      -0.457  11.526  19.043  0.00  0.00    +0.000 A 
ATOM      3  C   UNL     1      -0.109  10.174  18.821  0.00  0.00    +0.000 A 
ATOM      4  C   UNL     1       1.161   9.801  18.379  0.00  0.00    +0.000 A 
ATOM      5  C   UNL     1       2.093  10.798  18.133  0.00  0.00    +0.000 A 
ATOM      6  C   UNL     1       1.757  12.143  18.339  0.00  0.00    +0.000 A 
ATOM      7  C   UNL     1       0.478  12.547  18.781  0.00  0.00    +0.000 A 
BRANCH   2   9
ATOM      8  C   UNL     1      -2.757  11.748  18.411  0.00  0.00    +0.000 C 
ATOM      9  O   UNL     1      -1.765  11.677  19.424  0.00  0.00    +0.000 OA
ENDBRANCH   2   9
BRANCH   7  10
ATOM     10  C   UNL     1       0.228  14.037  19.038  0.00  0.00    +0.000 C 
BRANCH  10  11
ATOM     11  N   UNL     1       1.411  14.800  19.530  0.00  0.00    +0.000 NA
ATOM     12  C   UNL     1       1.761  15.820  18.503  0.00  0.00    +0.000 C 
ATOM     13  C   UNL     1       1.460  17.198  19.075  0.00  0.00    +0.000 C 
ATOM     14  C   UNL     1       1.657  17.016  20.556  0.00  0.00    +0.000 C 
ATOM     15  C   UNL     1       1.225  15.579  20.799  0.00  0.00    +0.000 C 
ATOM     16  C   UNL     1       0.081  15.073  21.732  0.00  0.00    +0.000 C 
ATOM     17  O   UNL     1       0.966  15.139  22.881  0.00  0.00    +0.000 OA
ATOM     18  C   UNL     1       2.106  15.052  21.970  0.00  0.00    +0.000 C 
ENDBRANCH  10  11
ENDBRANCH   7  10
ENDBRANCH   1   4
BRANCH   1  19
ATOM     19  C   UNL     1       2.589   7.870  18.781  0.00  0.00    +0.000 C 
ATOM     20  C   UNL     1       2.427   6.497  19.479  0.00  0.00    +0.000 C 
ATOM     21  N   UNL     1       3.626   6.086  18.770  0.00  0.00    +0.000 N 
ATOM     22  C   UNL     1       4.293   4.879  18.776  0.00  0.00    +0.000 C 
ATOM     23  O   UNL     1       3.953   3.980  19.555  0.00  0.00    +0.000 OA
ATOM     24  C   UNL     1       3.549   7.159  17.798  0.00  0.00    +0.000 C 
BRANCH  22  25
ATOM     25  C   UNL     1       5.413   4.740  17.852  0.00  0.00    +0.000 A 
ATOM     26  N   UNL     1       6.684   4.584  18.177  0.00  0.00    +0.000 NA
ATOM     27  N   UNL     1       7.382   4.457  17.003  0.00  0.00    +0.000 NA
ATOM     28  C   UNL     1       6.503   4.546  16.026  0.00  0.00    +0.000 A 
ATOM     29  O   UNL     1       5.217   4.723  16.485  0.00  0.00    +0.000 OA
BRANCH  28  30
ATOM     30  C   UNL     1       6.711   4.494  14.590  0.00  0.00    +0.000 A 
ATOM     31  C   UNL     1       5.942   3.597  13.830  0.00  0.00    +0.000 A 
ATOM     32  C   UNL     1       6.123   3.484  12.450  0.00  0.00    +0.000 A 
ATOM     33  C   UNL     1       7.077   4.271  11.811  0.00  0.00    +0.000 A 
ATOM     34  C   UNL     1       7.843   5.172  12.549  0.00  0.00    +0.000 A 
ATOM     35  C   UNL     1       7.661   5.286  13.931  0.00  0.00    +0.000 A 
ENDBRANCH  28  30
ENDBRANCH  22  25
ENDBRANCH   1  19
TORSDOF 7
ENDMDL
MODEL 8
REMARK VINA RESULT:      -8.1      5.532     10.676
REMARK  Name = 
REMARK  8 active torsions:
REMARK  status: ('A' for Active; 'I' for Inactive)
REMARK    1  A    between atoms: C_1  and  O_2
REMARK    2  A    between atoms: O_2  and  C_3
REMARK    3  A    between atoms: C_5  and  O_6
REMARK    4  A    between atoms: O_6  and  C_7
REMARK    5  A    between atoms: C_10  and  C_12
REMARK    6  A    between atoms: C_15  and  C_16
REMARK    7  A    between atoms: C_26  and  C_27
REMARK    8  A    between atoms: C_27  and  N_28
REMARK                            x       y       z     vdW  Elec       q    Type
REMARK                         _______ _______ _______ _____ _____    ______ ____
ROOT
ATOM      1  O   UNL     1       7.912   7.710  17.061  0.00  0.00    +0.000 OA
ENDROOT
BRANCH   1   4
ATOM      2  C   UNL     1       5.904   4.712  16.354  0.00  0.00    +0.000 A 
ATOM      3  C   UNL     1       6.939   5.676  16.375  0.00  0.00    +0.000 A 
ATOM      4  C   UNL     1       6.828   6.862  17.101  0.00  0.00    +0.000 A 
ATOM      5  C   UNL     1       5.655   7.100  17.802  0.00  0.00    +0.000 A 
ATOM      6  C   UNL     1       4.618   6.157  17.780  0.00  0.00    +0.000 A 
ATOM      7  C   UNL     1       4.703   4.952  17.049  0.00  0.00    +0.000 A 
BRANCH   2   9
ATOM      8  C   UNL     1       6.121   3.838  14.133  0.00  0.00    +0.000 C 
ATOM      9  O   UNL     1       6.194   3.648  15.539  0.00  0.00    +0.000 OA
ENDBRANCH   2   9
BRANCH   7  10
ATOM     10  C   UNL     1       3.542   3.956  17.140  0.00  0.00    +0.000 C 
BRANCH  10  11
ATOM     11  N   UNL     1       2.835   3.929  18.453  0.00  0.00    +0.000 NA
ATOM     12  C   UNL     1       1.370   3.924  18.187  0.00  0.00    +0.000 C 
ATOM     13  C   UNL     1       0.812   2.570  18.604  0.00  0.00    +0.000 C 
ATOM     14  C   UNL     1       1.729   2.137  19.716  0.00  0.00    +0.000 C 
ATOM     15  C   UNL     1       3.074   2.726  19.318  0.00  0.00    +0.000 C 
ATOM     16  C   UNL     1       4.406   1.961  19.044  0.00  0.00    +0.000 C 
ATOM     17  O   UNL     1       4.696   1.922  20.466  0.00  0.00    +0.000 OA
ATOM     18  C   UNL     1       3.809   3.069  20.648  0.00  0.00    +0.000 C 
ENDBRANCH  10  11
ENDBRANCH   7  10
ENDBRANCH   1   4
BRANCH   1  19
ATOM     19  C   UNL     1       7.883   8.925  17.852  0.00  0.00    +0.000 C 
ATOM     20  C   UNL     1       8.769   8.937  19.122  0.00  0.00    +0.000 C 
ATOM     21  N   UNL     1       9.186  10.268  18.719  0.00  0.00    +0.000 N 
ATOM     22  C   UNL     1      10.070  11.143  19.317  0.00  0.00    +0.000 C 
ATOM     23  O   UNL     1      10.552  10.883  20.427  0.00  0.00    +0.000 OA
ATOM     24  C   UNL     1       8.737  10.112  17.350  0.00  0.00    +0.000 C 
BRANCH  22  25
ATOM     25  C   UNL     1      10.371  12.372  18.595  0.00  0.00    +0.000 A 
ATOM     26  N   UNL     1      11.185  12.497  17.562  0.00  0.00    +0.000 NA
ATOM     27  N   UNL     1      11.138  13.813  17.175  0.00  0.00    +0.000 NA
ATOM     28  C   UNL     1      10.303  14.420  17.993  0.00  0.00    +0.000 A 
ATOM     29  O   UNL     1       9.763  13.568  18.929  0.00  0.00    +0.000 OA
BRANCH  28  30
ATOM     30  C   UNL     1       9.906  15.817  18.036  0.00  0.00    +0.000 A 
ATOM     31  C   UNL     1      10.683  16.760  17.342  0.00  0.00    +0.000 A 
ATOM     32  C   UNL     1      10.364  18.118  17.376  0.00  0.00    +0.000 A 
ATOM     33  C   UNL     1       9.260  18.552  18.103  0.00  0.00    +0.000 A 
ATOM     34  C   UNL     1       8.473  17.629  18.790  0.00  0.00    +0.000 A 
ATOM     35  C   UNL     1       8.792  16.267  18.756  0.00  0.00    +0.000 A 
ENDBRANCH  28  30
ENDBRANCH  22  25
ENDBRANCH   1  19
TORSDOF 7
ENDMDL
MODEL 9
REMARK VINA RESULT:      -8.0      1.937      3.071
REMARK  Name = 
REMARK  8 active torsions:
REMARK  status: ('A' for Active; 'I' for Inactive)
REMARK    1  A    between atoms: C_1  and  O_2
REMARK    2  A    between atoms: O_2  and  C_3
REMARK    3  A    between atoms: C_5  and  O_6
REMARK    4  A    between atoms: O_6  and  C_7
REMARK    5  A    between atoms: C_10  and  C_12
REMARK    6  A    between atoms: C_15  and  C_16
REMARK    7  A    between atoms: C_26  and  C_27
REMARK    8  A    between atoms: C_27  and  N_28
REMARK                            x       y       z     vdW  Elec       q    Type
REMARK                         _______ _______ _______ _____ _____    ______ ____
ROOT
ATOM      1  O   UNL     1       2.603   6.494  19.186  0.00  0.00    +0.000 OA
ENDROOT
BRANCH   1   4
ATOM      2  C   UNL     1       1.056   9.826  19.350  0.00  0.00    +0.000 A 
ATOM      3  C   UNL     1       1.763   8.681  18.917  0.00  0.00    +0.000 A 
ATOM      4  C   UNL     1       1.913   7.555  19.729  0.00  0.00    +0.000 A 
ATOM      5  C   UNL     1       1.365   7.582  21.003  0.00  0.00    +0.000 A 
ATOM      6  C   UNL     1       0.671   8.716  21.447  0.00  0.00    +0.000 A 
ATOM      7  C   UNL     1       0.510   9.869  20.648  0.00  0.00    +0.000 A 
BRANCH   2   9
ATOM      8  C   UNL     1       2.332  11.324  17.983  0.00  0.00    +0.000 C 
ATOM      9  O   UNL     1       1.073  10.835  18.423  0.00  0.00    +0.000 OA
ENDBRANCH   2   9
BRANCH   7  10
ATOM     10  C   UNL     1      -0.320  11.033  21.200  0.00  0.00    +0.000 C 
BRANCH  10  11
ATOM     11  N   UNL     1      -0.716  12.059  20.192  0.00  0.00    +0.000 NA
ATOM     12  C   UNL     1      -2.193  11.985  20.015  0.00  0.00    +0.000 C 
ATOM     13  C   UNL     1      -2.807  13.257  20.582  0.00  0.00    +0.000 C 
ATOM     14  C   UNL     1      -1.726  14.287  20.389  0.00  0.00    +0.000 C 
ATOM     15  C   UNL     1      -0.441  13.490  20.551  0.00  0.00    +0.000 C 
ATOM     16  C   UNL     1       0.691  13.710  21.601  0.00  0.00    +0.000 C 
ATOM     17  O   UNL     1       1.283  14.744  20.772  0.00  0.00    +0.000 OA
ATOM     18  C   UNL     1       0.607  14.161  19.614  0.00  0.00    +0.000 C 
ENDBRANCH  10  11
ENDBRANCH   7  10
ENDBRANCH   1   4
BRANCH   1  19
ATOM     19  C   UNL     1       3.958   6.706  18.716  0.00  0.00    +0.000 C 
ATOM     20  C   UNL     1       5.041   5.766  19.303  0.00  0.00    +0.000 C 
ATOM     21  N   UNL     1       5.541   5.629  17.946  0.00  0.00    +0.000 N 
ATOM     22  C   UNL     1       6.601   4.892  17.459  0.00  0.00    +0.000 C 
ATOM     23  O   UNL     1       7.366   4.308  18.236  0.00  0.00    +0.000 OA
ATOM     24  C   UNL     1       4.323   6.119  17.333  0.00  0.00    +0.000 C 
BRANCH  22  25
ATOM     25  C   UNL     1       6.777   4.869  16.012  0.00  0.00    +0.000 A 
ATOM     26  N   UNL     1       7.603   5.624  15.309  0.00  0.00    +0.000 NA
ATOM     27  N   UNL     1       7.471   5.244  13.997  0.00  0.00    +0.000 NA
ATOM     28  C   UNL     1       6.571   4.283  13.969  0.00  0.00    +0.000 A 
ATOM     29  O   UNL     1       6.080   3.978  15.218  0.00  0.00    +0.000 OA
BRANCH  28  30
ATOM     30  C   UNL     1       6.047   3.543  12.834  0.00  0.00    +0.000 A 
ATOM     31  C   UNL     1       4.730   3.797  12.414  0.00  0.00    +0.000 A 
ATOM     32  C   UNL     1       4.167   3.093  11.349  0.00  0.00    +0.000 A 
ATOM     33  C   UNL     1       4.915   2.124  10.686  0.00  0.00    +0.000 A 
ATOM     34  C   UNL     1       6.225   1.865  11.085  0.00  0.00    +0.000 A 
ATOM     35  C   UNL     1       6.791   2.571  12.151  0.00  0.00    +0.000 A 
ENDBRANCH  28  30
ENDBRANCH  22  25
ENDBRANCH   1  19
TORSDOF 7
ENDMDL
