MODEL 1
REMARK VINA RESULT:      -7.9      0.000      0.000
REMARK  Name = 
REMARK  9 active torsions:
REMARK  status: ('A' for Active; 'I' for Inactive)
REMARK    1  A    between atoms: C_1  and  O_2
REMARK    2  A    between atoms: O_2  and  C_3
REMARK    3  A    between atoms: C_5  and  C_6
REMARK    4  A    between atoms: N_7  and  N_8
REMARK    5  A    between atoms: C_9  and  C_11
REMARK    6  A    between atoms: C_11  and  N_12
REMARK    7  A    between atoms: N_19  and  C_20
REMARK    8  A    between atoms: N_23  and  C_24
REMARK    9  A    between atoms: C_27  and  O_28
REMARK                            x       y       z     vdW  Elec       q    Type
REMARK                         _______ _______ _______ _____ _____    ______ ____
ROOT
ATOM      1  N   UNL     1       2.441   5.845  20.519  0.00  0.00    +0.000 N 
ATOM      2  C   UNL     1       2.014   4.525  20.417  0.00  0.00    +0.000 C 
ATOM      3  O   UNL     1       0.881   4.123  20.687  0.00  0.00    +0.000 OA
ATOM      4  H   UNL     1       3.351   6.142  20.167  0.00  0.00    +0.000 HD
ENDROOT
BRANCH   1   6
ATOM      5  C   UNL     1       1.667   7.984  20.577  0.00  0.00    +0.000 C 
ATOM      6  N   UNL     1       1.553   6.764  20.990  0.00  0.00    +0.000 NA
BRANCH   5   9
ATOM      7  C   UNL     1      -0.706  10.947  20.576  0.00  0.00    +0.000 A 
ATOM      8  C   UNL     1       0.179   9.946  20.148  0.00  0.00    +0.000 A 
ATOM      9  C   UNL     1       0.724   9.023  21.048  0.00  0.00    +0.000 A 
ATOM     10  C   UNL     1       0.381   9.089  22.398  0.00  0.00    +0.000 A 
ATOM     11  C   UNL     1      -0.499  10.082  22.840  0.00  0.00    +0.000 A 
ATOM     12  C   UNL     1      -1.036  11.008  21.935  0.00  0.00    +0.000 A 
BRANCH   7  14
ATOM     13  C   UNL     1      -1.699  11.148  18.405  0.00  0.00    +0.000 C 
ATOM     14  O   UNL     1      -1.132  11.752  19.557  0.00  0.00    +0.000 OA
ENDBRANCH   7  14
BRANCH  12  15
ATOM     15  O   UNL     1      -1.885  11.966  22.418  0.00  0.00    +0.000 OA
ATOM     16  H   UNL     1      -2.325  11.638  23.219  0.00  0.00    +0.000 HD
ENDBRANCH  12  15
ENDBRANCH   5   9
ENDBRANCH   1   6
BRANCH   2  17
ATOM     17  C   UNL     1       3.070   3.562  19.947  0.00  0.00    +0.000 C 
BRANCH  17  18
ATOM     18  N   UNL     1       3.416   3.769  18.556  0.00  0.00    +0.000 N 
ATOM     19  C   UNL     1       2.780   3.211  17.476  0.00  0.00    +0.000 A 
ATOM     20  N   UNL     1       3.428   3.453  16.353  0.00  0.00    +0.000 NA
ATOM     21  C   UNL     1       4.506   4.190  16.733  0.00  0.00    +0.000 A 
ATOM     22  C   UNL     1       4.509   4.429  18.074  0.00  0.00    +0.000 A 
ATOM     23  C   UNL     1       5.508   5.201  18.722  0.00  0.00    +0.000 A 
ATOM     24  O   UNL     1       5.402   5.561  19.893  0.00  0.00    +0.000 OA
ATOM     25  N   UNL     1       6.580   5.504  17.882  0.00  0.00    +0.000 N 
ATOM     26  C   UNL     1       7.736   6.159  18.458  0.00  0.00    +0.000 C 
ATOM     27  C   UNL     1       6.599   5.314  16.482  0.00  0.00    +0.000 A 
ATOM     28  O   UNL     1       7.547   5.719  15.803  0.00  0.00    +0.000 OA
ATOM     29  N   UNL     1       5.505   4.661  15.914  0.00  0.00    +0.000 N 
ATOM     30  C   UNL     1       5.433   4.451  14.478  0.00  0.00    +0.000 C 
ENDBRANCH  17  18
ENDBRANCH   2  17
TORSDOF 6
ENDMDL
MODEL 2
REMARK VINA RESULT:      -7.7      4.429      8.145
REMARK  Name = 
REMARK  9 active torsions:
REMARK  status: ('A' for Active; 'I' for Inactive)
REMARK    1  A    between atoms: C_1  and  O_2
REMARK    2  A    between atoms: O_2  and  C_3
REMARK    3  A    between atoms: C_5  and  C_6
REMARK    4  A    between atoms: N_7  and  N_8
REMARK    5  A    between atoms: C_9  and  C_11
REMARK    6  A    between atoms: C_11  and  N_12
REMARK    7  A    between atoms: N_19  and  C_20
REMARK    8  A    between atoms: N_23  and  C_24
REMARK    9  A    between atoms: C_27  and  O_28
REMARK                            x       y       z     vdW  Elec       q    Type
REMARK                         _______ _______ _______ _____ _____    ______ ____
ROOT
ATOM      1  N   UNL     1       7.172   7.948  17.022  0.00  0.00    +0.000 N 
ATOM      2  C   UNL     1       6.750   6.739  17.566  0.00  0.00    +0.000 C 
ATOM      3  O   UNL     1       7.221   6.212  18.574  0.00  0.00    +0.000 OA
ATOM      4  H   UNL     1       6.667   8.398  16.259  0.00  0.00    +0.000 HD
ENDROOT
BRANCH   1   6
ATOM      5  C   UNL     1       8.131   9.865  17.785  0.00  0.00    +0.000 C 
ATOM      6  N   UNL     1       8.213   8.585  17.626  0.00  0.00    +0.000 NA
BRANCH   5   9
ATOM      7  C   UNL     1      11.231  11.999  18.282  0.00  0.00    +0.000 A 
ATOM      8  C   UNL     1      10.176  11.300  17.678  0.00  0.00    +0.000 A 
ATOM      9  C   UNL     1       9.229  10.609  18.443  0.00  0.00    +0.000 A 
ATOM     10  C   UNL     1       9.325  10.617  19.835  0.00  0.00    +0.000 A 
ATOM     11  C   UNL     1      10.373  11.310  20.450  0.00  0.00    +0.000 A 
ATOM     12  C   UNL     1      11.322  11.994  19.679  0.00  0.00    +0.000 A 
BRANCH   7  14
ATOM     13  C   UNL     1      11.834  13.978  17.071  0.00  0.00    +0.000 C 
ATOM     14  O   UNL     1      12.053  12.609  17.375  0.00  0.00    +0.000 OA
ENDBRANCH   7  14
BRANCH  12  15
ATOM     15  O   UNL     1      12.333  12.648  20.328  0.00  0.00    +0.000 OA
ATOM     16  H   UNL     1      12.030  12.928  21.206  0.00  0.00    +0.000 HD
ENDBRANCH  12  15
ENDBRANCH   5   9
ENDBRANCH   1   6
BRANCH   2  17
ATOM     17  C   UNL     1       5.636   6.069  16.807  0.00  0.00    +0.000 C 
BRANCH  17  18
ATOM     18  N   UNL     1       4.427   5.962  17.597  0.00  0.00    +0.000 N 
ATOM     19  C   UNL     1       3.736   7.007  18.156  0.00  0.00    +0.000 A 
ATOM     20  N   UNL     1       2.776   6.582  18.955  0.00  0.00    +0.000 NA
ATOM     21  C   UNL     1       2.861   5.225  18.898  0.00  0.00    +0.000 A 
ATOM     22  C   UNL     1       3.842   4.814  18.048  0.00  0.00    +0.000 A 
ATOM     23  C   UNL     1       4.118   3.448  17.783  0.00  0.00    +0.000 A 
ATOM     24  O   UNL     1       4.876   3.094  16.883  0.00  0.00    +0.000 OA
ATOM     25  N   UNL     1       3.426   2.587  18.637  0.00  0.00    +0.000 N 
ATOM     26  C   UNL     1       3.729   1.173  18.574  0.00  0.00    +0.000 C 
ATOM     27  C   UNL     1       2.373   2.966  19.499  0.00  0.00    +0.000 A 
ATOM     28  O   UNL     1       1.739   2.116  20.133  0.00  0.00    +0.000 OA
ATOM     29  N   UNL     1       2.084   4.328  19.592  0.00  0.00    +0.000 N 
ATOM     30  C   UNL     1       0.998   4.798  20.434  0.00  0.00    +0.000 C 
ENDBRANCH  17  18
ENDBRANCH   2  17
TORSDOF 6
ENDMDL
MODEL 3
REMARK VINA RESULT:      -7.4      3.391      9.477
REMARK  Name = 
REMARK  9 active torsions:
REMARK  status: ('A' for Active; 'I' for Inactive)
REMARK    1  A    between atoms: C_1  and  O_2
REMARK    2  A    between atoms: O_2  and  C_3
REMARK    3  A    between atoms: C_5  and  C_6
REMARK    4  A    between atoms: N_7  and  N_8
REMARK    5  A    between atoms: C_9  and  C_11
REMARK    6  A    between atoms: C_11  and  N_12
REMARK    7  A    between atoms: N_19  and  C_20
REMARK    8  A    between atoms: N_23  and  C_24
REMARK    9  A    between atoms: C_27  and  O_28
REMARK                            x       y       z     vdW  Elec       q    Type
REMARK                         _______ _______ _______ _____ _____    ______ ____
ROOT
ATOM      1  N   UNL     1       1.488   8.754  19.575  0.00  0.00    +0.000 N 
ATOM      2  C   UNL     1       1.467   9.664  18.523  0.00  0.00    +0.000 C 
ATOM      3  O   UNL     1       2.052   9.520  17.449  0.00  0.00    +0.000 OA
ATOM      4  H   UNL     1       0.887   8.867  20.392  0.00  0.00    +0.000 HD
ENDROOT
BRANCH   1   6
ATOM      5  C   UNL     1       1.957   6.607  20.161  0.00  0.00    +0.000 C 
ATOM      6  N   UNL     1       2.243   7.631  19.427  0.00  0.00    +0.000 NA
BRANCH   5   9
ATOM      7  C   UNL     1       4.769   4.197  19.329  0.00  0.00    +0.000 A 
ATOM      8  C   UNL     1       4.018   5.373  19.468  0.00  0.00    +0.000 A 
ATOM      9  C   UNL     1       2.739   5.356  20.037  0.00  0.00    +0.000 A 
ATOM     10  C   UNL     1       2.196   4.151  20.483  0.00  0.00    +0.000 A 
ATOM     11  C   UNL     1       2.934   2.970  20.349  0.00  0.00    +0.000 A 
ATOM     12  C   UNL     1       4.211   2.992  19.772  0.00  0.00    +0.000 A 
BRANCH   7  14
ATOM     13  C   UNL     1       6.068   4.498  17.337  0.00  0.00    +0.000 C 
ATOM     14  O   UNL     1       5.990   4.411  18.752  0.00  0.00    +0.000 OA
ENDBRANCH   7  14
BRANCH  12  15
ATOM     15  O   UNL     1       4.889   1.809  19.656  0.00  0.00    +0.000 OA
ATOM     16  H   UNL     1       4.586   1.191  20.340  0.00  0.00    +0.000 HD
ENDBRANCH  12  15
ENDBRANCH   5   9
ENDBRANCH   1   6
BRANCH   2  17
ATOM     17  C   UNL     1       0.658  10.906  18.787  0.00  0.00    +0.000 C 
BRANCH  17  18
ATOM     18  N   UNL     1      -0.742  10.721  18.470  0.00  0.00    +0.000 N 
ATOM     19  C   UNL     1      -1.242   9.975  17.433  0.00  0.00    +0.000 A 
ATOM     20  N   UNL     1      -2.544  10.135  17.301  0.00  0.00    +0.000 NA
ATOM     21  C   UNL     1      -2.882  11.009  18.289  0.00  0.00    +0.000 A 
ATOM     22  C   UNL     1      -1.803  11.360  19.043  0.00  0.00    +0.000 A 
ATOM     23  C   UNL     1      -1.888  12.235  20.158  0.00  0.00    +0.000 A 
ATOM     24  O   UNL     1      -0.951  12.399  20.936  0.00  0.00    +0.000 OA
ATOM     25  N   UNL     1      -3.137  12.850  20.262  0.00  0.00    +0.000 N 
ATOM     26  C   UNL     1      -3.311  13.878  21.266  0.00  0.00    +0.000 C 
ATOM     27  C   UNL     1      -4.290  12.485  19.531  0.00  0.00    +0.000 A 
ATOM     28  O   UNL     1      -5.382  13.007  19.772  0.00  0.00    +0.000 OA
ATOM     29  N   UNL     1      -4.135  11.513  18.541  0.00  0.00    +0.000 N 
ATOM     30  C   UNL     1      -5.276  11.061  17.764  0.00  0.00    +0.000 C 
ENDBRANCH  17  18
ENDBRANCH   2  17
TORSDOF 6
ENDMDL
MODEL 4
REMARK VINA RESULT:      -7.4      0.871      1.712
REMARK  Name = 
REMARK  9 active torsions:
REMARK  status: ('A' for Active; 'I' for Inactive)
REMARK    1  A    between atoms: C_1  and  O_2
REMARK    2  A    between atoms: O_2  and  C_3
REMARK    3  A    between atoms: C_5  and  C_6
REMARK    4  A    between atoms: N_7  and  N_8
REMARK    5  A    between atoms: C_9  and  C_11
REMARK    6  A    between atoms: C_11  and  N_12
REMARK    7  A    between atoms: N_19  and  C_20
REMARK    8  A    between atoms: N_23  and  C_24
REMARK    9  A    between atoms: C_27  and  O_28
REMARK                            x       y       z     vdW  Elec       q    Type
REMARK                         _______ _______ _______ _____ _____    ______ ____
ROOT
ATOM      1  N   UNL     1       2.485   6.195  20.358  0.00  0.00    +0.000 N 
ATOM      2  C   UNL     1       1.925   4.922  20.324  0.00  0.00    +0.000 C 
ATOM      3  O   UNL     1       0.729   4.668  20.474  0.00  0.00    +0.000 OA
ATOM      4  H   UNL     1       3.460   6.358  20.106  0.00  0.00    +0.000 HD
ENDROOT
BRANCH   1   6
ATOM      5  C   UNL     1       1.684   8.252  19.806  0.00  0.00    +0.000 C 
ATOM      6  N   UNL     1       1.657   7.245  20.615  0.00  0.00    +0.000 NA
BRANCH   5   9
ATOM      7  C   UNL     1      -0.322  10.951  21.566  0.00  0.00    +0.000 A 
ATOM      8  C   UNL     1       0.524   9.857  21.331  0.00  0.00    +0.000 A 
ATOM      9  C   UNL     1       0.799   9.417  20.031  0.00  0.00    +0.000 A 
ATOM     10  C   UNL     1       0.230  10.077  18.942  0.00  0.00    +0.000 A 
ATOM     11  C   UNL     1      -0.616  11.168  19.162  0.00  0.00    +0.000 A 
ATOM     12  C   UNL     1      -0.894  11.600  20.466  0.00  0.00    +0.000 A 
BRANCH   7  14
ATOM     13  C   UNL     1      -1.780  11.435  23.406  0.00  0.00    +0.000 C 
ATOM     14  O   UNL     1      -0.471  11.232  22.896  0.00  0.00    +0.000 OA
ENDBRANCH   7  14
BRANCH  12  15
ATOM     15  O   UNL     1      -1.736  12.667  20.628  0.00  0.00    +0.000 OA
ATOM     16  H   UNL     1      -1.747  13.200  19.818  0.00  0.00    +0.000 HD
ENDBRANCH  12  15
ENDBRANCH   5   9
ENDBRANCH   1   6
BRANCH   2  17
ATOM     17  C   UNL     1       2.914   3.811  20.093  0.00  0.00    +0.000 C 
BRANCH  17  18
ATOM     18  N   UNL     1       3.356   3.752  18.716  0.00  0.00    +0.000 N 
ATOM     19  C   UNL     1       2.696   3.134  17.685  0.00  0.00    +0.000 A 
ATOM     20  N   UNL     1       3.427   3.105  16.587  0.00  0.00    +0.000 NA
ATOM     21  C   UNL     1       4.586   3.727  16.933  0.00  0.00    +0.000 A 
ATOM     22  C   UNL     1       4.560   4.165  18.223  0.00  0.00    +0.000 A 
ATOM     23  C   UNL     1       5.632   4.874  18.824  0.00  0.00    +0.000 A 
ATOM     24  O   UNL     1       5.526   5.420  19.920  0.00  0.00    +0.000 OA
ATOM     25  N   UNL     1       6.778   4.886  18.028  0.00  0.00    +0.000 N 
ATOM     26  C   UNL     1       7.992   5.448  18.584  0.00  0.00    +0.000 C 
ATOM     27  C   UNL     1       6.837   4.485  16.674  0.00  0.00    +0.000 A 
ATOM     28  O   UNL     1       7.868   4.640  16.013  0.00  0.00    +0.000 OA
ATOM     29  N   UNL     1       5.684   3.918  16.128  0.00  0.00    +0.000 N 
ATOM     30  C   UNL     1       5.651   3.504  14.736  0.00  0.00    +0.000 C 
ENDBRANCH  17  18
ENDBRANCH   2  17
TORSDOF 6
ENDMDL
MODEL 5
REMARK VINA RESULT:      -7.3      3.576      9.676
REMARK  Name = 
REMARK  9 active torsions:
REMARK  status: ('A' for Active; 'I' for Inactive)
REMARK    1  A    between atoms: C_1  and  O_2
REMARK    2  A    between atoms: O_2  and  C_3
REMARK    3  A    between atoms: C_5  and  C_6
REMARK    4  A    between atoms: N_7  and  N_8
REMARK    5  A    between atoms: C_9  and  C_11
REMARK    6  A    between atoms: C_11  and  N_12
REMARK    7  A    between atoms: N_19  and  C_20
REMARK    8  A    between atoms: N_23  and  C_24
REMARK    9  A    between atoms: C_27  and  O_28
REMARK                            x       y       z     vdW  Elec       q    Type
REMARK                         _______ _______ _______ _____ _____    ______ ____
ROOT
ATOM      1  N   UNL     1       1.723   9.068  18.550  0.00  0.00    +0.000 N 
ATOM      2  C   UNL     1       0.773   9.703  19.342  0.00  0.00    +0.000 C 
ATOM      3  O   UNL     1       0.372   9.296  20.434  0.00  0.00    +0.000 OA
ATOM      4  H   UNL     1       2.107   9.511  17.715  0.00  0.00    +0.000 HD
ENDROOT
BRANCH   1   6
ATOM      5  C   UNL     1       2.832   7.124  18.137  0.00  0.00    +0.000 C 
ATOM      6  N   UNL     1       2.227   7.882  18.991  0.00  0.00    +0.000 NA
BRANCH   5   9
ATOM      7  C   UNL     1       3.138   3.646  19.627  0.00  0.00    +0.000 A 
ATOM      8  C   UNL     1       2.609   4.874  19.204  0.00  0.00    +0.000 A 
ATOM      9  C   UNL     1       3.408   5.829  18.564  0.00  0.00    +0.000 A 
ATOM     10  C   UNL     1       4.756   5.559  18.332  0.00  0.00    +0.000 A 
ATOM     11  C   UNL     1       5.298   4.339  18.750  0.00  0.00    +0.000 A 
ATOM     12  C   UNL     1       4.495   3.390  19.397  0.00  0.00    +0.000 A 
BRANCH   7  14
ATOM     13  C   UNL     1       1.914   3.063  21.604  0.00  0.00    +0.000 C 
ATOM     14  O   UNL     1       2.208   2.846  20.232  0.00  0.00    +0.000 OA
ENDBRANCH   7  14
BRANCH  12  15
ATOM     15  O   UNL     1       5.074   2.216  19.795  0.00  0.00    +0.000 OA
ATOM     16  H   UNL     1       4.638   1.471  19.352  0.00  0.00    +0.000 HD
ENDBRANCH  12  15
ENDBRANCH   5   9
ENDBRANCH   1   6
BRANCH   2  17
ATOM     17  C   UNL     1       0.222  10.976  18.757  0.00  0.00    +0.000 C 
BRANCH  17  18
ATOM     18  N   UNL     1      -1.183  10.859  18.424  0.00  0.00    +0.000 N 
ATOM     19  C   UNL     1      -1.701  10.195  17.341  0.00  0.00    +0.000 A 
ATOM     20  N   UNL     1      -2.997  10.408  17.215  0.00  0.00    +0.000 NA
ATOM     21  C   UNL     1      -3.310  11.231  18.252  0.00  0.00    +0.000 A 
ATOM     22  C   UNL     1      -2.225  11.498  19.031  0.00  0.00    +0.000 A 
ATOM     23  C   UNL     1      -2.286  12.306  20.197  0.00  0.00    +0.000 A 
ATOM     24  O   UNL     1      -1.349  12.390  20.987  0.00  0.00    +0.000 OA
ATOM     25  N   UNL     1      -3.513  12.956  20.333  0.00  0.00    +0.000 N 
ATOM     26  C   UNL     1      -3.658  13.927  21.398  0.00  0.00    +0.000 C 
ATOM     27  C   UNL     1      -4.674  12.676  19.577  0.00  0.00    +0.000 A 
ATOM     28  O   UNL     1      -5.750  13.220  19.846  0.00  0.00    +0.000 OA
ATOM     29  N   UNL     1      -4.547  11.762  18.530  0.00  0.00    +0.000 N 
ATOM     30  C   UNL     1      -5.698  11.397  17.723  0.00  0.00    +0.000 C 
ENDBRANCH  17  18
ENDBRANCH   2  17
TORSDOF 6
ENDMDL
MODEL 6
REMARK VINA RESULT:      -7.3      4.572      7.132
REMARK  Name = 
REMARK  9 active torsions:
REMARK  status: ('A' for Active; 'I' for Inactive)
REMARK    1  A    between atoms: C_1  and  O_2
REMARK    2  A    between atoms: O_2  and  C_3
REMARK    3  A    between atoms: C_5  and  C_6
REMARK    4  A    between atoms: N_7  and  N_8
REMARK    5  A    between atoms: C_9  and  C_11
REMARK    6  A    between atoms: C_11  and  N_12
REMARK    7  A    between atoms: N_19  and  C_20
REMARK    8  A    between atoms: N_23  and  C_24
REMARK    9  A    between atoms: C_27  and  O_28
REMARK                            x       y       z     vdW  Elec       q    Type
REMARK                         _______ _______ _______ _____ _____    ______ ____
ROOT
ATOM      1  N   UNL     1       7.866   6.667  18.068  0.00  0.00    +0.000 N 
ATOM      2  C   UNL     1       7.505   5.625  18.915  0.00  0.00    +0.000 C 
ATOM      3  O   UNL     1       7.556   5.660  20.145  0.00  0.00    +0.000 OA
ATOM      4  H   UNL     1       7.688   6.628  17.064  0.00  0.00    +0.000 HD
ENDROOT
BRANCH   1   6
ATOM      5  C   UNL     1       8.260   8.905  17.961  0.00  0.00    +0.000 C 
ATOM      6  N   UNL     1       8.350   7.806  18.635  0.00  0.00    +0.000 NA
BRANCH   5   9
ATOM      7  C   UNL     1       9.016  12.601  18.388  0.00  0.00    +0.000 A 
ATOM      8  C   UNL     1       8.538  11.388  17.870  0.00  0.00    +0.000 A 
ATOM      9  C   UNL     1       8.762  10.176  18.532  0.00  0.00    +0.000 A 
ATOM     10  C   UNL     1       9.470  10.165  19.734  0.00  0.00    +0.000 A 
ATOM     11  C   UNL     1       9.954  11.366  20.262  0.00  0.00    +0.000 A 
ATOM     12  C   UNL     1       9.732  12.577  19.590  0.00  0.00    +0.000 A 
BRANCH   7  14
ATOM     13  C   UNL     1       7.420  14.271  17.750  0.00  0.00    +0.000 C 
ATOM     14  O   UNL     1       8.700  13.675  17.603  0.00  0.00    +0.000 OA
ENDBRANCH   7  14
BRANCH  12  15
ATOM     15  O   UNL     1      10.234  13.724  20.143  0.00  0.00    +0.000 OA
ATOM     16  H   UNL     1      11.161  13.586  20.393  0.00  0.00    +0.000 HD
ENDBRANCH  12  15
ENDBRANCH   5   9
ENDBRANCH   1   6
BRANCH   2  17
ATOM     17  C   UNL     1       7.036   4.380  18.210  0.00  0.00    +0.000 C 
BRANCH  17  18
ATOM     18  N   UNL     1       5.655   4.482  17.787  0.00  0.00    +0.000 N 
ATOM     19  C   UNL     1       5.193   5.189  16.707  0.00  0.00    +0.000 A 
ATOM     20  N   UNL     1       3.875   5.229  16.679  0.00  0.00    +0.000 NA
ATOM     21  C   UNL     1       3.489   4.522  17.775  0.00  0.00    +0.000 A 
ATOM     22  C   UNL     1       4.557   4.023  18.457  0.00  0.00    +0.000 A 
ATOM     23  C   UNL     1       4.429   3.222  19.622  0.00  0.00    +0.000 A 
ATOM     24  O   UNL     1       5.384   2.630  20.119  0.00  0.00    +0.000 OA
ATOM     25  N   UNL     1       3.120   3.181  20.102  0.00  0.00    +0.000 N 
ATOM     26  C   UNL     1       2.876   2.522  21.368  0.00  0.00    +0.000 C 
ATOM     27  C   UNL     1       1.980   3.646  19.407  0.00  0.00    +0.000 A 
ATOM     28  O   UNL     1       0.846   3.463  19.859  0.00  0.00    +0.000 OA
ATOM     29  N   UNL     1       2.199   4.307  18.197  0.00  0.00    +0.000 N 
ATOM     30  C   UNL     1       1.080   4.791  17.407  0.00  0.00    +0.000 C 
ENDBRANCH  17  18
ENDBRANCH   2  17
TORSDOF 6
ENDMDL
MODEL 7
REMARK VINA RESULT:      -7.3      1.327      1.531
REMARK  Name = 
REMARK  9 active torsions:
REMARK  status: ('A' for Active; 'I' for Inactive)
REMARK    1  A    between atoms: C_1  and  O_2
REMARK    2  A    between atoms: O_2  and  C_3
REMARK    3  A    between atoms: C_5  and  C_6
REMARK    4  A    between atoms: N_7  and  N_8
REMARK    5  A    between atoms: C_9  and  C_11
REMARK    6  A    between atoms: C_11  and  N_12
REMARK    7  A    between atoms: N_19  and  C_20
REMARK    8  A    between atoms: N_23  and  C_24
REMARK    9  A    between atoms: C_27  and  O_28
REMARK                            x       y       z     vdW  Elec       q    Type
REMARK                         _______ _______ _______ _____ _____    ______ ____
ROOT
ATOM      1  N   UNL     1       2.607   6.388  20.054  0.00  0.00    +0.000 N 
ATOM      2  C   UNL     1       1.977   5.165  20.258  0.00  0.00    +0.000 C 
ATOM      3  O   UNL     1       0.818   5.020  20.649  0.00  0.00    +0.000 OA
ATOM      4  H   UNL     1       3.525   6.451  19.612  0.00  0.00    +0.000 HD
ENDROOT
BRANCH   1   6
ATOM      5  C   UNL     1       1.726   8.380  19.397  0.00  0.00    +0.000 C 
ATOM      6  N   UNL     1       1.905   7.518  20.343  0.00  0.00    +0.000 NA
BRANCH   5   9
ATOM      7  C   UNL     1       0.517  11.970  19.142  0.00  0.00    +0.000 A 
ATOM      8  C   UNL     1       1.220  10.779  18.906  0.00  0.00    +0.000 A 
ATOM      9  C   UNL     1       0.963   9.623  19.652  0.00  0.00    +0.000 A 
ATOM     10  C   UNL     1      -0.015   9.645  20.647  0.00  0.00    +0.000 A 
ATOM     11  C   UNL     1      -0.722  10.826  20.894  0.00  0.00    +0.000 A 
ATOM     12  C   UNL     1      -0.455  11.983  20.148  0.00  0.00    +0.000 A 
BRANCH   7  14
ATOM     13  C   UNL     1       2.277  13.356  18.290  0.00  0.00    +0.000 C 
ATOM     14  O   UNL     1       0.906  12.989  18.317  0.00  0.00    +0.000 OA
ENDBRANCH   7  14
BRANCH  12  15
ATOM     15  O   UNL     1      -1.168  13.115  20.434  0.00  0.00    +0.000 OA
ATOM     16  H   UNL     1      -0.888  13.469  21.293  0.00  0.00    +0.000 HD
ENDBRANCH  12  15
ENDBRANCH   5   9
ENDBRANCH   1   6
BRANCH   2  17
ATOM     17  C   UNL     1       2.838   3.964  19.971  0.00  0.00    +0.000 C 
BRANCH  17  18
ATOM     18  N   UNL     1       3.288   3.931  18.596  0.00  0.00    +0.000 N 
ATOM     19  C   UNL     1       2.600   3.396  17.536  0.00  0.00    +0.000 A 
ATOM     20  N   UNL     1       3.338   3.365  16.443  0.00  0.00    +0.000 NA
ATOM     21  C   UNL     1       4.530   3.901  16.821  0.00  0.00    +0.000 A 
ATOM     22  C   UNL     1       4.520   4.288  18.127  0.00  0.00    +0.000 A 
ATOM     23  C   UNL     1       5.628   4.905  18.763  0.00  0.00    +0.000 A 
ATOM     24  O   UNL     1       5.546   5.413  19.879  0.00  0.00    +0.000 OA
ATOM     25  N   UNL     1       6.780   4.877  17.976  0.00  0.00    +0.000 N 
ATOM     26  C   UNL     1       8.021   5.340  18.562  0.00  0.00    +0.000 C 
ATOM     27  C   UNL     1       6.826   4.526  16.608  0.00  0.00    +0.000 A 
ATOM     28  O   UNL     1       7.870   4.643  15.960  0.00  0.00    +0.000 OA
ATOM     29  N   UNL     1       5.645   4.054  16.032  0.00  0.00    +0.000 N 
ATOM     30  C   UNL     1       5.600   3.698  14.624  0.00  0.00    +0.000 C 
ENDBRANCH  17  18
ENDBRANCH   2  17
TORSDOF 6
ENDMDL
MODEL 8
REMARK VINA RESULT:      -7.3      3.075      9.999
REMARK  Name = 
REMARK  9 active torsions:
REMARK  status: ('A' for Active; 'I' for Inactive)
REMARK    1  A    between atoms: C_1  and  O_2
REMARK    2  A    between atoms: O_2  and  C_3
REMARK    3  A    between atoms: C_5  and  C_6
REMARK    4  A    between atoms: N_7  and  N_8
REMARK    5  A    between atoms: C_9  and  C_11
REMARK    6  A    between atoms: C_11  and  N_12
REMARK    7  A    between atoms: N_19  and  C_20
REMARK    8  A    between atoms: N_23  and  C_24
REMARK    9  A    between atoms: C_27  and  O_28
REMARK                            x       y       z     vdW  Elec       q    Type
REMARK                         _______ _______ _______ _____ _____    ______ ____
ROOT
ATOM      1  N   UNL     1       1.608   8.247  17.979  0.00  0.00    +0.000 N 
ATOM      2  C   UNL     1       1.443   9.627  17.921  0.00  0.00    +0.000 C 
ATOM      3  O   UNL     1       2.336  10.438  17.675  0.00  0.00    +0.000 OA
ATOM      4  H   UNL     1       0.811   7.616  18.065  0.00  0.00    +0.000 HD
ENDROOT
BRANCH   1   6
ATOM      5  C   UNL     1       3.071   6.507  18.075  0.00  0.00    +0.000 C 
ATOM      6  N   UNL     1       2.861   7.750  17.787  0.00  0.00    +0.000 NA
BRANCH   5   9
ATOM      7  C   UNL     1       6.293   5.383  16.413  0.00  0.00    +0.000 A 
ATOM      8  C   UNL     1       5.030   5.954  16.623  0.00  0.00    +0.000 A 
ATOM      9  C   UNL     1       4.412   5.911  17.878  0.00  0.00    +0.000 A 
ATOM     10  C   UNL     1       5.061   5.295  18.948  0.00  0.00    +0.000 A 
ATOM     11  C   UNL     1       6.322   4.721  18.753  0.00  0.00    +0.000 A 
ATOM     12  C   UNL     1       6.932   4.761  17.491  0.00  0.00    +0.000 A 
BRANCH   7  14
ATOM     13  C   UNL     1       6.505   4.463  14.210  0.00  0.00    +0.000 C 
ATOM     14  O   UNL     1       6.733   5.523  15.125  0.00  0.00    +0.000 OA
ENDBRANCH   7  14
BRANCH  12  15
ATOM     15  O   UNL     1       8.161   4.177  17.349  0.00  0.00    +0.000 OA
ATOM     16  H   UNL     1       8.855   4.843  17.471  0.00  0.00    +0.000 HD
ENDBRANCH  12  15
ENDBRANCH   5   9
ENDBRANCH   1   6
BRANCH   2  17
ATOM     17  C   UNL     1       0.042  10.101  18.202  0.00  0.00    +0.000 C 
BRANCH  17  18
ATOM     18  N   UNL     1      -0.033  10.890  19.413  0.00  0.00    +0.000 N 
ATOM     19  C   UNL     1       0.917  10.942  20.401  0.00  0.00    +0.000 A 
ATOM     20  N   UNL     1       0.490  11.614  21.452  0.00  0.00    +0.000 NA
ATOM     21  C   UNL     1      -0.771  12.003  21.119  0.00  0.00    +0.000 A 
ATOM     22  C   UNL     1      -1.108  11.602  19.861  0.00  0.00    +0.000 A 
ATOM     23  C   UNL     1      -2.356  11.906  19.259  0.00  0.00    +0.000 A 
ATOM     24  O   UNL     1      -2.578  11.700  18.068  0.00  0.00    +0.000 OA
ATOM     25  N   UNL     1      -3.263  12.467  20.159  0.00  0.00    +0.000 N 
ATOM     26  C   UNL     1      -4.623  12.687  19.713  0.00  0.00    +0.000 C 
ATOM     27  C   UNL     1      -2.944  12.936  21.453  0.00  0.00    +0.000 A 
ATOM     28  O   UNL     1      -3.786  13.525  22.138  0.00  0.00    +0.000 OA
ATOM     29  N   UNL     1      -1.645  12.709  21.910  0.00  0.00    +0.000 N 
ATOM     30  C   UNL     1      -1.227  13.185  23.218  0.00  0.00    +0.000 C 
ENDBRANCH  17  18
ENDBRANCH   2  17
TORSDOF 6
ENDMDL
MODEL 9
REMARK VINA RESULT:      -7.2      3.509      9.853
REMARK  Name = 
REMARK  9 active torsions:
REMARK  status: ('A' for Active; 'I' for Inactive)
REMARK    1  A    between atoms: C_1  and  O_2
REMARK    2  A    between atoms: O_2  and  C_3
REMARK    3  A    between atoms: C_5  and  C_6
REMARK    4  A    between atoms: N_7  and  N_8
REMARK    5  A    between atoms: C_9  and  C_11
REMARK    6  A    between atoms: C_11  and  N_12
REMARK    7  A    between atoms: N_19  and  C_20
REMARK    8  A    between atoms: N_23  and  C_24
REMARK    9  A    between atoms: C_27  and  O_28
REMARK                            x       y       z     vdW  Elec       q    Type
REMARK                         _______ _______ _______ _____ _____    ______ ____
ROOT
ATOM      1  N   UNL     1       1.522   9.243  17.904  0.00  0.00    +0.000 N 
ATOM      2  C   UNL     1       1.108   9.869  19.074  0.00  0.00    +0.000 C 
ATOM      3  O   UNL     1       1.008   9.324  20.174  0.00  0.00    +0.000 OA
ATOM      4  H   UNL     1       1.704   9.771  17.049  0.00  0.00    +0.000 HD
ENDROOT
BRANCH   1   6
ATOM      5  C   UNL     1       3.047   7.557  17.987  0.00  0.00    +0.000 C 
ATOM      6  N   UNL     1       1.805   7.913  17.962  0.00  0.00    +0.000 NA
BRANCH   5   9
ATOM      7  C   UNL     1       5.107   4.390  18.363  0.00  0.00    +0.000 A 
ATOM      8  C   UNL     1       4.737   5.742  18.303  0.00  0.00    +0.000 A 
ATOM      9  C   UNL     1       3.413   6.124  18.060  0.00  0.00    +0.000 A 
ATOM     10  C   UNL     1       2.433   5.148  17.879  0.00  0.00    +0.000 A 
ATOM     11  C   UNL     1       2.788   3.796  17.935  0.00  0.00    +0.000 A 
ATOM     12  C   UNL     1       4.117   3.419  18.171  0.00  0.00    +0.000 A 
BRANCH   7  14
ATOM     13  C   UNL     1       7.376   4.973  17.858  0.00  0.00    +0.000 C 
ATOM     14  O   UNL     1       6.440   4.214  18.608  0.00  0.00    +0.000 OA
ENDBRANCH   7  14
BRANCH  12  15
ATOM     15  O   UNL     1       4.414   2.084  18.207  0.00  0.00    +0.000 OA
ATOM     16  H   UNL     1       4.345   1.710  17.315  0.00  0.00    +0.000 HD
ENDBRANCH  12  15
ENDBRANCH   5   9
ENDBRANCH   1   6
BRANCH   2  17
ATOM     17  C   UNL     1       0.758  11.325  18.914  0.00  0.00    +0.000 C 
BRANCH  17  18
ATOM     18  N   UNL     1      -0.660  11.565  19.077  0.00  0.00    +0.000 N 
ATOM     19  C   UNL     1      -1.621  11.404  18.112  0.00  0.00    +0.000 A 
ATOM     20  N   UNL     1      -2.793  11.862  18.510  0.00  0.00    +0.000 NA
ATOM     21  C   UNL     1      -2.567  12.326  19.769  0.00  0.00    +0.000 A 
ATOM     22  C   UNL     1      -1.276  12.128  20.158  0.00  0.00    +0.000 A 
ATOM     23  C   UNL     1      -0.788  12.493  21.439  0.00  0.00    +0.000 A 
ATOM     24  O   UNL     1       0.321  12.146  21.841  0.00  0.00    +0.000 OA
ATOM     25  N   UNL     1      -1.704  13.255  22.164  0.00  0.00    +0.000 N 
ATOM     26  C   UNL     1      -1.276  13.819  23.428  0.00  0.00    +0.000 C 
ATOM     27  C   UNL     1      -3.061  13.447  21.820  0.00  0.00    +0.000 A 
ATOM     28  O   UNL     1      -3.829  14.040  22.582  0.00  0.00    +0.000 OA
ATOM     29  N   UNL     1      -3.485  12.932  20.593  0.00  0.00    +0.000 N 
ATOM     30  C   UNL     1      -4.870  13.061  20.176  0.00  0.00    +0.000 C 
ENDBRANCH  17  18
ENDBRANCH   2  17
TORSDOF 6
ENDMDL
