MODEL 1
REMARK VINA RESULT:      -8.0      0.000      0.000
REMARK  Name = 
REMARK  12 active torsions:
REMARK  status: ('A' for Active; 'I' for Inactive)
REMARK    1  A    between atoms: C_1  and  C_2
REMARK    2  A    between atoms: C_2  and  C_3
REMARK    3  A    between atoms: C_4  and  C_5
REMARK    4  A    between atoms: C_5  and  C_6
REMARK    5  A    between atoms: C_6  and  N_7
REMARK    6  A    between atoms: N_7  and  C_8
REMARK    7  A    between atoms: N_7  and  C_9
REMARK    8  A    between atoms: N_12  and  C_13
REMARK    9  A    between atoms: C_13  and  C_14
REMARK   10  A    between atoms: C_14  and  C_15
REMARK   11  A    between atoms: C_15  and  C_16
REMARK   12  A    between atoms: C_22  and  N_23
REMARK                            x       y       z     vdW  Elec       q    Type
REMARK                         _______ _______ _______ _____ _____    ______ ____
ROOT
ATOM      1  C   UNL     1       0.844   8.455  20.954  0.00  0.00    +0.000 C 
ENDROOT
BRANCH   1   2
ATOM      2  C   UNL     1       1.447   9.348  22.040  0.00  0.00    +0.000 C 
BRANCH   2   6
ATOM      3  C   UNL     1      -0.877  12.825  20.887  0.00  0.00    +0.000 C 
ATOM      4  C   UNL     1       0.654  12.846  20.827  0.00  0.00    +0.000 C 
ATOM      5  C   UNL     1       1.254  11.453  20.851  0.00  0.00    +0.000 C 
ATOM      6  N   UNL     1       0.884  10.712  22.062  0.00  0.00    +0.000 NA
ATOM      7  C   UNL     1      -0.569  10.649  22.278  0.00  0.00    +0.000 C 
ATOM      8  C   UNL     1      -1.290  11.992  22.121  0.00  0.00    +0.000 C 
BRANCH   3   9
ATOM      9  N   UNL     1      -1.594  12.511  19.624  0.00  0.00    +0.000 NA
ATOM     10  C   UNL     1      -3.032  12.287  19.713  0.00  0.00    +0.000 C 
BRANCH   9  11
ATOM     11  C   UNL     1      -0.933  11.413  18.876  0.00  0.00    +0.000 C 
BRANCH  11  12
ATOM     12  C   UNL     1      -1.892  10.279  18.478  0.00  0.00    +0.000 C 
BRANCH  12  16
ATOM     13  C   UNL     1      -2.885   9.927  14.730  0.00  0.00    +0.000 C 
ATOM     14  C   UNL     1      -2.927  10.343  16.172  0.00  0.00    +0.000 C 
ATOM     15  C   UNL     1      -4.142  11.098  16.641  0.00  0.00    +0.000 C 
ATOM     16  C   UNL     1      -1.918  10.021  16.998  0.00  0.00    +0.000 C 
ENDBRANCH  12  16
ENDBRANCH  11  12
ENDBRANCH   9  11
ENDBRANCH   3   9
ENDBRANCH   2   6
ENDBRANCH   1   2
BRANCH   1  17
ATOM     17  C   UNL     1       1.912   7.922  19.996  0.00  0.00    +0.000 C 
BRANCH  17  18
ATOM     18  C   UNL     1       2.092   6.450  20.151  0.00  0.00    +0.000 A 
ATOM     19  C   UNL     1       1.319   5.610  20.924  0.00  0.00    +0.000 A 
ATOM     20  N   UNL     1       1.784   4.335  20.772  0.00  0.00    +0.000 N 
ATOM     21  C   UNL     1       2.853   4.321  19.898  0.00  0.00    +0.000 A 
ATOM     22  C   UNL     1       3.626   3.256  19.431  0.00  0.00    +0.000 A 
ATOM     23  C   UNL     1       4.661   3.543  18.530  0.00  0.00    +0.000 A 
ATOM     24  C   UNL     1       4.921   4.856  18.114  0.00  0.00    +0.000 A 
ATOM     25  C   UNL     1       4.129   5.909  18.606  0.00  0.00    +0.000 A 
ATOM     26  C   UNL     1       3.075   5.638  19.505  0.00  0.00    +0.000 A 
ATOM     27  H   UNL     1       1.403   3.516  21.219  0.00  0.00    +0.000 HD
BRANCH  24  28
ATOM     28  N   UNL     1       5.971   5.134  17.196  0.00  0.00    +0.000 N 
ATOM     29  C   UNL     1       6.641   4.254  16.381  0.00  0.00    +0.000 A 
ATOM     30  N   UNL     1       7.541   4.883  15.659  0.00  0.00    +0.000 NA
ATOM     31  N   UNL     1       7.484   6.210  15.996  0.00  0.00    +0.000 NA
ATOM     32  C   UNL     1       6.550   6.346  16.911  0.00  0.00    +0.000 A 
ENDBRANCH  24  28
ENDBRANCH  17  18
ENDBRANCH   1  17
TORSDOF 9
ENDMDL
MODEL 2
REMARK VINA RESULT:      -7.8      2.369      4.100
REMARK  Name = 
REMARK  12 active torsions:
REMARK  status: ('A' for Active; 'I' for Inactive)
REMARK    1  A    between atoms: C_1  and  C_2
REMARK    2  A    between atoms: C_2  and  C_3
REMARK    3  A    between atoms: C_4  and  C_5
REMARK    4  A    between atoms: C_5  and  C_6
REMARK    5  A    between atoms: C_6  and  N_7
REMARK    6  A    between atoms: N_7  and  C_8
REMARK    7  A    between atoms: N_7  and  C_9
REMARK    8  A    between atoms: N_12  and  C_13
REMARK    9  A    between atoms: C_13  and  C_14
REMARK   10  A    between atoms: C_14  and  C_15
REMARK   11  A    between atoms: C_15  and  C_16
REMARK   12  A    between atoms: C_22  and  N_23
REMARK                            x       y       z     vdW  Elec       q    Type
REMARK                         _______ _______ _______ _____ _____    ______ ____
ROOT
ATOM      1  C   UNL     1       0.609   9.671  18.032  0.00  0.00    +0.000 C 
ENDROOT
BRANCH   1   2
ATOM      2  C   UNL     1       0.527  10.996  18.794  0.00  0.00    +0.000 C 
BRANCH   2   6
ATOM      3  C   UNL     1      -2.152  12.504  21.855  0.00  0.00    +0.000 C 
ATOM      4  C   UNL     1      -1.142  11.396  22.170  0.00  0.00    +0.000 C 
ATOM      5  C   UNL     1      -0.038  11.306  21.132  0.00  0.00    +0.000 C 
ATOM      6  N   UNL     1      -0.563  11.037  19.789  0.00  0.00    +0.000 NA
ATOM      7  C   UNL     1      -1.587  12.003  19.366  0.00  0.00    +0.000 C 
ATOM      8  C   UNL     1      -2.669  12.278  20.417  0.00  0.00    +0.000 C 
BRANCH   3   9
ATOM      9  N   UNL     1      -1.749  13.895  22.187  0.00  0.00    +0.000 NA
ATOM     10  C   UNL     1      -1.073  14.106  23.461  0.00  0.00    +0.000 C 
BRANCH   9  11
ATOM     11  C   UNL     1      -2.876  14.848  22.022  0.00  0.00    +0.000 C 
BRANCH  11  12
ATOM     12  C   UNL     1      -3.659  15.100  23.319  0.00  0.00    +0.000 C 
BRANCH  12  16
ATOM     13  C   UNL     1      -6.708  12.711  23.710  0.00  0.00    +0.000 C 
ATOM     14  C   UNL     1      -5.334  13.291  23.880  0.00  0.00    +0.000 C 
ATOM     15  C   UNL     1      -4.337  12.489  24.674  0.00  0.00    +0.000 C 
ATOM     16  C   UNL     1      -5.023  14.470  23.317  0.00  0.00    +0.000 C 
ENDBRANCH  12  16
ENDBRANCH  11  12
ENDBRANCH   9  11
ENDBRANCH   3   9
ENDBRANCH   2   6
ENDBRANCH   1   2
BRANCH   1  17
ATOM     17  C   UNL     1       2.054   9.189  17.883  0.00  0.00    +0.000 C 
BRANCH  17  18
ATOM     18  C   UNL     1       2.322   8.004  18.747  0.00  0.00    +0.000 A 
ATOM     19  C   UNL     1       1.730   7.730  19.962  0.00  0.00    +0.000 A 
ATOM     20  N   UNL     1       2.217   6.538  20.419  0.00  0.00    +0.000 N 
ATOM     21  C   UNL     1       3.120   6.017  19.513  0.00  0.00    +0.000 A 
ATOM     22  C   UNL     1       3.846   4.825  19.545  0.00  0.00    +0.000 A 
ATOM     23  C   UNL     1       4.697   4.547  18.467  0.00  0.00    +0.000 A 
ATOM     24  C   UNL     1       4.824   5.437  17.391  0.00  0.00    +0.000 A 
ATOM     25  C   UNL     1       4.084   6.632  17.390  0.00  0.00    +0.000 A 
ATOM     26  C   UNL     1       3.213   6.924  18.462  0.00  0.00    +0.000 A 
ATOM     27  H   UNL     1       1.954   6.092  21.283  0.00  0.00    +0.000 HD
BRANCH  24  28
ATOM     28  N   UNL     1       5.687   5.141  16.301  0.00  0.00    +0.000 N 
ATOM     29  C   UNL     1       5.443   4.329  15.220  0.00  0.00    +0.000 A 
ATOM     30  N   UNL     1       6.477   4.311  14.409  0.00  0.00    +0.000 NA
ATOM     31  N   UNL     1       7.439   5.121  14.953  0.00  0.00    +0.000 NA
ATOM     32  C   UNL     1       6.961   5.604  16.077  0.00  0.00    +0.000 A 
ENDBRANCH  24  28
ENDBRANCH  17  18
ENDBRANCH   1  17
TORSDOF 9
ENDMDL
MODEL 3
REMARK VINA RESULT:      -7.8      2.466      9.978
REMARK  Name = 
REMARK  12 active torsions:
REMARK  status: ('A' for Active; 'I' for Inactive)
REMARK    1  A    between atoms: C_1  and  C_2
REMARK    2  A    between atoms: C_2  and  C_3
REMARK    3  A    between atoms: C_4  and  C_5
REMARK    4  A    between atoms: C_5  and  C_6
REMARK    5  A    between atoms: C_6  and  N_7
REMARK    6  A    between atoms: N_7  and  C_8
REMARK    7  A    between atoms: N_7  and  C_9
REMARK    8  A    between atoms: N_12  and  C_13
REMARK    9  A    between atoms: C_13  and  C_14
REMARK   10  A    between atoms: C_14  and  C_15
REMARK   11  A    between atoms: C_15  and  C_16
REMARK   12  A    between atoms: C_22  and  N_23
REMARK                            x       y       z     vdW  Elec       q    Type
REMARK                         _______ _______ _______ _____ _____    ______ ____
ROOT
ATOM      1  C   UNL     1       2.178   7.012  19.829  0.00  0.00    +0.000 C 
ENDROOT
BRANCH   1   2
ATOM      2  C   UNL     1       1.869   5.634  20.420  0.00  0.00    +0.000 C 
BRANCH   2   6
ATOM      3  C   UNL     1       4.054   3.357  17.442  0.00  0.00    +0.000 C 
ATOM      4  C   UNL     1       2.597   3.767  17.206  0.00  0.00    +0.000 C 
ATOM      5  C   UNL     1       2.153   4.886  18.130  0.00  0.00    +0.000 C 
ATOM      6  N   UNL     1       2.268   4.514  19.544  0.00  0.00    +0.000 NA
ATOM      7  C   UNL     1       3.614   4.050  19.910  0.00  0.00    +0.000 C 
ATOM      8  C   UNL     1       4.214   3.024  18.942  0.00  0.00    +0.000 C 
BRANCH   3   9
ATOM      9  N   UNL     1       5.102   4.233  16.858  0.00  0.00    +0.000 NA
ATOM     10  C   UNL     1       4.722   5.604  16.539  0.00  0.00    +0.000 C 
BRANCH   9  11
ATOM     11  C   UNL     1       5.776   3.589  15.703  0.00  0.00    +0.000 C 
BRANCH  11  12
ATOM     12  C   UNL     1       5.930   4.517  14.488  0.00  0.00    +0.000 C 
BRANCH  12  16
ATOM     13  C   UNL     1       7.103   2.605  11.306  0.00  0.00    +0.000 C 
ATOM     14  C   UNL     1       6.203   3.285  12.297  0.00  0.00    +0.000 C 
ATOM     15  C   UNL     1       4.721   3.220  12.046  0.00  0.00    +0.000 C 
ATOM     16  C   UNL     1       6.724   3.901  13.371  0.00  0.00    +0.000 C 
ENDBRANCH  12  16
ENDBRANCH  11  12
ENDBRANCH   9  11
ENDBRANCH   3   9
ENDBRANCH   2   6
ENDBRANCH   1   2
BRANCH   1  17
ATOM     17  C   UNL     1       1.394   8.122  20.534  0.00  0.00    +0.000 C 
BRANCH  17  18
ATOM     18  C   UNL     1       1.166   9.283  19.626  0.00  0.00    +0.000 A 
ATOM     19  C   UNL     1       1.777   9.501  18.410  0.00  0.00    +0.000 A 
ATOM     20  N   UNL     1       1.273  10.653  17.876  0.00  0.00    +0.000 N 
ATOM     21  C   UNL     1       0.327  11.194  18.723  0.00  0.00    +0.000 A 
ATOM     22  C   UNL     1      -0.457  12.341  18.587  0.00  0.00    +0.000 A 
ATOM     23  C   UNL     1      -1.353  12.649  19.621  0.00  0.00    +0.000 A 
ATOM     24  C   UNL     1      -1.456  11.839  20.760  0.00  0.00    +0.000 A 
ATOM     25  C   UNL     1      -0.649  10.693  20.871  0.00  0.00    +0.000 A 
ATOM     26  C   UNL     1       0.251  10.361  19.835  0.00  0.00    +0.000 A 
ATOM     27  H   UNL     1       1.539  11.051  16.989  0.00  0.00    +0.000 HD
BRANCH  24  28
ATOM     28  N   UNL     1      -2.371  12.160  21.800  0.00  0.00    +0.000 N 
ATOM     29  C   UNL     1      -2.243  11.926  23.147  0.00  0.00    +0.000 A 
ATOM     30  N   UNL     1      -3.291  12.376  23.799  0.00  0.00    +0.000 NA
ATOM     31  N   UNL     1      -4.147  12.918  22.876  0.00  0.00    +0.000 NA
ATOM     32  C   UNL     1      -3.592  12.781  21.693  0.00  0.00    +0.000 A 
ENDBRANCH  24  28
ENDBRANCH  17  18
ENDBRANCH   1  17
TORSDOF 9
ENDMDL
MODEL 4
REMARK VINA RESULT:      -7.8      1.920      2.715
REMARK  Name = 
REMARK  12 active torsions:
REMARK  status: ('A' for Active; 'I' for Inactive)
REMARK    1  A    between atoms: C_1  and  C_2
REMARK    2  A    between atoms: C_2  and  C_3
REMARK    3  A    between atoms: C_4  and  C_5
REMARK    4  A    between atoms: C_5  and  C_6
REMARK    5  A    between atoms: C_6  and  N_7
REMARK    6  A    between atoms: N_7  and  C_8
REMARK    7  A    between atoms: N_7  and  C_9
REMARK    8  A    between atoms: N_12  and  C_13
REMARK    9  A    between atoms: C_13  and  C_14
REMARK   10  A    between atoms: C_14  and  C_15
REMARK   11  A    between atoms: C_15  and  C_16
REMARK   12  A    between atoms: C_22  and  N_23
REMARK                            x       y       z     vdW  Elec       q    Type
REMARK                         _______ _______ _______ _____ _____    ______ ____
ROOT
ATOM      1  C   UNL     1       1.125   7.280  20.799  0.00  0.00    +0.000 C 
ENDROOT
BRANCH   1   2
ATOM      2  C   UNL     1       1.661   8.224  19.721  0.00  0.00    +0.000 C 
BRANCH   2   6
ATOM      3  C   UNL     1      -0.781  11.810  19.649  0.00  0.00    +0.000 C 
ATOM      4  C   UNL     1       0.483  11.701  18.791  0.00  0.00    +0.000 C 
ATOM      5  C   UNL     1       0.950  10.267  18.623  0.00  0.00    +0.000 C 
ATOM      6  N   UNL     1       1.250   9.630  19.910  0.00  0.00    +0.000 NA
ATOM      7  C   UNL     1       0.133   9.698  20.862  0.00  0.00    +0.000 C 
ATOM      8  C   UNL     1      -0.509  11.085  20.986  0.00  0.00    +0.000 C 
BRANCH   3   9
ATOM      9  N   UNL     1      -2.072  11.484  18.987  0.00  0.00    +0.000 NA
ATOM     10  C   UNL     1      -2.078  11.432  17.531  0.00  0.00    +0.000 C 
BRANCH   9  11
ATOM     11  C   UNL     1      -3.177  12.338  19.491  0.00  0.00    +0.000 C 
BRANCH  11  12
ATOM     12  C   UNL     1      -4.561  11.918  18.970  0.00  0.00    +0.000 C 
BRANCH  12  16
ATOM     13  C   UNL     1      -7.764  11.397  21.121  0.00  0.00    +0.000 C 
ATOM     14  C   UNL     1      -6.704  11.168  20.083  0.00  0.00    +0.000 C 
ATOM     15  C   UNL     1      -6.914  10.035  19.115  0.00  0.00    +0.000 C 
ATOM     16  C   UNL     1      -5.629  11.972  20.025  0.00  0.00    +0.000 C 
ENDBRANCH  12  16
ENDBRANCH  11  12
ENDBRANCH   9  11
ENDBRANCH   3   9
ENDBRANCH   2   6
ENDBRANCH   1   2
BRANCH   1  17
ATOM     17  C   UNL     1       2.107   6.147  21.104  0.00  0.00    +0.000 C 
BRANCH  17  18
ATOM     18  C   UNL     1       1.917   5.000  20.170  0.00  0.00    +0.000 A 
ATOM     19  C   UNL     1       0.885   4.086  20.200  0.00  0.00    +0.000 A 
ATOM     20  N   UNL     1       1.051   3.215  19.160  0.00  0.00    +0.000 N 
ATOM     21  C   UNL     1       2.179   3.550  18.437  0.00  0.00    +0.000 A 
ATOM     22  C   UNL     1       2.727   2.965  17.294  0.00  0.00    +0.000 A 
ATOM     23  C   UNL     1       3.896   3.529  16.765  0.00  0.00    +0.000 A 
ATOM     24  C   UNL     1       4.503   4.642  17.364  0.00  0.00    +0.000 A 
ATOM     25  C   UNL     1       3.930   5.206  18.517  0.00  0.00    +0.000 A 
ATOM     26  C   UNL     1       2.748   4.658  19.058  0.00  0.00    +0.000 A 
ATOM     27  H   UNL     1       0.440   2.446  18.939  0.00  0.00    +0.000 HD
BRANCH  24  28
ATOM     28  N   UNL     1       5.685   5.208  16.814  0.00  0.00    +0.000 N 
ATOM     29  C   UNL     1       6.449   4.737  15.774  0.00  0.00    +0.000 A 
ATOM     30  N   UNL     1       7.462   5.540  15.541  0.00  0.00    +0.000 NA
ATOM     31  N   UNL     1       7.387   6.570  16.442  0.00  0.00    +0.000 NA
ATOM     32  C   UNL     1       6.330   6.360  17.194  0.00  0.00    +0.000 A 
ENDBRANCH  24  28
ENDBRANCH  17  18
ENDBRANCH   1  17
TORSDOF 9
ENDMDL
MODEL 5
REMARK VINA RESULT:      -7.8      2.530      9.233
REMARK  Name = 
REMARK  12 active torsions:
REMARK  status: ('A' for Active; 'I' for Inactive)
REMARK    1  A    between atoms: C_1  and  C_2
REMARK    2  A    between atoms: C_2  and  C_3
REMARK    3  A    between atoms: C_4  and  C_5
REMARK    4  A    between atoms: C_5  and  C_6
REMARK    5  A    between atoms: C_6  and  N_7
REMARK    6  A    between atoms: N_7  and  C_8
REMARK    7  A    between atoms: N_7  and  C_9
REMARK    8  A    between atoms: N_12  and  C_13
REMARK    9  A    between atoms: C_13  and  C_14
REMARK   10  A    between atoms: C_14  and  C_15
REMARK   11  A    between atoms: C_15  and  C_16
REMARK   12  A    between atoms: C_22  and  N_23
REMARK                            x       y       z     vdW  Elec       q    Type
REMARK                         _______ _______ _______ _____ _____    ______ ____
ROOT
ATOM      1  C   UNL     1       0.842   4.984  20.419  0.00  0.00    +0.000 C 
ENDROOT
BRANCH   1   2
ATOM      2  C   UNL     1       1.255   3.597  20.916  0.00  0.00    +0.000 C 
BRANCH   2   6
ATOM      3  C   UNL     1       4.321   2.639  17.998  0.00  0.00    +0.000 C 
ATOM      4  C   UNL     1       2.846   2.722  17.592  0.00  0.00    +0.000 C 
ATOM      5  C   UNL     1       2.004   3.466  18.612  0.00  0.00    +0.000 C 
ATOM      6  N   UNL     1       2.048   2.831  19.934  0.00  0.00    +0.000 NA
ATOM      7  C   UNL     1       3.416   2.641  20.437  0.00  0.00    +0.000 C 
ATOM      8  C   UNL     1       4.386   2.032  19.418  0.00  0.00    +0.000 C 
BRANCH   3   9
ATOM      9  N   UNL     1       5.149   3.852  17.774  0.00  0.00    +0.000 NA
ATOM     10  C   UNL     1       5.315   4.762  18.900  0.00  0.00    +0.000 C 
BRANCH   9  11
ATOM     11  C   UNL     1       4.724   4.589  16.557  0.00  0.00    +0.000 C 
BRANCH  11  12
ATOM     12  C   UNL     1       5.264   3.980  15.253  0.00  0.00    +0.000 C 
BRANCH  12  16
ATOM     13  C   UNL     1       8.083   5.385  12.965  0.00  0.00    +0.000 C 
ATOM     14  C   UNL     1       6.889   4.594  13.416  0.00  0.00    +0.000 C 
ATOM     15  C   UNL     1       6.321   3.586  12.454  0.00  0.00    +0.000 C 
ATOM     16  C   UNL     1       6.379   4.782  14.645  0.00  0.00    +0.000 C 
ENDBRANCH  12  16
ENDBRANCH  11  12
ENDBRANCH   9  11
ENDBRANCH   3   9
ENDBRANCH   2   6
ENDBRANCH   1   2
BRANCH   1  17
ATOM     17  C   UNL     1       1.856   6.058  20.819  0.00  0.00    +0.000 C 
BRANCH  17  18
ATOM     18  C   UNL     1       1.987   7.101  19.761  0.00  0.00    +0.000 A 
ATOM     19  C   UNL     1       2.542   6.930  18.510  0.00  0.00    +0.000 A 
ATOM     20  N   UNL     1       2.441   8.110  17.830  0.00  0.00    +0.000 N 
ATOM     21  C   UNL     1       1.815   9.058  18.616  0.00  0.00    +0.000 A 
ATOM     22  C   UNL     1       1.482  10.385  18.337  0.00  0.00    +0.000 A 
ATOM     23  C   UNL     1       0.835  11.122  19.340  0.00  0.00    +0.000 A 
ATOM     24  C   UNL     1       0.538  10.552  20.585  0.00  0.00    +0.000 A 
ATOM     25  C   UNL     1       0.891   9.215  20.838  0.00  0.00    +0.000 A 
ATOM     26  C   UNL     1       1.533   8.454  19.837  0.00  0.00    +0.000 A 
ATOM     27  H   UNL     1       2.762   8.271  16.889  0.00  0.00    +0.000 HD
BRANCH  24  28
ATOM     28  N   UNL     1      -0.123  11.309  21.592  0.00  0.00    +0.000 N 
ATOM     29  C   UNL     1      -0.802  10.848  22.694  0.00  0.00    +0.000 A 
ATOM     30  N   UNL     1      -1.268  11.849  23.404  0.00  0.00    +0.000 NA
ATOM     31  N   UNL     1      -0.905  13.008  22.770  0.00  0.00    +0.000 NA
ATOM     32  C   UNL     1      -0.229  12.674  21.694  0.00  0.00    +0.000 A 
ENDBRANCH  24  28
ENDBRANCH  17  18
ENDBRANCH   1  17
TORSDOF 9
ENDMDL
MODEL 6
REMARK VINA RESULT:      -7.6      1.544      3.324
REMARK  Name = 
REMARK  12 active torsions:
REMARK  status: ('A' for Active; 'I' for Inactive)
REMARK    1  A    between atoms: C_1  and  C_2
REMARK    2  A    between atoms: C_2  and  C_3
REMARK    3  A    between atoms: C_4  and  C_5
REMARK    4  A    between atoms: C_5  and  C_6
REMARK    5  A    between atoms: C_6  and  N_7
REMARK    6  A    between atoms: N_7  and  C_8
REMARK    7  A    between atoms: N_7  and  C_9
REMARK    8  A    between atoms: N_12  and  C_13
REMARK    9  A    between atoms: C_13  and  C_14
REMARK   10  A    between atoms: C_14  and  C_15
REMARK   11  A    between atoms: C_15  and  C_16
REMARK   12  A    between atoms: C_22  and  N_23
REMARK                            x       y       z     vdW  Elec       q    Type
REMARK                         _______ _______ _______ _____ _____    ______ ____
ROOT
ATOM      1  C   UNL     1       1.544   8.212  18.752  0.00  0.00    +0.000 C 
ENDROOT
BRANCH   1   2
ATOM      2  C   UNL     1       2.005   9.665  18.617  0.00  0.00    +0.000 C 
BRANCH   2   6
ATOM      3  C   UNL     1      -1.436  12.299  18.834  0.00  0.00    +0.000 C 
ATOM      4  C   UNL     1      -1.513  10.963  18.087  0.00  0.00    +0.000 C 
ATOM      5  C   UNL     1      -0.390  10.018  18.473  0.00  0.00    +0.000 C 
ATOM      6  N   UNL     1       0.932  10.587  18.195  0.00  0.00    +0.000 NA
ATOM      7  C   UNL     1       1.135  11.905  18.815  0.00  0.00    +0.000 C 
ATOM      8  C   UNL     1      -0.025  12.886  18.609  0.00  0.00    +0.000 C 
BRANCH   3   9
ATOM      9  N   UNL     1      -1.927  12.314  20.237  0.00  0.00    +0.000 NA
ATOM     10  C   UNL     1      -3.277  12.812  20.464  0.00  0.00    +0.000 C 
BRANCH   9  11
ATOM     11  C   UNL     1      -0.959  12.972  21.150  0.00  0.00    +0.000 C 
BRANCH  11  12
ATOM     12  C   UNL     1      -0.776  12.234  22.485  0.00  0.00    +0.000 C 
BRANCH  12  16
ATOM     13  C   UNL     1      -0.596   8.378  21.976  0.00  0.00    +0.000 C 
ATOM     14  C   UNL     1      -0.160   9.803  22.165  0.00  0.00    +0.000 C 
ATOM     15  C   UNL     1       1.313  10.097  22.063  0.00  0.00    +0.000 C 
ATOM     16  C   UNL     1      -1.071  10.764  22.391  0.00  0.00    +0.000 C 
ENDBRANCH  12  16
ENDBRANCH  11  12
ENDBRANCH   9  11
ENDBRANCH   3   9
ENDBRANCH   2   6
ENDBRANCH   1   2
BRANCH   1  17
ATOM     17  C   UNL     1       2.260   7.491  19.897  0.00  0.00    +0.000 C 
BRANCH  17  18
ATOM     18  C   UNL     1       2.191   6.011  19.731  0.00  0.00    +0.000 A 
ATOM     19  C   UNL     1       1.325   5.156  20.381  0.00  0.00    +0.000 A 
ATOM     20  N   UNL     1       1.555   3.887  19.931  0.00  0.00    +0.000 N 
ATOM     21  C   UNL     1       2.559   3.895  18.983  0.00  0.00    +0.000 A 
ATOM     22  C   UNL     1       3.110   2.848  18.242  0.00  0.00    +0.000 A 
ATOM     23  C   UNL     1       4.131   3.156  17.331  0.00  0.00    +0.000 A 
ATOM     24  C   UNL     1       4.592   4.470  17.171  0.00  0.00    +0.000 A 
ATOM     25  C   UNL     1       4.020   5.503  17.935  0.00  0.00    +0.000 A 
ATOM     26  C   UNL     1       2.984   5.213  18.849  0.00  0.00    +0.000 A 
ATOM     27  H   UNL     1       1.062   3.062  20.233  0.00  0.00    +0.000 HD
BRANCH  24  28
ATOM     28  N   UNL     1       5.624   4.770  16.241  0.00  0.00    +0.000 N 
ATOM     29  C   UNL     1       6.954   5.005  16.493  0.00  0.00    +0.000 A 
ATOM     30  N   UNL     1       7.605   5.236  15.375  0.00  0.00    +0.000 NA
ATOM     31  N   UNL     1       6.700   5.162  14.349  0.00  0.00    +0.000 NA
ATOM     32  C   UNL     1       5.527   4.888  14.876  0.00  0.00    +0.000 A 
ENDBRANCH  24  28
ENDBRANCH  17  18
ENDBRANCH   1  17
TORSDOF 9
ENDMDL
MODEL 7
REMARK VINA RESULT:      -7.6      2.244      9.550
REMARK  Name = 
REMARK  12 active torsions:
REMARK  status: ('A' for Active; 'I' for Inactive)
REMARK    1  A    between atoms: C_1  and  C_2
REMARK    2  A    between atoms: C_2  and  C_3
REMARK    3  A    between atoms: C_4  and  C_5
REMARK    4  A    between atoms: C_5  and  C_6
REMARK    5  A    between atoms: C_6  and  N_7
REMARK    6  A    between atoms: N_7  and  C_8
REMARK    7  A    between atoms: N_7  and  C_9
REMARK    8  A    between atoms: N_12  and  C_13
REMARK    9  A    between atoms: C_13  and  C_14
REMARK   10  A    between atoms: C_14  and  C_15
REMARK   11  A    between atoms: C_15  and  C_16
REMARK   12  A    between atoms: C_22  and  N_23
REMARK                            x       y       z     vdW  Elec       q    Type
REMARK                         _______ _______ _______ _____ _____    ______ ____
ROOT
ATOM      1  C   UNL     1       1.110   5.938  20.610  0.00  0.00    +0.000 C 
ENDROOT
BRANCH   1   2
ATOM      2  C   UNL     1       1.964   4.716  20.956  0.00  0.00    +0.000 C 
BRANCH   2   6
ATOM      3  C   UNL     1       4.019   3.161  17.465  0.00  0.00    +0.000 C 
ATOM      4  C   UNL     1       2.634   3.806  17.341  0.00  0.00    +0.000 C 
ATOM      5  C   UNL     1       2.277   4.649  18.551  0.00  0.00    +0.000 C 
ATOM      6  N   UNL     1       2.274   3.864  19.791  0.00  0.00    +0.000 NA
ATOM      7  C   UNL     1       3.535   3.144  20.021  0.00  0.00    +0.000 C 
ATOM      8  C   UNL     1       4.060   2.382  18.798  0.00  0.00    +0.000 C 
BRANCH   3   9
ATOM      9  N   UNL     1       5.192   4.030  17.186  0.00  0.00    +0.000 NA
ATOM     10  C   UNL     1       5.994   4.452  18.328  0.00  0.00    +0.000 C 
BRANCH   9  11
ATOM     11  C   UNL     1       4.824   5.193  16.339  0.00  0.00    +0.000 C 
BRANCH  11  12
ATOM     12  C   UNL     1       5.702   5.340  15.087  0.00  0.00    +0.000 C 
BRANCH  12  16
ATOM     13  C   UNL     1       6.018   2.861  12.101  0.00  0.00    +0.000 C 
ATOM     14  C   UNL     1       6.327   3.990  13.043  0.00  0.00    +0.000 C 
ATOM     15  C   UNL     1       7.487   4.884  12.696  0.00  0.00    +0.000 C 
ATOM     16  C   UNL     1       5.568   4.187  14.133  0.00  0.00    +0.000 C 
ENDBRANCH  12  16
ENDBRANCH  11  12
ENDBRANCH   9  11
ENDBRANCH   3   9
ENDBRANCH   2   6
ENDBRANCH   1   2
BRANCH   1  17
ATOM     17  C   UNL     1       1.821   7.248  20.956  0.00  0.00    +0.000 C 
BRANCH  17  18
ATOM     18  C   UNL     1       1.638   8.264  19.880  0.00  0.00    +0.000 A 
ATOM     19  C   UNL     1       2.215   8.242  18.629  0.00  0.00    +0.000 A 
ATOM     20  N   UNL     1       1.772   9.328  17.930  0.00  0.00    +0.000 N 
ATOM     21  C   UNL     1       0.897  10.065  18.705  0.00  0.00    +0.000 A 
ATOM     22  C   UNL     1       0.188  11.230  18.407  0.00  0.00    +0.000 A 
ATOM     23  C   UNL     1      -0.644  11.762  19.402  0.00  0.00    +0.000 A 
ATOM     24  C   UNL     1      -0.758  11.152  20.659  0.00  0.00    +0.000 A 
ATOM     25  C   UNL     1      -0.028   9.982  20.930  0.00  0.00    +0.000 A 
ATOM     26  C   UNL     1       0.807   9.426  19.937  0.00  0.00    +0.000 A 
ATOM     27  H   UNL     1       2.029   9.560  16.984  0.00  0.00    +0.000 HD
BRANCH  24  28
ATOM     28  N   UNL     1      -1.610  11.700  21.657  0.00  0.00    +0.000 N 
ATOM     29  C   UNL     1      -2.582  12.660  21.513  0.00  0.00    +0.000 A 
ATOM     30  N   UNL     1      -3.172  12.900  22.661  0.00  0.00    +0.000 NA
ATOM     31  N   UNL     1      -2.586  12.094  23.601  0.00  0.00    +0.000 NA
ATOM     32  C   UNL     1      -1.658  11.389  22.994  0.00  0.00    +0.000 A 
ENDBRANCH  24  28
ENDBRANCH  17  18
ENDBRANCH   1  17
TORSDOF 9
ENDMDL
MODEL 8
REMARK VINA RESULT:      -7.6      1.384      1.907
REMARK  Name = 
REMARK  12 active torsions:
REMARK  status: ('A' for Active; 'I' for Inactive)
REMARK    1  A    between atoms: C_1  and  C_2
REMARK    2  A    between atoms: C_2  and  C_3
REMARK    3  A    between atoms: C_4  and  C_5
REMARK    4  A    between atoms: C_5  and  C_6
REMARK    5  A    between atoms: C_6  and  N_7
REMARK    6  A    between atoms: N_7  and  C_8
REMARK    7  A    between atoms: N_7  and  C_9
REMARK    8  A    between atoms: N_12  and  C_13
REMARK    9  A    between atoms: C_13  and  C_14
REMARK   10  A    between atoms: C_14  and  C_15
REMARK   11  A    between atoms: C_15  and  C_16
REMARK   12  A    between atoms: C_22  and  N_23
REMARK                            x       y       z     vdW  Elec       q    Type
REMARK                         _______ _______ _______ _____ _____    ______ ____
ROOT
ATOM      1  C   UNL     1       0.701  10.036  19.483  0.00  0.00    +0.000 C 
ENDROOT
BRANCH   1   2
ATOM      2  C   UNL     1       1.389  11.298  20.010  0.00  0.00    +0.000 C 
BRANCH   2   6
ATOM      3  C   UNL     1      -1.482  13.027  22.766  0.00  0.00    +0.000 C 
ATOM      4  C   UNL     1      -0.194  13.772  22.400  0.00  0.00    +0.000 C 
ATOM      5  C   UNL     1       0.452  13.229  21.139  0.00  0.00    +0.000 C 
ATOM      6  N   UNL     1       0.801  11.810  21.263  0.00  0.00    +0.000 NA
ATOM      7  C   UNL     1      -0.338  10.969  21.660  0.00  0.00    +0.000 C 
ATOM      8  C   UNL     1      -1.151  11.519  22.838  0.00  0.00    +0.000 C 
BRANCH   3   9
ATOM      9  N   UNL     1      -2.706  13.385  22.004  0.00  0.00    +0.000 NA
ATOM     10  C   UNL     1      -3.910  12.610  22.276  0.00  0.00    +0.000 C 
BRANCH   9  11
ATOM     11  C   UNL     1      -2.442  13.459  20.545  0.00  0.00    +0.000 C 
BRANCH  11  12
ATOM     12  C   UNL     1      -3.280  12.470  19.720  0.00  0.00    +0.000 C 
BRANCH  12  16
ATOM     13  C   UNL     1      -2.025   9.975  17.009  0.00  0.00    +0.000 C 
ATOM     14  C   UNL     1      -2.955  10.803  17.848  0.00  0.00    +0.000 C 
ATOM     15  C   UNL     1      -4.433  10.598  17.653  0.00  0.00    +0.000 C 
ATOM     16  C   UNL     1      -2.462  11.670  18.747  0.00  0.00    +0.000 C 
ENDBRANCH  12  16
ENDBRANCH  11  12
ENDBRANCH   9  11
ENDBRANCH   3   9
ENDBRANCH   2   6
ENDBRANCH   1   2
BRANCH   1  17
ATOM     17  C   UNL     1       1.651   9.177  18.645  0.00  0.00    +0.000 C 
BRANCH  17  18
ATOM     18  C   UNL     1       1.987   7.903  19.342  0.00  0.00    +0.000 A 
ATOM     19  C   UNL     1       1.391   7.417  20.486  0.00  0.00    +0.000 A 
ATOM     20  N   UNL     1       1.955   6.210  20.786  0.00  0.00    +0.000 N 
ATOM     21  C   UNL     1       2.913   5.887  19.845  0.00  0.00    +0.000 A 
ATOM     22  C   UNL     1       3.725   4.757  19.732  0.00  0.00    +0.000 A 
ATOM     23  C   UNL     1       4.618   4.697  18.653  0.00  0.00    +0.000 A 
ATOM     24  C   UNL     1       4.702   5.739  17.718  0.00  0.00    +0.000 A 
ATOM     25  C   UNL     1       3.875   6.866  17.861  0.00  0.00    +0.000 A 
ATOM     26  C   UNL     1       2.962   6.940  18.936  0.00  0.00    +0.000 A 
ATOM     27  H   UNL     1       1.708   5.627  21.570  0.00  0.00    +0.000 HD
BRANCH  24  28
ATOM     28  N   UNL     1       5.608   5.663  16.625  0.00  0.00    +0.000 N 
ATOM     29  C   UNL     1       6.980   5.718  16.653  0.00  0.00    +0.000 A 
ATOM     30  N   UNL     1       7.475   5.601  15.442  0.00  0.00    +0.000 NA
ATOM     31  N   UNL     1       6.420   5.471  14.578  0.00  0.00    +0.000 NA
ATOM     32  C   UNL     1       5.317   5.513  15.291  0.00  0.00    +0.000 A 
ENDBRANCH  24  28
ENDBRANCH  17  18
ENDBRANCH   1  17
TORSDOF 9
ENDMDL
MODEL 9
REMARK VINA RESULT:      -7.6      6.541     10.078
REMARK  Name = 
REMARK  12 active torsions:
REMARK  status: ('A' for Active; 'I' for Inactive)
REMARK    1  A    between atoms: C_1  and  C_2
REMARK    2  A    between atoms: C_2  and  C_3
REMARK    3  A    between atoms: C_4  and  C_5
REMARK    4  A    between atoms: C_5  and  C_6
REMARK    5  A    between atoms: C_6  and  N_7
REMARK    6  A    between atoms: N_7  and  C_8
REMARK    7  A    between atoms: N_7  and  C_9
REMARK    8  A    between atoms: N_12  and  C_13
REMARK    9  A    between atoms: C_13  and  C_14
REMARK   10  A    between atoms: C_14  and  C_15
REMARK   11  A    between atoms: C_15  and  C_16
REMARK   12  A    between atoms: C_22  and  N_23
REMARK                            x       y       z     vdW  Elec       q    Type
REMARK                         _______ _______ _______ _____ _____    ______ ____
ROOT
ATOM      1  C   UNL     1       8.717   9.096  18.485  0.00  0.00    +0.000 C 
ENDROOT
BRANCH   1   2
ATOM      2  C   UNL     1       7.467   8.692  17.700  0.00  0.00    +0.000 C 
BRANCH   2   6
ATOM      3  C   UNL     1       6.349   4.501  17.615  0.00  0.00    +0.000 C 
ATOM      4  C   UNL     1       7.736   4.936  18.099  0.00  0.00    +0.000 C 
ATOM      5  C   UNL     1       7.790   6.410  18.455  0.00  0.00    +0.000 C 
ATOM      6  N   UNL     1       7.447   7.267  17.315  0.00  0.00    +0.000 NA
ATOM      7  C   UNL     1       6.149   6.932  16.712  0.00  0.00    +0.000 C 
ATOM      8  C   UNL     1       5.938   5.435  16.455  0.00  0.00    +0.000 C 
BRANCH   3   9
ATOM      9  N   UNL     1       5.315   4.270  18.657  0.00  0.00    +0.000 NA
ATOM     10  C   UNL     1       4.202   3.397  18.309  0.00  0.00    +0.000 C 
BRANCH   9  11
ATOM     11  C   UNL     1       4.826   5.547  19.236  0.00  0.00    +0.000 C 
BRANCH  11  12
ATOM     12  C   UNL     1       3.305   5.732  19.111  0.00  0.00    +0.000 C 
BRANCH  12  16
ATOM     13  C   UNL     1       1.769   9.069  17.822  0.00  0.00    +0.000 C 
ATOM     14  C   UNL     1       2.185   7.971  18.758  0.00  0.00    +0.000 C 
ATOM     15  C   UNL     1       1.721   8.065  20.187  0.00  0.00    +0.000 C 
ATOM     16  C   UNL     1       2.922   6.943  18.308  0.00  0.00    +0.000 C 
ENDBRANCH  12  16
ENDBRANCH  11  12
ENDBRANCH   9  11
ENDBRANCH   3   9
ENDBRANCH   2   6
ENDBRANCH   1   2
BRANCH   1  17
ATOM     17  C   UNL     1       9.052  10.577  18.300  0.00  0.00    +0.000 C 
BRANCH  17  18
ATOM     18  C   UNL     1       9.249  11.256  19.613  0.00  0.00    +0.000 A 
ATOM     19  C   UNL     1       9.183  10.663  20.857  0.00  0.00    +0.000 A 
ATOM     20  N   UNL     1       9.454  11.612  21.801  0.00  0.00    +0.000 N 
ATOM     21  C   UNL     1       9.709  12.826  21.194  0.00  0.00    +0.000 A 
ATOM     22  C   UNL     1      10.048  14.061  21.749  0.00  0.00    +0.000 A 
ATOM     23  C   UNL     1      10.257  15.137  20.875  0.00  0.00    +0.000 A 
ATOM     24  C   UNL     1      10.125  14.985  19.488  0.00  0.00    +0.000 A 
ATOM     25  C   UNL     1       9.778  13.730  18.959  0.00  0.00    +0.000 A 
ATOM     26  C   UNL     1       9.573  12.632  19.822  0.00  0.00    +0.000 A 
ATOM     27  H   UNL     1       9.478  11.456  22.796  0.00  0.00    +0.000 HD
BRANCH  24  28
ATOM     28  N   UNL     1      10.345  16.084  18.613  0.00  0.00    +0.000 N 
ATOM     29  C   UNL     1      10.467  17.414  18.932  0.00  0.00    +0.000 A 
ATOM     30  N   UNL     1      10.678  18.133  17.853  0.00  0.00    +0.000 NA
ATOM     31  N   UNL     1      10.693  17.277  16.784  0.00  0.00    +0.000 NA
ATOM     32  C   UNL     1      10.491  16.063  17.247  0.00  0.00    +0.000 A 
ENDBRANCH  24  28
ENDBRANCH  17  18
ENDBRANCH   1  17
TORSDOF 9
ENDMDL
