MODEL 1
REMARK VINA RESULT:      -7.2      0.000      0.000
REMARK  Name = 
REMARK  8 active torsions:
REMARK  status: ('A' for Active; 'I' for Inactive)
REMARK    1  A    between atoms: C_1  and  C_2
REMARK    2  A    between atoms: C_2  and  C_3
REMARK    3  A    between atoms: C_2  and  C_4
REMARK    4  A    between atoms: C_2  and  C_5
REMARK    5  A    between atoms: C_7  and  N_8
REMARK    6  A    between atoms: N_11  and  C_12
REMARK    7  A    between atoms: N_19  and  C_20
REMARK    8  A    between atoms: C_23  and  C_24
REMARK                            x       y       z     vdW  Elec       q    Type
REMARK                         _______ _______ _______ _____ _____    ______ ____
ROOT
ATOM      1  C   UNL     1      -1.711  12.655  22.077  0.00  0.00    +0.000 A 
ATOM      2  C   UNL     1      -1.180  11.356  22.257  0.00  0.00    +0.000 A 
ATOM      3  C   UNL     1       0.103  11.409  21.771  0.00  0.00    +0.000 A 
ATOM      4  N   UNL     1       0.275  12.691  21.275  0.00  0.00    +0.000 N 
ATOM      5  N   UNL     1      -0.785  13.487  21.574  0.00  0.00    +0.000 NA
ENDROOT
BRANCH   3   6
ATOM      6  N   UNL     1       1.026  10.362  21.803  0.00  0.00    +0.000 N 
ATOM      7  C   UNL     1       0.857   9.279  20.896  0.00  0.00    +0.000 C 
ATOM      8  O   UNL     1      -0.054   9.311  20.088  0.00  0.00    +0.000 OA
ATOM      9  N   UNL     1       1.838   8.341  21.043  0.00  0.00    +0.000 N 
ATOM     10  H   UNL     1       1.896  10.498  22.297  0.00  0.00    +0.000 HD
ATOM     11  H   UNL     1       2.339   8.291  21.922  0.00  0.00    +0.000 HD
BRANCH   9  12
ATOM     12  C   UNL     1       1.985   7.251  20.154  0.00  0.00    +0.000 A 
ATOM     13  C   UNL     1       1.707   5.931  20.535  0.00  0.00    +0.000 A 
ATOM     14  C   UNL     1       1.951   4.868  19.665  0.00  0.00    +0.000 A 
ATOM     15  C   UNL     1       2.455   5.122  18.396  0.00  0.00    +0.000 A 
ATOM     16 CL   UNL     1       2.814   3.811  17.346  0.00  0.00    +0.000 Cl
ATOM     17  C   UNL     1       2.677   6.434  17.981  0.00  0.00    +0.000 A 
ATOM     18  C   UNL     1       2.428   7.502  18.852  0.00  0.00    +0.000 A 
ENDBRANCH   9  12
ENDBRANCH   3   6
BRANCH   4  19
ATOM     19  C   UNL     1       1.364  13.164  20.492  0.00  0.00    +0.000 A 
ATOM     20  C   UNL     1       2.343  13.996  21.058  0.00  0.00    +0.000 A 
ATOM     21  C   UNL     1       3.377  14.504  20.272  0.00  0.00    +0.000 A 
ATOM     22  C   UNL     1       3.452  14.189  18.908  0.00  0.00    +0.000 A 
ATOM     23  C   UNL     1       2.496  13.317  18.360  0.00  0.00    +0.000 A 
ATOM     24  C   UNL     1       1.469  12.790  19.149  0.00  0.00    +0.000 A 
BRANCH  22  25
ATOM     25  C   UNL     1       4.540  14.775  18.037  0.00  0.00    +0.000 C 
ATOM     26  F   UNL     1       4.060  15.390  16.920  0.00  0.00    +0.000 F 
ATOM     27  F   UNL     1       5.291  15.703  18.687  0.00  0.00    +0.000 F 
ATOM     28  F   UNL     1       5.406  13.824  17.592  0.00  0.00    +0.000 F 
ENDBRANCH  22  25
ENDBRANCH   4  19
BRANCH   1  30
ATOM     29  C   UNL     1      -3.155  14.640  22.580  0.00  0.00    +0.000 C 
ATOM     30  C   UNL     1      -3.123  13.106  22.430  0.00  0.00    +0.000 C 
ATOM     31  C   UNL     1      -3.561  12.473  23.771  0.00  0.00    +0.000 C 
ATOM     32  C   UNL     1      -4.156  12.699  21.361  0.00  0.00    +0.000 C 
ENDBRANCH   1  30
TORSDOF 5
ENDMDL
MODEL 2
REMARK VINA RESULT:      -7.2      0.160      1.127
REMARK  Name = 
REMARK  8 active torsions:
REMARK  status: ('A' for Active; 'I' for Inactive)
REMARK    1  A    between atoms: C_1  and  C_2
REMARK    2  A    between atoms: C_2  and  C_3
REMARK    3  A    between atoms: C_2  and  C_4
REMARK    4  A    between atoms: C_2  and  C_5
REMARK    5  A    between atoms: C_7  and  N_8
REMARK    6  A    between atoms: N_11  and  C_12
REMARK    7  A    between atoms: N_19  and  C_20
REMARK    8  A    between atoms: C_23  and  C_24
REMARK                            x       y       z     vdW  Elec       q    Type
REMARK                         _______ _______ _______ _____ _____    ______ ____
ROOT
ATOM      1  C   UNL     1      -1.793  12.709  21.971  0.00  0.00    +0.000 A 
ATOM      2  C   UNL     1      -1.269  11.414  22.189  0.00  0.00    +0.000 A 
ATOM      3  C   UNL     1       0.025  11.454  21.731  0.00  0.00    +0.000 A 
ATOM      4  N   UNL     1       0.211  12.726  21.213  0.00  0.00    +0.000 N 
ATOM      5  N   UNL     1      -0.854  13.529  21.472  0.00  0.00    +0.000 NA
ENDROOT
BRANCH   3   6
ATOM      6  N   UNL     1       0.945  10.407  21.805  0.00  0.00    +0.000 N 
ATOM      7  C   UNL     1       0.829   9.334  20.878  0.00  0.00    +0.000 C 
ATOM      8  O   UNL     1      -0.033   9.376  20.018  0.00  0.00    +0.000 OA
ATOM      9  N   UNL     1       1.800   8.394  21.072  0.00  0.00    +0.000 N 
ATOM     10  H   UNL     1       1.784  10.537  22.351  0.00  0.00    +0.000 HD
ATOM     11  H   UNL     1       2.249   8.334  21.977  0.00  0.00    +0.000 HD
BRANCH   9  12
ATOM     12  C   UNL     1       2.000   7.314  20.180  0.00  0.00    +0.000 A 
ATOM     13  C   UNL     1       2.440   7.501  18.862  0.00  0.00    +0.000 A 
ATOM     14  C   UNL     1       2.537   6.425  17.980  0.00  0.00    +0.000 A 
ATOM     15  C   UNL     1       2.216   5.148  18.419  0.00  0.00    +0.000 A 
ATOM     16 CL   UNL     1       2.276   3.831  17.317  0.00  0.00    +0.000 Cl
ATOM     17  C   UNL     1       1.838   4.937  19.744  0.00  0.00    +0.000 A 
ATOM     18  C   UNL     1       1.745   6.015  20.631  0.00  0.00    +0.000 A 
ENDBRANCH   9  12
ENDBRANCH   3   6
BRANCH   4  19
ATOM     19  C   UNL     1       1.319  13.182  20.447  0.00  0.00    +0.000 A 
ATOM     20  C   UNL     1       2.367  13.888  21.056  0.00  0.00    +0.000 A 
ATOM     21  C   UNL     1       3.423  14.382  20.290  0.00  0.00    +0.000 A 
ATOM     22  C   UNL     1       3.450  14.179  18.903  0.00  0.00    +0.000 A 
ATOM     23  C   UNL     1       2.420  13.430  18.307  0.00  0.00    +0.000 A 
ATOM     24  C   UNL     1       1.370  12.915  19.075  0.00  0.00    +0.000 A 
BRANCH  22  25
ATOM     25  C   UNL     1       4.563  14.754  18.057  0.00  0.00    +0.000 C 
ATOM     26  F   UNL     1       5.442  13.812  17.615  0.00  0.00    +0.000 F 
ATOM     27  F   UNL     1       4.104  15.393  16.949  0.00  0.00    +0.000 F 
ATOM     28  F   UNL     1       5.309  15.663  18.743  0.00  0.00    +0.000 F 
ENDBRANCH  22  25
ENDBRANCH   4  19
BRANCH   1  30
ATOM     29  C   UNL     1      -3.245  14.707  22.398  0.00  0.00    +0.000 C 
ATOM     30  C   UNL     1      -3.212  13.169  22.282  0.00  0.00    +0.000 C 
ATOM     31  C   UNL     1      -3.681  12.567  23.627  0.00  0.00    +0.000 C 
ATOM     32  C   UNL     1      -4.221  12.741  21.199  0.00  0.00    +0.000 C 
ENDBRANCH   1  30
TORSDOF 5
ENDMDL
MODEL 3
REMARK VINA RESULT:      -7.0      4.287      7.208
REMARK  Name = 
REMARK  8 active torsions:
REMARK  status: ('A' for Active; 'I' for Inactive)
REMARK    1  A    between atoms: C_1  and  C_2
REMARK    2  A    between atoms: C_2  and  C_3
REMARK    3  A    between atoms: C_2  and  C_4
REMARK    4  A    between atoms: C_2  and  C_5
REMARK    5  A    between atoms: C_7  and  N_8
REMARK    6  A    between atoms: N_11  and  C_12
REMARK    7  A    between atoms: N_19  and  C_20
REMARK    8  A    between atoms: C_23  and  C_24
REMARK                            x       y       z     vdW  Elec       q    Type
REMARK                         _______ _______ _______ _____ _____    ______ ____
ROOT
ATOM      1  C   UNL     1      -0.673  12.082  21.169  0.00  0.00    +0.000 A 
ATOM      2  C   UNL     1       0.107  12.984  20.408  0.00  0.00    +0.000 A 
ATOM      3  C   UNL     1       0.869  12.204  19.573  0.00  0.00    +0.000 A 
ATOM      4  N   UNL     1       0.570  10.889  19.894  0.00  0.00    +0.000 N 
ATOM      5  N   UNL     1      -0.460  10.815  20.777  0.00  0.00    +0.000 NA
ENDROOT
BRANCH   3   6
ATOM      6  N   UNL     1       1.747  12.679  18.597  0.00  0.00    +0.000 N 
ATOM      7  C   UNL     1       2.738  13.626  18.976  0.00  0.00    +0.000 C 
ATOM      8  O   UNL     1       2.827  13.964  20.143  0.00  0.00    +0.000 OA
ATOM      9  N   UNL     1       3.520  13.987  17.918  0.00  0.00    +0.000 N 
ATOM     10  H   UNL     1       1.805  12.186  17.717  0.00  0.00    +0.000 HD
ATOM     11  H   UNL     1       3.159  13.868  16.980  0.00  0.00    +0.000 HD
BRANCH   9  12
ATOM     12  C   UNL     1       4.674  14.791  18.067  0.00  0.00    +0.000 A 
ATOM     13  C   UNL     1       5.964  14.305  17.810  0.00  0.00    +0.000 A 
ATOM     14  C   UNL     1       7.089  15.093  18.056  0.00  0.00    +0.000 A 
ATOM     15  C   UNL     1       6.929  16.385  18.540  0.00  0.00    +0.000 A 
ATOM     16 CL   UNL     1       8.313  17.335  18.901  0.00  0.00    +0.000 Cl
ATOM     17  C   UNL     1       5.650  16.904  18.740  0.00  0.00    +0.000 A 
ATOM     18  C   UNL     1       4.521  16.115  18.489  0.00  0.00    +0.000 A 
ENDBRANCH   9  12
ENDBRANCH   3   6
BRANCH   4  19
ATOM     19  C   UNL     1       1.251   9.725  19.444  0.00  0.00    +0.000 A 
ATOM     20  C   UNL     1       1.727   9.641  18.126  0.00  0.00    +0.000 A 
ATOM     21  C   UNL     1       2.344   8.474  17.673  0.00  0.00    +0.000 A 
ATOM     22  C   UNL     1       2.496   7.374  18.527  0.00  0.00    +0.000 A 
ATOM     23  C   UNL     1       2.058   7.483  19.859  0.00  0.00    +0.000 A 
ATOM     24  C   UNL     1       1.458   8.659  20.323  0.00  0.00    +0.000 A 
BRANCH  22  25
ATOM     25  C   UNL     1       3.117   6.088  18.031  0.00  0.00    +0.000 C 
ATOM     26  F   UNL     1       2.196   5.171  17.620  0.00  0.00    +0.000 F 
ATOM     27  F   UNL     1       3.955   6.281  16.978  0.00  0.00    +0.000 F 
ATOM     28  F   UNL     1       3.850   5.468  18.996  0.00  0.00    +0.000 F 
ENDBRANCH  22  25
ENDBRANCH   4  19
BRANCH   1  30
ATOM     29  C   UNL     1      -1.161  13.703  23.016  0.00  0.00    +0.000 C 
ATOM     30  C   UNL     1      -1.663  12.453  22.266  0.00  0.00    +0.000 C 
ATOM     31  C   UNL     1      -1.789  11.292  23.279  0.00  0.00    +0.000 C 
ATOM     32  C   UNL     1      -3.071  12.749  21.714  0.00  0.00    +0.000 C 
ENDBRANCH   1  30
TORSDOF 5
ENDMDL
MODEL 4
REMARK VINA RESULT:      -7.0      4.284      7.183
REMARK  Name = 
REMARK  8 active torsions:
REMARK  status: ('A' for Active; 'I' for Inactive)
REMARK    1  A    between atoms: C_1  and  C_2
REMARK    2  A    between atoms: C_2  and  C_3
REMARK    3  A    between atoms: C_2  and  C_4
REMARK    4  A    between atoms: C_2  and  C_5
REMARK    5  A    between atoms: C_7  and  N_8
REMARK    6  A    between atoms: N_11  and  C_12
REMARK    7  A    between atoms: N_19  and  C_20
REMARK    8  A    between atoms: C_23  and  C_24
REMARK                            x       y       z     vdW  Elec       q    Type
REMARK                         _______ _______ _______ _____ _____    ______ ____
ROOT
ATOM      1  C   UNL     1      -1.389  12.556  20.264  0.00  0.00    +0.000 A 
ATOM      2  C   UNL     1      -0.506  13.405  19.556  0.00  0.00    +0.000 A 
ATOM      3  C   UNL     1       0.413  12.575  18.963  0.00  0.00    +0.000 A 
ATOM      4  N   UNL     1       0.093  11.290  19.373  0.00  0.00    +0.000 N 
ATOM      5  N   UNL     1      -1.078  11.265  20.063  0.00  0.00    +0.000 NA
ENDROOT
BRANCH   3   6
ATOM      6  N   UNL     1       1.441  12.979  18.110  0.00  0.00    +0.000 N 
ATOM      7  C   UNL     1       2.426  13.875  18.611  0.00  0.00    +0.000 C 
ATOM      8  O   UNL     1       2.377  14.230  19.776  0.00  0.00    +0.000 OA
ATOM      9  N   UNL     1       3.364  14.172  17.665  0.00  0.00    +0.000 N 
ATOM     10  H   UNL     1       1.589  12.468  17.252  0.00  0.00    +0.000 HD
ATOM     11  H   UNL     1       3.127  14.056  16.688  0.00  0.00    +0.000 HD
BRANCH   9  12
ATOM     12  C   UNL     1       4.534  14.911  17.961  0.00  0.00    +0.000 A 
ATOM     13  C   UNL     1       5.819  14.367  17.826  0.00  0.00    +0.000 A 
ATOM     14  C   UNL     1       6.947  15.089  18.215  0.00  0.00    +0.000 A 
ATOM     15  C   UNL     1       6.798  16.373  18.721  0.00  0.00    +0.000 A 
ATOM     16 CL   UNL     1       8.180  17.241  19.257  0.00  0.00    +0.000 Cl
ATOM     17  C   UNL     1       5.532  16.952  18.802  0.00  0.00    +0.000 A 
ATOM     18  C   UNL     1       4.400  16.229  18.408  0.00  0.00    +0.000 A 
ENDBRANCH   9  12
ENDBRANCH   3   6
BRANCH   4  19
ATOM     19  C   UNL     1       0.872  10.115  19.186  0.00  0.00    +0.000 A 
ATOM     20  C   UNL     1       1.453   9.835  17.940  0.00  0.00    +0.000 A 
ATOM     21  C   UNL     1       2.169   8.653  17.747  0.00  0.00    +0.000 A 
ATOM     22  C   UNL     1       2.316   7.732  18.793  0.00  0.00    +0.000 A 
ATOM     23  C   UNL     1       1.771   8.043  20.051  0.00  0.00    +0.000 A 
ATOM     24  C   UNL     1       1.071   9.237  20.255  0.00  0.00    +0.000 A 
BRANCH  22  25
ATOM     25  C   UNL     1       3.046   6.426  18.579  0.00  0.00    +0.000 C 
ATOM     26  F   UNL     1       2.234   5.423  18.142  0.00  0.00    +0.000 F 
ATOM     27  F   UNL     1       4.048   6.527  17.665  0.00  0.00    +0.000 F 
ATOM     28  F   UNL     1       3.618   5.966  19.725  0.00  0.00    +0.000 F 
ENDBRANCH  22  25
ENDBRANCH   4  19
BRANCH   1  30
ATOM     29  C   UNL     1      -3.887  12.714  20.370  0.00  0.00    +0.000 C 
ATOM     30  C   UNL     1      -2.570  12.999  21.119  0.00  0.00    +0.000 C 
ATOM     31  C   UNL     1      -2.482  14.518  21.396  0.00  0.00    +0.000 C 
ATOM     32  C   UNL     1      -2.617  12.277  22.479  0.00  0.00    +0.000 C 
ENDBRANCH   1  30
TORSDOF 5
ENDMDL
MODEL 5
REMARK VINA RESULT:      -7.0      4.331      7.228
REMARK  Name = 
REMARK  8 active torsions:
REMARK  status: ('A' for Active; 'I' for Inactive)
REMARK    1  A    between atoms: C_1  and  C_2
REMARK    2  A    between atoms: C_2  and  C_3
REMARK    3  A    between atoms: C_2  and  C_4
REMARK    4  A    between atoms: C_2  and  C_5
REMARK    5  A    between atoms: C_7  and  N_8
REMARK    6  A    between atoms: N_11  and  C_12
REMARK    7  A    between atoms: N_19  and  C_20
REMARK    8  A    between atoms: C_23  and  C_24
REMARK                            x       y       z     vdW  Elec       q    Type
REMARK                         _______ _______ _______ _____ _____    ______ ____
ROOT
ATOM      1  C   UNL     1      -1.343  12.563  20.051  0.00  0.00    +0.000 A 
ATOM      2  C   UNL     1      -0.422  13.390  19.367  0.00  0.00    +0.000 A 
ATOM      3  C   UNL     1       0.508  12.540  18.823  0.00  0.00    +0.000 A 
ATOM      4  N   UNL     1       0.155  11.265  19.237  0.00  0.00    +0.000 N 
ATOM      5  N   UNL     1      -1.042  11.265  19.880  0.00  0.00    +0.000 NA
ENDROOT
BRANCH   3   6
ATOM      6  N   UNL     1       1.574  12.919  18.005  0.00  0.00    +0.000 N 
ATOM      7  C   UNL     1       2.524  13.848  18.515  0.00  0.00    +0.000 C 
ATOM      8  O   UNL     1       2.412  14.251  19.660  0.00  0.00    +0.000 OA
ATOM      9  N   UNL     1       3.506  14.114  17.605  0.00  0.00    +0.000 N 
ATOM     10  H   UNL     1       1.770  12.373  17.179  0.00  0.00    +0.000 HD
ATOM     11  H   UNL     1       3.320  13.953  16.624  0.00  0.00    +0.000 HD
BRANCH   9  12
ATOM     12  C   UNL     1       4.652  14.878  17.927  0.00  0.00    +0.000 A 
ATOM     13  C   UNL     1       5.953  14.373  17.792  0.00  0.00    +0.000 A 
ATOM     14  C   UNL     1       7.057  15.118  18.206  0.00  0.00    +0.000 A 
ATOM     15  C   UNL     1       6.868  16.387  18.738  0.00  0.00    +0.000 A 
ATOM     16 CL   UNL     1       8.221  17.280  19.304  0.00  0.00    +0.000 Cl
ATOM     17  C   UNL     1       5.586  16.928  18.820  0.00  0.00    +0.000 A 
ATOM     18  C   UNL     1       4.477  16.183  18.400  0.00  0.00    +0.000 A 
ENDBRANCH   9  12
ENDBRANCH   3   6
BRANCH   4  19
ATOM     19  C   UNL     1       0.925  10.078  19.097  0.00  0.00    +0.000 A 
ATOM     20  C   UNL     1       1.565   9.781  17.884  0.00  0.00    +0.000 A 
ATOM     21  C   UNL     1       2.272   8.588  17.734  0.00  0.00    +0.000 A 
ATOM     22  C   UNL     1       2.352   7.672  18.791  0.00  0.00    +0.000 A 
ATOM     23  C   UNL     1       1.748   7.998  20.018  0.00  0.00    +0.000 A 
ATOM     24  C   UNL     1       1.056   9.203  20.179  0.00  0.00    +0.000 A 
BRANCH  22  25
ATOM     25  C   UNL     1       3.072   6.354  18.622  0.00  0.00    +0.000 C 
ATOM     26  F   UNL     1       3.927   6.342  17.561  0.00  0.00    +0.000 F 
ATOM     27  F   UNL     1       3.815   6.017  19.710  0.00  0.00    +0.000 F 
ATOM     28  F   UNL     1       2.209   5.322  18.413  0.00  0.00    +0.000 F 
ENDBRANCH  22  25
ENDBRANCH   4  19
BRANCH   1  30
ATOM     29  C   UNL     1      -2.544  12.362  22.241  0.00  0.00    +0.000 C 
ATOM     30  C   UNL     1      -2.551  13.032  20.853  0.00  0.00    +0.000 C 
ATOM     31  C   UNL     1      -3.856  12.636  20.124  0.00  0.00    +0.000 C 
ATOM     32  C   UNL     1      -2.570  14.560  21.050  0.00  0.00    +0.000 C 
ENDBRANCH   1  30
TORSDOF 5
ENDMDL
MODEL 6
REMARK VINA RESULT:      -7.0      4.254      7.103
REMARK  Name = 
REMARK  8 active torsions:
REMARK  status: ('A' for Active; 'I' for Inactive)
REMARK    1  A    between atoms: C_1  and  C_2
REMARK    2  A    between atoms: C_2  and  C_3
REMARK    3  A    between atoms: C_2  and  C_4
REMARK    4  A    between atoms: C_2  and  C_5
REMARK    5  A    between atoms: C_7  and  N_8
REMARK    6  A    between atoms: N_11  and  C_12
REMARK    7  A    between atoms: N_19  and  C_20
REMARK    8  A    between atoms: C_23  and  C_24
REMARK                            x       y       z     vdW  Elec       q    Type
REMARK                         _______ _______ _______ _____ _____    ______ ____
ROOT
ATOM      1  C   UNL     1      -1.586  12.626  20.199  0.00  0.00    +0.000 A 
ATOM      2  C   UNL     1      -0.708  13.478  19.489  0.00  0.00    +0.000 A 
ATOM      3  C   UNL     1       0.231  12.654  18.920  0.00  0.00    +0.000 A 
ATOM      4  N   UNL     1      -0.075  11.370  19.345  0.00  0.00    +0.000 N 
ATOM      5  N   UNL     1      -1.253  11.338  20.021  0.00  0.00    +0.000 NA
ENDROOT
BRANCH   3   6
ATOM      6  N   UNL     1       1.263  13.062  18.074  0.00  0.00    +0.000 N 
ATOM      7  C   UNL     1       2.276  13.912  18.598  0.00  0.00    +0.000 C 
ATOM      8  O   UNL     1       2.246  14.224  19.776  0.00  0.00    +0.000 OA
ATOM      9  N   UNL     1       3.215  14.218  17.656  0.00  0.00    +0.000 N 
ATOM     10  H   UNL     1       1.390  12.579  17.196  0.00  0.00    +0.000 HD
ATOM     11  H   UNL     1       2.967  14.145  16.677  0.00  0.00    +0.000 HD
BRANCH   9  12
ATOM     12  C   UNL     1       4.406  14.913  17.969  0.00  0.00    +0.000 A 
ATOM     13  C   UNL     1       5.669  14.309  17.894  0.00  0.00    +0.000 A 
ATOM     14  C   UNL     1       6.816  14.992  18.299  0.00  0.00    +0.000 A 
ATOM     15  C   UNL     1       6.709  16.297  18.760  0.00  0.00    +0.000 A 
ATOM     16 CL   UNL     1       8.111  17.119  19.317  0.00  0.00    +0.000 Cl
ATOM     17  C   UNL     1       5.468  16.934  18.781  0.00  0.00    +0.000 A 
ATOM     18  C   UNL     1       4.318  16.250  18.371  0.00  0.00    +0.000 A 
ENDBRANCH   9  12
ENDBRANCH   3   6
BRANCH   4  19
ATOM     19  C   UNL     1       0.725  10.206  19.185  0.00  0.00    +0.000 A 
ATOM     20  C   UNL     1       1.242   9.862  17.926  0.00  0.00    +0.000 A 
ATOM     21  C   UNL     1       1.978   8.687  17.764  0.00  0.00    +0.000 A 
ATOM     22  C   UNL     1       2.210   7.838  18.854  0.00  0.00    +0.000 A 
ATOM     23  C   UNL     1       1.729   8.214  20.120  0.00  0.00    +0.000 A 
ATOM     24  C   UNL     1       1.008   9.401  20.292  0.00  0.00    +0.000 A 
BRANCH  22  25
ATOM     25  C   UNL     1       2.962   6.539  18.678  0.00  0.00    +0.000 C 
ATOM     26  F   UNL     1       3.329   5.967  19.859  0.00  0.00    +0.000 F 
ATOM     27  F   UNL     1       2.240   5.600  18.011  0.00  0.00    +0.000 F 
ATOM     28  F   UNL     1       4.115   6.707  17.975  0.00  0.00    +0.000 F 
ENDBRANCH  22  25
ENDBRANCH   4  19
BRANCH   1  30
ATOM     29  C   UNL     1      -2.731  14.588  21.258  0.00  0.00    +0.000 C 
ATOM     30  C   UNL     1      -2.784  13.063  21.033  0.00  0.00    +0.000 C 
ATOM     31  C   UNL     1      -2.753  12.363  22.411  0.00  0.00    +0.000 C 
ATOM     32  C   UNL     1      -4.127  12.717  20.362  0.00  0.00    +0.000 C 
ENDBRANCH   1  30
TORSDOF 5
ENDMDL
MODEL 7
REMARK VINA RESULT:      -7.0      4.316      7.167
REMARK  Name = 
REMARK  8 active torsions:
REMARK  status: ('A' for Active; 'I' for Inactive)
REMARK    1  A    between atoms: C_1  and  C_2
REMARK    2  A    between atoms: C_2  and  C_3
REMARK    3  A    between atoms: C_2  and  C_4
REMARK    4  A    between atoms: C_2  and  C_5
REMARK    5  A    between atoms: C_7  and  N_8
REMARK    6  A    between atoms: N_11  and  C_12
REMARK    7  A    between atoms: N_19  and  C_20
REMARK    8  A    between atoms: C_23  and  C_24
REMARK                            x       y       z     vdW  Elec       q    Type
REMARK                         _______ _______ _______ _____ _____    ______ ____
ROOT
ATOM      1  C   UNL     1      -1.493  12.676  20.086  0.00  0.00    +0.000 A 
ATOM      2  C   UNL     1      -0.567  13.505  19.412  0.00  0.00    +0.000 A 
ATOM      3  C   UNL     1       0.371  12.656  18.878  0.00  0.00    +0.000 A 
ATOM      4  N   UNL     1       0.016  11.381  19.288  0.00  0.00    +0.000 N 
ATOM      5  N   UNL     1      -1.188  11.379  19.919  0.00  0.00    +0.000 NA
ENDROOT
BRANCH   3   6
ATOM      6  N   UNL     1       1.446  13.038  18.072  0.00  0.00    +0.000 N 
ATOM      7  C   UNL     1       2.413  13.932  18.609  0.00  0.00    +0.000 C 
ATOM      8  O   UNL     1       2.309  14.305  19.764  0.00  0.00    +0.000 OA
ATOM      9  N   UNL     1       3.401  14.204  17.707  0.00  0.00    +0.000 N 
ATOM     10  H   UNL     1       1.631  12.512  17.230  0.00  0.00    +0.000 HD
ATOM     11  H   UNL     1       3.213  14.076  16.721  0.00  0.00    +0.000 HD
BRANCH   9  12
ATOM     12  C   UNL     1       4.562  14.936  18.051  0.00  0.00    +0.000 A 
ATOM     13  C   UNL     1       4.500  16.218  18.616  0.00  0.00    +0.000 A 
ATOM     14  C   UNL     1       5.661  16.952  18.858  0.00  0.00    +0.000 A 
ATOM     15  C   UNL     1       6.898  16.396  18.557  0.00  0.00    +0.000 A 
ATOM     16 CL   UNL     1       8.325  17.321  18.797  0.00  0.00    +0.000 Cl
ATOM     17  C   UNL     1       6.979  15.099  18.054  0.00  0.00    +0.000 A 
ATOM     18  C   UNL     1       5.814  14.360  17.815  0.00  0.00    +0.000 A 
ENDBRANCH   9  12
ENDBRANCH   3   6
BRANCH   4  19
ATOM     19  C   UNL     1       0.790  10.196  19.157  0.00  0.00    +0.000 A 
ATOM     20  C   UNL     1       1.343   9.838  17.918  0.00  0.00    +0.000 A 
ATOM     21  C   UNL     1       2.054   8.644  17.781  0.00  0.00    +0.000 A 
ATOM     22  C   UNL     1       2.224   7.790  18.879  0.00  0.00    +0.000 A 
ATOM     23  C   UNL     1       1.708   8.179  20.127  0.00  0.00    +0.000 A 
ATOM     24  C   UNL     1       1.013   9.384  20.273  0.00  0.00    +0.000 A 
BRANCH  22  25
ATOM     25  C   UNL     1       2.948   6.471  18.730  0.00  0.00    +0.000 C 
ATOM     26  F   UNL     1       4.201   6.603  18.211  0.00  0.00    +0.000 F 
ATOM     27  F   UNL     1       3.095   5.816  19.912  0.00  0.00    +0.000 F 
ATOM     28  F   UNL     1       2.291   5.619  17.897  0.00  0.00    +0.000 F 
ENDBRANCH  22  25
ENDBRANCH   4  19
BRANCH   1  30
ATOM     29  C   UNL     1      -2.672  14.677  21.027  0.00  0.00    +0.000 C 
ATOM     30  C   UNL     1      -2.711  13.143  20.874  0.00  0.00    +0.000 C 
ATOM     31  C   UNL     1      -2.702  12.511  22.285  0.00  0.00    +0.000 C 
ATOM     32  C   UNL     1      -4.038  12.755  20.195  0.00  0.00    +0.000 C 
ENDBRANCH   1  30
TORSDOF 5
ENDMDL
MODEL 8
REMARK VINA RESULT:      -6.9      4.164      6.982
REMARK  Name = 
REMARK  8 active torsions:
REMARK  status: ('A' for Active; 'I' for Inactive)
REMARK    1  A    between atoms: C_1  and  C_2
REMARK    2  A    between atoms: C_2  and  C_3
REMARK    3  A    between atoms: C_2  and  C_4
REMARK    4  A    between atoms: C_2  and  C_5
REMARK    5  A    between atoms: C_7  and  N_8
REMARK    6  A    between atoms: N_11  and  C_12
REMARK    7  A    between atoms: N_19  and  C_20
REMARK    8  A    between atoms: C_23  and  C_24
REMARK                            x       y       z     vdW  Elec       q    Type
REMARK                         _______ _______ _______ _____ _____    ______ ____
ROOT
ATOM      1  C   UNL     1      -1.311  12.434  20.775  0.00  0.00    +0.000 A 
ATOM      2  C   UNL     1      -0.484  13.301  20.023  0.00  0.00    +0.000 A 
ATOM      3  C   UNL     1       0.355  12.485  19.306  0.00  0.00    +0.000 A 
ATOM      4  N   UNL     1       0.049  11.188  19.685  0.00  0.00    +0.000 N 
ATOM      5  N   UNL     1      -1.049  11.150  20.485  0.00  0.00    +0.000 NA
ENDROOT
BRANCH   3   6
ATOM      6  N   UNL     1       1.303  12.914  18.375  0.00  0.00    +0.000 N 
ATOM      7  C   UNL     1       2.343  13.780  18.813  0.00  0.00    +0.000 C 
ATOM      8  O   UNL     1       2.409  14.088  19.990  0.00  0.00    +0.000 OA
ATOM      9  N   UNL     1       3.191  14.104  17.794  0.00  0.00    +0.000 N 
ATOM     10  H   UNL     1       1.362  12.435  17.488  0.00  0.00    +0.000 HD
ATOM     11  H   UNL     1       2.861  14.029  16.841  0.00  0.00    +0.000 HD
BRANCH   9  12
ATOM     12  C   UNL     1       4.393  14.819  18.006  0.00  0.00    +0.000 A 
ATOM     13  C   UNL     1       5.655  14.239  17.814  0.00  0.00    +0.000 A 
ATOM     14  C   UNL     1       6.820  14.941  18.121  0.00  0.00    +0.000 A 
ATOM     15  C   UNL     1       6.732  16.240  18.602  0.00  0.00    +0.000 A 
ATOM     16 CL   UNL     1       8.163  17.084  19.038  0.00  0.00    +0.000 Cl
ATOM     17  C   UNL     1       5.487  16.854  18.738  0.00  0.00    +0.000 A 
ATOM     18  C   UNL     1       4.317  16.151  18.426  0.00  0.00    +0.000 A 
ENDBRANCH   9  12
ENDBRANCH   3   6
BRANCH   4  19
ATOM     19  C   UNL     1       0.781  10.011  19.368  0.00  0.00    +0.000 A 
ATOM     20  C   UNL     1       1.091   9.073  20.364  0.00  0.00    +0.000 A 
ATOM     21  C   UNL     1       1.858   7.948  20.059  0.00  0.00    +0.000 A 
ATOM     22  C   UNL     1       2.328   7.742  18.755  0.00  0.00    +0.000 A 
ATOM     23  C   UNL     1       1.974   8.662  17.753  0.00  0.00    +0.000 A 
ATOM     24  C   UNL     1       1.187   9.780  18.050  0.00  0.00    +0.000 A 
BRANCH  22  25
ATOM     25  C   UNL     1       3.203   6.554  18.425  0.00  0.00    +0.000 C 
ATOM     26  F   UNL     1       4.260   6.871  17.625  0.00  0.00    +0.000 F 
ATOM     27  F   UNL     1       3.729   5.965  19.532  0.00  0.00    +0.000 F 
ATOM     28  F   UNL     1       2.517   5.582  17.763  0.00  0.00    +0.000 F 
ENDBRANCH  22  25
ENDBRANCH   4  19
BRANCH   1  30
ATOM     29  C   UNL     1      -2.173  14.324  22.177  0.00  0.00    +0.000 C 
ATOM     30  C   UNL     1      -2.393  12.855  21.762  0.00  0.00    +0.000 C 
ATOM     31  C   UNL     1      -2.324  11.973  23.030  0.00  0.00    +0.000 C 
ATOM     32  C   UNL     1      -3.811  12.722  21.175  0.00  0.00    +0.000 C 
ENDBRANCH   1  30
TORSDOF 5
ENDMDL
MODEL 9
REMARK VINA RESULT:      -6.9      4.263      7.147
REMARK  Name = 
REMARK  8 active torsions:
REMARK  status: ('A' for Active; 'I' for Inactive)
REMARK    1  A    between atoms: C_1  and  C_2
REMARK    2  A    between atoms: C_2  and  C_3
REMARK    3  A    between atoms: C_2  and  C_4
REMARK    4  A    between atoms: C_2  and  C_5
REMARK    5  A    between atoms: C_7  and  N_8
REMARK    6  A    between atoms: N_11  and  C_12
REMARK    7  A    between atoms: N_19  and  C_20
REMARK    8  A    between atoms: C_23  and  C_24
REMARK                            x       y       z     vdW  Elec       q    Type
REMARK                         _______ _______ _______ _____ _____    ______ ____
ROOT
ATOM      1  C   UNL     1      -1.222  12.488  20.430  0.00  0.00    +0.000 A 
ATOM      2  C   UNL     1      -0.302  13.314  19.743  0.00  0.00    +0.000 A 
ATOM      3  C   UNL     1       0.563  12.459  19.107  0.00  0.00    +0.000 A 
ATOM      4  N   UNL     1       0.177  11.179  19.471  0.00  0.00    +0.000 N 
ATOM      5  N   UNL     1      -0.985  11.191  20.176  0.00  0.00    +0.000 NA
ENDROOT
BRANCH   3   6
ATOM      6  N   UNL     1       1.602  12.840  18.256  0.00  0.00    +0.000 N 
ATOM      7  C   UNL     1       2.560  13.778  18.731  0.00  0.00    +0.000 C 
ATOM      8  O   UNL     1       2.480  14.188  19.876  0.00  0.00    +0.000 OA
ATOM      9  N   UNL     1       3.514  14.044  17.791  0.00  0.00    +0.000 N 
ATOM     10  H   UNL     1       1.777  12.290  17.428  0.00  0.00    +0.000 HD
ATOM     11  H   UNL     1       3.299  13.876  16.816  0.00  0.00    +0.000 HD
BRANCH   9  12
ATOM     12  C   UNL     1       4.663  14.818  18.074  0.00  0.00    +0.000 A 
ATOM     13  C   UNL     1       4.583  16.114  18.603  0.00  0.00    +0.000 A 
ATOM     14  C   UNL     1       5.730  16.887  18.784  0.00  0.00    +0.000 A 
ATOM     15  C   UNL     1       6.971  16.357  18.457  0.00  0.00    +0.000 A 
ATOM     16 CL   UNL     1       8.379  17.328  18.621  0.00  0.00    +0.000 Cl
ATOM     17  C   UNL     1       7.074  15.047  17.990  0.00  0.00    +0.000 A 
ATOM     18  C   UNL     1       5.923  14.270  17.813  0.00  0.00    +0.000 A 
ENDBRANCH   9  12
ENDBRANCH   3   6
BRANCH   4  19
ATOM     19  C   UNL     1       0.889   9.972  19.229  0.00  0.00    +0.000 A 
ATOM     20  C   UNL     1       1.111   9.053  20.267  0.00  0.00    +0.000 A 
ATOM     21  C   UNL     1       1.859   7.898  20.036  0.00  0.00    +0.000 A 
ATOM     22  C   UNL     1       2.396   7.640  18.768  0.00  0.00    +0.000 A 
ATOM     23  C   UNL     1       2.128   8.541  17.723  0.00  0.00    +0.000 A 
ATOM     24  C   UNL     1       1.362   9.691  17.944  0.00  0.00    +0.000 A 
BRANCH  22  25
ATOM     25  C   UNL     1       3.250   6.417  18.522  0.00  0.00    +0.000 C 
ATOM     26  F   UNL     1       4.262   6.639  17.637  0.00  0.00    +0.000 F 
ATOM     27  F   UNL     1       3.834   5.947  19.656  0.00  0.00    +0.000 F 
ATOM     28  F   UNL     1       2.528   5.385  18.006  0.00  0.00    +0.000 F 
ENDBRANCH  22  25
ENDBRANCH   4  19
BRANCH   1  30
ATOM     29  C   UNL     1      -2.395  12.128  22.614  0.00  0.00    +0.000 C 
ATOM     30  C   UNL     1      -2.367  12.961  21.317  0.00  0.00    +0.000 C 
ATOM     31  C   UNL     1      -3.716  12.773  20.585  0.00  0.00    +0.000 C 
ATOM     32  C   UNL     1      -2.243  14.449  21.697  0.00  0.00    +0.000 C 
ENDBRANCH   1  30
TORSDOF 5
ENDMDL
