MODEL 1
REMARK VINA RESULT:      -9.0      0.000      0.000
REMARK  Name = 
REMARK  8 active torsions:
REMARK  status: ('A' for Active; 'I' for Inactive)
REMARK    1  A    between atoms: C_1  and  C_2
REMARK    2  A    between atoms: N_4  and  C_5
REMARK    3  A    between atoms: C_14  and  C_15
REMARK    4  A    between atoms: C_15  and  C_16
REMARK    5  A    between atoms: C_15  and  C_18
REMARK    6  A    between atoms: N_20  and  C_21
REMARK    7  A    between atoms: C_21  and  C_22
REMARK    8  A    between atoms: C_32  and  C_33
REMARK                            x       y       z     vdW  Elec       q    Type
REMARK                         _______ _______ _______ _____ _____    ______ ____
ROOT
ATOM      1  C   UNL     1      -0.976  11.610  19.983  0.00  0.00    +0.000 A 
ATOM      2  N   UNL     1      -2.208  11.947  19.521  0.00  0.00    +0.000 NA
ATOM      3  C   UNL     1      -2.676  11.428  18.369  0.00  0.00    +0.000 A 
ATOM      4  C   UNL     1      -3.981  11.689  17.956  0.00  0.00    +0.000 A 
ATOM      5  C   UNL     1      -4.506  11.132  16.784  0.00  0.00    +0.000 A 
ATOM      6  C   UNL     1      -3.713  10.296  16.012  0.00  0.00    +0.000 A 
ATOM      7  C   UNL     1      -2.403  10.035  16.417  0.00  0.00    +0.000 A 
ATOM      8  C   UNL     1      -1.878  10.594  17.579  0.00  0.00    +0.000 A 
ATOM      9  N   UNL     1      -0.630  10.293  17.966  0.00  0.00    +0.000 NA
ATOM     10  C   UNL     1      -0.204  10.721  19.187  0.00  0.00    +0.000 A 
ENDROOT
BRANCH   1  14
ATOM     11  C   UNL     1      -3.586  12.808  23.068  0.00  0.00    +0.000 C 
ATOM     12  C   UNL     1      -2.119  12.477  23.366  0.00  0.00    +0.000 C 
ATOM     13  C   UNL     1      -1.357  11.502  22.422  0.00  0.00    +0.000 C 
ATOM     14  N   UNL     1      -0.675  12.112  21.229  0.00  0.00    +0.000 N 
ATOM     15  C   UNL     1      -0.133  13.475  21.464  0.00  0.00    +0.000 C 
ATOM     16  C   UNL     1      -1.151  14.319  22.263  0.00  0.00    +0.000 C 
ATOM     17  C   UNL     1      -0.759  15.749  22.579  0.00  0.00    +0.000 C 
ATOM     18  O   UNL     1      -1.404  13.705  23.535  0.00  0.00    +0.000 OA
ENDBRANCH   1  14
BRANCH  10  19
ATOM     19  C   UNL     1       1.072  10.017  19.639  0.00  0.00    +0.000 C 
BRANCH  19  20
ATOM     20  C   UNL     1       1.818   9.303  18.523  0.00  0.00    +0.000 C 
ATOM     21  O   UNL     1       2.115   9.916  17.488  0.00  0.00    +0.000 OA
ATOM     22  N   UNL     1       2.204   7.993  18.712  0.00  0.00    +0.000 N 
ATOM     23  H   UNL     1       1.925   7.504  19.557  0.00  0.00    +0.000 HD
BRANCH  22  24
ATOM     24  C   UNL     1       3.051   7.281  17.765  0.00  0.00    +0.000 C 
BRANCH  24  25
ATOM     25  C   UNL     1       3.075   5.801  18.057  0.00  0.00    +0.000 A 
ATOM     26  C   UNL     1       1.926   5.005  17.831  0.00  0.00    +0.000 A 
ATOM     27  C   UNL     1       1.904   3.652  18.194  0.00  0.00    +0.000 A 
ATOM     28  C   UNL     1       3.029   3.132  18.795  0.00  0.00    +0.000 A 
ATOM     29  C   UNL     1       4.161   3.889  18.983  0.00  0.00    +0.000 A 
ATOM     30  C   UNL     1       4.225   5.214  18.609  0.00  0.00    +0.000 A 
ATOM     31  O   UNL     1       5.153   3.193  19.602  0.00  0.00    +0.000 OA
ATOM     32  C   UNL     1       4.452   1.975  19.929  0.00  0.00    +0.000 C 
ATOM     33  O   UNL     1       3.164   1.871  19.286  0.00  0.00    +0.000 OA
ENDBRANCH  24  25
ENDBRANCH  22  24
ENDBRANCH  19  20
BRANCH  19  34
ATOM     34  C   UNL     1       0.850   9.021  20.766  0.00  0.00    +0.000 C 
ATOM     35  N   UNL     1       0.667   8.194  21.701  0.00  0.00    +0.000 NA
ENDBRANCH  19  34
ENDBRANCH  10  19
TORSDOF 6
ENDMDL
MODEL 2
REMARK VINA RESULT:      -8.8      0.805      1.141
REMARK  Name = 
REMARK  8 active torsions:
REMARK  status: ('A' for Active; 'I' for Inactive)
REMARK    1  A    between atoms: C_1  and  C_2
REMARK    2  A    between atoms: N_4  and  C_5
REMARK    3  A    between atoms: C_14  and  C_15
REMARK    4  A    between atoms: C_15  and  C_16
REMARK    5  A    between atoms: C_15  and  C_18
REMARK    6  A    between atoms: N_20  and  C_21
REMARK    7  A    between atoms: C_21  and  C_22
REMARK    8  A    between atoms: C_32  and  C_33
REMARK                            x       y       z     vdW  Elec       q    Type
REMARK                         _______ _______ _______ _____ _____    ______ ____
ROOT
ATOM      1  C   UNL     1      -0.920  11.536  20.029  0.00  0.00    +0.000 A 
ATOM      2  N   UNL     1      -2.160  11.882  19.596  0.00  0.00    +0.000 NA
ATOM      3  C   UNL     1      -2.647  11.391  18.439  0.00  0.00    +0.000 A 
ATOM      4  C   UNL     1      -3.959  11.660  18.054  0.00  0.00    +0.000 A 
ATOM      5  C   UNL     1      -4.503  11.132  16.878  0.00  0.00    +0.000 A 
ATOM      6  C   UNL     1      -3.722  10.316  16.073  0.00  0.00    +0.000 A 
ATOM      7  C   UNL     1      -2.405  10.047  16.449  0.00  0.00    +0.000 A 
ATOM      8  C   UNL     1      -1.862  10.579  17.616  0.00  0.00    +0.000 A 
ATOM      9  N   UNL     1      -0.607  10.269  17.974  0.00  0.00    +0.000 NA
ATOM     10  C   UNL     1      -0.161  10.668  19.198  0.00  0.00    +0.000 A 
ENDROOT
BRANCH   1  14
ATOM     11  C   UNL     1      -3.480  12.664  23.182  0.00  0.00    +0.000 C 
ATOM     12  C   UNL     1      -2.010  12.324  23.449  0.00  0.00    +0.000 C 
ATOM     13  C   UNL     1      -1.264  11.370  22.470  0.00  0.00    +0.000 C 
ATOM     14  N   UNL     1      -0.599  12.007  21.281  0.00  0.00    +0.000 N 
ATOM     15  C   UNL     1      -0.051  13.363  21.541  0.00  0.00    +0.000 C 
ATOM     16  C   UNL     1      -1.055  14.189  22.376  0.00  0.00    +0.000 C 
ATOM     17  C   UNL     1      -0.656  15.611  22.719  0.00  0.00    +0.000 C 
ATOM     18  O   UNL     1      -1.289  13.545  23.636  0.00  0.00    +0.000 OA
ENDBRANCH   1  14
BRANCH  10  19
ATOM     19  C   UNL     1       1.123   9.955  19.612  0.00  0.00    +0.000 C 
BRANCH  19  20
ATOM     20  C   UNL     1       1.878   9.314  18.458  0.00  0.00    +0.000 C 
ATOM     21  O   UNL     1       2.199   9.996  17.475  0.00  0.00    +0.000 OA
ATOM     22  N   UNL     1       2.245   7.989  18.557  0.00  0.00    +0.000 N 
ATOM     23  H   UNL     1       1.947   7.443  19.359  0.00  0.00    +0.000 HD
BRANCH  22  24
ATOM     24  C   UNL     1       3.099   7.336  17.573  0.00  0.00    +0.000 C 
BRANCH  24  25
ATOM     25  C   UNL     1       3.187   5.852  17.824  0.00  0.00    +0.000 A 
ATOM     26  C   UNL     1       4.206   5.079  17.216  0.00  0.00    +0.000 A 
ATOM     27  C   UNL     1       4.237   3.685  17.358  0.00  0.00    +0.000 A 
ATOM     28  C   UNL     1       3.232   3.095  18.092  0.00  0.00    +0.000 A 
ATOM     29  C   UNL     1       2.260   3.842  18.716  0.00  0.00    +0.000 A 
ATOM     30  C   UNL     1       2.221   5.215  18.620  0.00  0.00    +0.000 A 
ATOM     31  O   UNL     1       1.358   3.068  19.378  0.00  0.00    +0.000 OA
ATOM     32  C   UNL     1       1.778   1.755  18.953  0.00  0.00    +0.000 C 
ATOM     33  O   UNL     1       3.050   1.759  18.271  0.00  0.00    +0.000 OA
ENDBRANCH  24  25
ENDBRANCH  22  24
ENDBRANCH  19  20
BRANCH  19  34
ATOM     34  C   UNL     1       0.912   8.894  20.680  0.00  0.00    +0.000 C 
ATOM     35  N   UNL     1       0.738   8.014  21.566  0.00  0.00    +0.000 NA
ENDBRANCH  19  34
ENDBRANCH  10  19
TORSDOF 6
ENDMDL
MODEL 3
REMARK VINA RESULT:      -8.7      1.157      1.200
REMARK  Name = 
REMARK  8 active torsions:
REMARK  status: ('A' for Active; 'I' for Inactive)
REMARK    1  A    between atoms: C_1  and  C_2
REMARK    2  A    between atoms: N_4  and  C_5
REMARK    3  A    between atoms: C_14  and  C_15
REMARK    4  A    between atoms: C_15  and  C_16
REMARK    5  A    between atoms: C_15  and  C_18
REMARK    6  A    between atoms: N_20  and  C_21
REMARK    7  A    between atoms: C_21  and  C_22
REMARK    8  A    between atoms: C_32  and  C_33
REMARK                            x       y       z     vdW  Elec       q    Type
REMARK                         _______ _______ _______ _____ _____    ______ ____
ROOT
ATOM      1  C   UNL     1      -1.064  11.931  20.074  0.00  0.00    +0.000 A 
ATOM      2  N   UNL     1      -2.336  12.157  19.654  0.00  0.00    +0.000 NA
ATOM      3  C   UNL     1      -2.810  11.559  18.543  0.00  0.00    +0.000 A 
ATOM      4  C   UNL     1      -4.147  11.706  18.178  0.00  0.00    +0.000 A 
ATOM      5  C   UNL     1      -4.676  11.066  17.052  0.00  0.00    +0.000 A 
ATOM      6  C   UNL     1      -3.854  10.260  16.277  0.00  0.00    +0.000 A 
ATOM      7  C   UNL     1      -2.513  10.114  16.633  0.00  0.00    +0.000 A 
ATOM      8  C   UNL     1      -1.984  10.756  17.750  0.00  0.00    +0.000 A 
ATOM      9  N   UNL     1      -0.702  10.564  18.093  0.00  0.00    +0.000 NA
ATOM     10  C   UNL     1      -0.260  11.070  19.277  0.00  0.00    +0.000 A 
ENDROOT
BRANCH   1  14
ATOM     11  C   UNL     1      -3.643  13.259  23.131  0.00  0.00    +0.000 C 
ATOM     12  C   UNL     1      -2.168  12.964  23.423  0.00  0.00    +0.000 C 
ATOM     13  C   UNL     1      -1.407  11.949  22.520  0.00  0.00    +0.000 C 
ATOM     14  N   UNL     1      -0.751  12.503  21.286  0.00  0.00    +0.000 N 
ATOM     15  C   UNL     1      -0.224  13.883  21.439  0.00  0.00    +0.000 C 
ATOM     16  C   UNL     1      -1.241  14.756  22.208  0.00  0.00    +0.000 C 
ATOM     17  C   UNL     1      -0.864  16.206  22.440  0.00  0.00    +0.000 C 
ATOM     18  O   UNL     1      -1.467  14.207  23.514  0.00  0.00    +0.000 OA
ENDBRANCH   1  14
BRANCH  10  19
ATOM     19  C   UNL     1       1.083  10.481  19.699  0.00  0.00    +0.000 C 
BRANCH  19  20
ATOM     20  C   UNL     1       1.686   9.520  18.686  0.00  0.00    +0.000 C 
ATOM     21  O   UNL     1       2.058   9.940  17.582  0.00  0.00    +0.000 OA
ATOM     22  N   UNL     1       1.863   8.201  19.044  0.00  0.00    +0.000 N 
ATOM     23  H   UNL     1       1.524   7.874  19.944  0.00  0.00    +0.000 HD
BRANCH  22  24
ATOM     24  C   UNL     1       2.569   7.247  18.200  0.00  0.00    +0.000 C 
BRANCH  24  25
ATOM     25  C   UNL     1       2.363   5.832  18.680  0.00  0.00    +0.000 A 
ATOM     26  C   UNL     1       1.958   4.818  17.780  0.00  0.00    +0.000 A 
ATOM     27  C   UNL     1       1.665   3.525  18.233  0.00  0.00    +0.000 A 
ATOM     28  C   UNL     1       1.765   3.284  19.586  0.00  0.00    +0.000 A 
ATOM     29  C   UNL     1       2.194   4.253  20.461  0.00  0.00    +0.000 A 
ATOM     30  C   UNL     1       2.519   5.524  20.042  0.00  0.00    +0.000 A 
ATOM     31  O   UNL     1       2.213   3.816  21.750  0.00  0.00    +0.000 OA
ATOM     32  C   UNL     1       1.586   2.526  21.596  0.00  0.00    +0.000 C 
ATOM     33  O   UNL     1       1.446   2.123  20.217  0.00  0.00    +0.000 OA
ENDBRANCH  24  25
ENDBRANCH  22  24
ENDBRANCH  19  20
BRANCH  19  34
ATOM     34  C   UNL     1       1.042   9.778  21.045  0.00  0.00    +0.000 C 
ATOM     35  N   UNL     1       1.008   9.193  22.162  0.00  0.00    +0.000 NA
ENDBRANCH  19  34
ENDBRANCH  10  19
TORSDOF 6
ENDMDL
MODEL 4
REMARK VINA RESULT:      -8.6      1.805      2.401
REMARK  Name = 
REMARK  8 active torsions:
REMARK  status: ('A' for Active; 'I' for Inactive)
REMARK    1  A    between atoms: C_1  and  C_2
REMARK    2  A    between atoms: N_4  and  C_5
REMARK    3  A    between atoms: C_14  and  C_15
REMARK    4  A    between atoms: C_15  and  C_16
REMARK    5  A    between atoms: C_15  and  C_18
REMARK    6  A    between atoms: N_20  and  C_21
REMARK    7  A    between atoms: C_21  and  C_22
REMARK    8  A    between atoms: C_32  and  C_33
REMARK                            x       y       z     vdW  Elec       q    Type
REMARK                         _______ _______ _______ _____ _____    ______ ____
ROOT
ATOM      1  C   UNL     1      -2.490  12.541  21.093  0.00  0.00    +0.000 A 
ATOM      2  N   UNL     1      -3.728  12.717  20.561  0.00  0.00    +0.000 NA
ATOM      3  C   UNL     1      -4.013  12.271  19.322  0.00  0.00    +0.000 A 
ATOM      4  C   UNL     1      -5.312  12.354  18.823  0.00  0.00    +0.000 A 
ATOM      5  C   UNL     1      -5.645  11.864  17.556  0.00  0.00    +0.000 A 
ATOM      6  C   UNL     1      -4.662  11.276  16.772  0.00  0.00    +0.000 A 
ATOM      7  C   UNL     1      -3.358  11.195  17.263  0.00  0.00    +0.000 A 
ATOM      8  C   UNL     1      -3.025  11.689  18.521  0.00  0.00    +0.000 A 
ATOM      9  N   UNL     1      -1.773  11.560  18.985  0.00  0.00    +0.000 NA
ATOM     10  C   UNL     1      -1.517  11.901  20.278  0.00  0.00    +0.000 A 
ENDROOT
BRANCH   1  14
ATOM     11  C   UNL     1      -5.483  12.898  24.039  0.00  0.00    +0.000 C 
ATOM     12  C   UNL     1      -4.006  12.784  24.432  0.00  0.00    +0.000 C 
ATOM     13  C   UNL     1      -3.018  12.073  23.461  0.00  0.00    +0.000 C 
ATOM     14  N   UNL     1      -2.372  12.930  22.408  0.00  0.00    +0.000 N 
ATOM     15  C   UNL     1      -2.098  14.325  22.838  0.00  0.00    +0.000 C 
ATOM     16  C   UNL     1      -3.304  14.882  23.628  0.00  0.00    +0.000 C 
ATOM     17  C   UNL     1      -3.195  16.309  24.130  0.00  0.00    +0.000 C 
ATOM     18  O   UNL     1      -3.533  14.083  24.797  0.00  0.00    +0.000 OA
ENDBRANCH   1  14
BRANCH  10  19
ATOM     19  C   UNL     1      -0.170  11.375  20.765  0.00  0.00    +0.000 C 
BRANCH  19  20
ATOM     20  C   UNL     1       0.830  11.104  19.652  0.00  0.00    +0.000 C 
ATOM     21  O   UNL     1       1.695  11.948  19.379  0.00  0.00    +0.000 OA
ATOM     22  N   UNL     1       0.792   9.887  19.005  0.00  0.00    +0.000 N 
ATOM     23  H   UNL     1       0.057   9.222  19.227  0.00  0.00    +0.000 HD
BRANCH  22  24
ATOM     24  C   UNL     1       1.802   9.481  18.036  0.00  0.00    +0.000 C 
BRANCH  24  25
ATOM     25  C   UNL     1       2.378   8.131  18.379  0.00  0.00    +0.000 A 
ATOM     26  C   UNL     1       2.018   7.478  19.583  0.00  0.00    +0.000 A 
ATOM     27  C   UNL     1       2.624   6.273  19.961  0.00  0.00    +0.000 A 
ATOM     28  C   UNL     1       3.595   5.758  19.130  0.00  0.00    +0.000 A 
ATOM     29  C   UNL     1       3.924   6.366  17.942  0.00  0.00    +0.000 A 
ATOM     30  C   UNL     1       3.324   7.535  17.528  0.00  0.00    +0.000 A 
ATOM     31  O   UNL     1       4.912   5.706  17.278  0.00  0.00    +0.000 OA
ATOM     32  C   UNL     1       5.276   4.720  18.267  0.00  0.00    +0.000 C 
ATOM     33  O   UNL     1       4.346   4.650  19.368  0.00  0.00    +0.000 OA
ENDBRANCH  24  25
ENDBRANCH  22  24
ENDBRANCH  19  20
BRANCH  19  34
ATOM     34  C   UNL     1      -0.279  10.119  21.613  0.00  0.00    +0.000 C 
ATOM     35  N   UNL     1      -0.369   9.076  22.317  0.00  0.00    +0.000 NA
ENDBRANCH  19  34
ENDBRANCH  10  19
TORSDOF 6
ENDMDL
MODEL 5
REMARK VINA RESULT:      -8.2      1.380      1.875
REMARK  Name = 
REMARK  8 active torsions:
REMARK  status: ('A' for Active; 'I' for Inactive)
REMARK    1  A    between atoms: C_1  and  C_2
REMARK    2  A    between atoms: N_4  and  C_5
REMARK    3  A    between atoms: C_14  and  C_15
REMARK    4  A    between atoms: C_15  and  C_16
REMARK    5  A    between atoms: C_15  and  C_18
REMARK    6  A    between atoms: N_20  and  C_21
REMARK    7  A    between atoms: C_21  and  C_22
REMARK    8  A    between atoms: C_32  and  C_33
REMARK                            x       y       z     vdW  Elec       q    Type
REMARK                         _______ _______ _______ _____ _____    ______ ____
ROOT
ATOM      1  C   UNL     1      -0.815  11.662  20.018  0.00  0.00    +0.000 A 
ATOM      2  N   UNL     1      -2.075  12.022  19.663  0.00  0.00    +0.000 NA
ATOM      3  C   UNL     1      -2.641  11.529  18.542  0.00  0.00    +0.000 A 
ATOM      4  C   UNL     1      -3.971  11.813  18.240  0.00  0.00    +0.000 A 
ATOM      5  C   UNL     1      -4.596  11.284  17.105  0.00  0.00    +0.000 A 
ATOM      6  C   UNL     1      -3.878  10.452  16.258  0.00  0.00    +0.000 A 
ATOM      7  C   UNL     1      -2.543  10.168  16.552  0.00  0.00    +0.000 A 
ATOM      8  C   UNL     1      -1.920  10.700  17.677  0.00  0.00    +0.000 A 
ATOM      9  N   UNL     1      -0.648  10.377  17.958  0.00  0.00    +0.000 NA
ATOM     10  C   UNL     1      -0.121  10.778  19.148  0.00  0.00    +0.000 A 
ENDROOT
BRANCH   1  14
ATOM     11  C   UNL     1      -3.113  13.421  23.082  0.00  0.00    +0.000 C 
ATOM     12  C   UNL     1      -1.730  12.832  23.380  0.00  0.00    +0.000 C 
ATOM     13  C   UNL     1      -1.176  11.703  22.462  0.00  0.00    +0.000 C 
ATOM     14  N   UNL     1      -0.408  12.137  21.244  0.00  0.00    +0.000 N 
ATOM     15  C   UNL     1       0.381  13.382  21.430  0.00  0.00    +0.000 C 
ATOM     16  C   UNL     1      -0.451  14.426  22.208  0.00  0.00    +0.000 C 
ATOM     17  C   UNL     1       0.204  15.767  22.473  0.00  0.00    +0.000 C 
ATOM     18  O   UNL     1      -0.796  13.909  23.501  0.00  0.00    +0.000 OA
ENDBRANCH   1  14
BRANCH  10  19
ATOM     19  C   UNL     1       1.178  10.051  19.484  0.00  0.00    +0.000 C 
BRANCH  19  20
ATOM     20  C   UNL     1       1.763   9.256  18.328  0.00  0.00    +0.000 C 
ATOM     21  O   UNL     1       2.316   9.846  17.390  0.00  0.00    +0.000 OA
ATOM     22  N   UNL     1       1.720   7.879  18.377  0.00  0.00    +0.000 N 
ATOM     23  H   UNL     1       1.238   7.418  19.143  0.00  0.00    +0.000 HD
BRANCH  22  24
ATOM     24  C   UNL     1       2.388   7.037  17.394  0.00  0.00    +0.000 C 
BRANCH  24  25
ATOM     25  C   UNL     1       3.615   6.382  17.976  0.00  0.00    +0.000 A 
ATOM     26  C   UNL     1       3.497   5.429  19.016  0.00  0.00    +0.000 A 
ATOM     27  C   UNL     1       4.633   4.891  19.635  0.00  0.00    +0.000 A 
ATOM     28  C   UNL     1       5.865   5.337  19.208  0.00  0.00    +0.000 A 
ATOM     29  C   UNL     1       5.989   6.235  18.174  0.00  0.00    +0.000 A 
ATOM     30  C   UNL     1       4.891   6.758  17.526  0.00  0.00    +0.000 A 
ATOM     31  O   UNL     1       7.286   6.553  17.917  0.00  0.00    +0.000 OA
ATOM     32  C   UNL     1       7.941   5.887  19.017  0.00  0.00    +0.000 C 
ATOM     33  O   UNL     1       7.068   4.994  19.740  0.00  0.00    +0.000 OA
ENDBRANCH  24  25
ENDBRANCH  22  24
ENDBRANCH  19  20
BRANCH  19  34
ATOM     34  C   UNL     1       1.061   9.120  20.680  0.00  0.00    +0.000 C 
ATOM     35  N   UNL     1       0.964   8.348  21.672  0.00  0.00    +0.000 NA
ENDBRANCH  19  34
ENDBRANCH  10  19
TORSDOF 6
ENDMDL
MODEL 6
REMARK VINA RESULT:      -8.2      2.077      2.594
REMARK  Name = 
REMARK  8 active torsions:
REMARK  status: ('A' for Active; 'I' for Inactive)
REMARK    1  A    between atoms: C_1  and  C_2
REMARK    2  A    between atoms: N_4  and  C_5
REMARK    3  A    between atoms: C_14  and  C_15
REMARK    4  A    between atoms: C_15  and  C_16
REMARK    5  A    between atoms: C_15  and  C_18
REMARK    6  A    between atoms: N_20  and  C_21
REMARK    7  A    between atoms: C_21  and  C_22
REMARK    8  A    between atoms: C_32  and  C_33
REMARK                            x       y       z     vdW  Elec       q    Type
REMARK                         _______ _______ _______ _____ _____    ______ ____
ROOT
ATOM      1  C   UNL     1      -0.520  12.416  19.318  0.00  0.00    +0.000 A 
ATOM      2  N   UNL     1      -1.811  12.739  19.046  0.00  0.00    +0.000 NA
ATOM      3  C   UNL     1      -2.659  11.820  18.541  0.00  0.00    +0.000 A 
ATOM      4  C   UNL     1      -4.008  12.124  18.368  0.00  0.00    +0.000 A 
ATOM      5  C   UNL     1      -4.917  11.178  17.883  0.00  0.00    +0.000 A 
ATOM      6  C   UNL     1      -4.470   9.902  17.568  0.00  0.00    +0.000 A 
ATOM      7  C   UNL     1      -3.119   9.593  17.733  0.00  0.00    +0.000 A 
ATOM      8  C   UNL     1      -2.213  10.537  18.210  0.00  0.00    +0.000 A 
ATOM      9  N   UNL     1      -0.928  10.200  18.399  0.00  0.00    +0.000 NA
ATOM     10  C   UNL     1      -0.105  11.090  19.019  0.00  0.00    +0.000 A 
ENDROOT
BRANCH   1  14
ATOM     11  C   UNL     1      -0.624  16.581  18.679  0.00  0.00    +0.000 C 
ATOM     12  C   UNL     1      -0.058  16.001  19.980  0.00  0.00    +0.000 C 
ATOM     13  C   UNL     1      -0.550  14.605  20.463  0.00  0.00    +0.000 C 
ATOM     14  N   UNL     1       0.198  13.408  19.945  0.00  0.00    +0.000 N 
ATOM     15  C   UNL     1       1.651  13.640  19.735  0.00  0.00    +0.000 C 
ATOM     16  C   UNL     1       1.878  15.016  19.070  0.00  0.00    +0.000 C 
ATOM     17  C   UNL     1       3.312  15.405  18.770  0.00  0.00    +0.000 C 
ATOM     18  O   UNL     1       1.370  16.056  19.917  0.00  0.00    +0.000 OA
ENDBRANCH   1  14
BRANCH  10  19
ATOM     19  C   UNL     1       1.201  10.451  19.482  0.00  0.00    +0.000 C 
BRANCH  19  20
ATOM     20  C   UNL     1       1.790   9.455  18.496  0.00  0.00    +0.000 C 
ATOM     21  O   UNL     1       2.213   9.848  17.400  0.00  0.00    +0.000 OA
ATOM     22  N   UNL     1       1.899   8.133  18.870  0.00  0.00    +0.000 N 
ATOM     23  H   UNL     1       1.521   7.830  19.762  0.00  0.00    +0.000 HD
BRANCH  22  24
ATOM     24  C   UNL     1       2.587   7.141  18.055  0.00  0.00    +0.000 C 
BRANCH  24  25
ATOM     25  C   UNL     1       2.385   5.749  18.598  0.00  0.00    +0.000 A 
ATOM     26  C   UNL     1       1.991   4.692  17.741  0.00  0.00    +0.000 A 
ATOM     27  C   UNL     1       1.700   3.420  18.251  0.00  0.00    +0.000 A 
ATOM     28  C   UNL     1       1.792   3.241  19.614  0.00  0.00    +0.000 A 
ATOM     29  C   UNL     1       2.210   4.252  20.448  0.00  0.00    +0.000 A 
ATOM     30  C   UNL     1       2.532   5.504  19.973  0.00  0.00    +0.000 A 
ATOM     31  O   UNL     1       2.221   3.874  21.755  0.00  0.00    +0.000 OA
ATOM     32  C   UNL     1       1.601   2.575  21.656  0.00  0.00    +0.000 C 
ATOM     33  O   UNL     1       1.474   2.109  20.296  0.00  0.00    +0.000 OA
ENDBRANCH  24  25
ENDBRANCH  22  24
ENDBRANCH  19  20
BRANCH  19  34
ATOM     34  C   UNL     1       1.095   9.764  20.834  0.00  0.00    +0.000 C 
ATOM     35  N   UNL     1       1.008   9.194  21.956  0.00  0.00    +0.000 NA
ENDBRANCH  19  34
ENDBRANCH  10  19
TORSDOF 6
ENDMDL
MODEL 7
REMARK VINA RESULT:      -8.2      1.806      2.526
REMARK  Name = 
REMARK  8 active torsions:
REMARK  status: ('A' for Active; 'I' for Inactive)
REMARK    1  A    between atoms: C_1  and  C_2
REMARK    2  A    between atoms: N_4  and  C_5
REMARK    3  A    between atoms: C_14  and  C_15
REMARK    4  A    between atoms: C_15  and  C_16
REMARK    5  A    between atoms: C_15  and  C_18
REMARK    6  A    between atoms: N_20  and  C_21
REMARK    7  A    between atoms: C_21  and  C_22
REMARK    8  A    between atoms: C_32  and  C_33
REMARK                            x       y       z     vdW  Elec       q    Type
REMARK                         _______ _______ _______ _____ _____    ______ ____
ROOT
ATOM      1  C   UNL     1      -2.456  12.649  21.492  0.00  0.00    +0.000 A 
ATOM      2  N   UNL     1      -3.709  12.916  21.042  0.00  0.00    +0.000 NA
ATOM      3  C   UNL     1      -4.089  12.544  19.803  0.00  0.00    +0.000 A 
ATOM      4  C   UNL     1      -5.407  12.720  19.386  0.00  0.00    +0.000 A 
ATOM      5  C   UNL     1      -5.838  12.307  18.121  0.00  0.00    +0.000 A 
ATOM      6  C   UNL     1      -4.936  11.703  17.257  0.00  0.00    +0.000 A 
ATOM      7  C   UNL     1      -3.613  11.529  17.666  0.00  0.00    +0.000 A 
ATOM      8  C   UNL     1      -3.182  11.946  18.922  0.00  0.00    +0.000 A 
ATOM      9  N   UNL     1      -1.915  11.728  19.305  0.00  0.00    +0.000 NA
ATOM     10  C   UNL     1      -1.568  11.996  20.595  0.00  0.00    +0.000 A 
ENDROOT
BRANCH   1  14
ATOM     11  C   UNL     1      -4.599  15.310  23.961  0.00  0.00    +0.000 C 
ATOM     12  C   UNL     1      -3.701  14.226  24.569  0.00  0.00    +0.000 C 
ATOM     13  C   UNL     1      -3.417  12.933  23.751  0.00  0.00    +0.000 C 
ATOM     14  N   UNL     1      -2.242  12.971  22.813  0.00  0.00    +0.000 N 
ATOM     15  C   UNL     1      -1.105  13.799  23.291  0.00  0.00    +0.000 C 
ATOM     16  C   UNL     1      -1.629  15.120  23.896  0.00  0.00    +0.000 C 
ATOM     17  C   UNL     1      -0.592  16.094  24.422  0.00  0.00    +0.000 C 
ATOM     18  O   UNL     1      -2.487  14.840  25.011  0.00  0.00    +0.000 OA
ENDBRANCH   1  14
BRANCH  10  19
ATOM     19  C   UNL     1      -0.228  11.376  20.979  0.00  0.00    +0.000 C 
BRANCH  19  20
ATOM     20  C   UNL     1       0.708  11.141  19.803  0.00  0.00    +0.000 C 
ATOM     21  O   UNL     1       1.427  12.063  19.393  0.00  0.00    +0.000 OA
ATOM     22  N   UNL     1       0.783   9.880  19.252  0.00  0.00    +0.000 N 
ATOM     23  H   UNL     1       0.164   9.148  19.587  0.00  0.00    +0.000 HD
BRANCH  22  24
ATOM     24  C   UNL     1       1.758   9.526  18.230  0.00  0.00    +0.000 C 
BRANCH  24  25
ATOM     25  C   UNL     1       2.368   8.174  18.499  0.00  0.00    +0.000 A 
ATOM     26  C   UNL     1       3.271   7.595  17.574  0.00  0.00    +0.000 A 
ATOM     27  C   UNL     1       3.765   6.298  17.762  0.00  0.00    +0.000 A 
ATOM     28  C   UNL     1       3.325   5.601  18.866  0.00  0.00    +0.000 A 
ATOM     29  C   UNL     1       2.477   6.169  19.788  0.00  0.00    +0.000 A 
ATOM     30  C   UNL     1       2.000   7.453  19.646  0.00  0.00    +0.000 A 
ATOM     31  O   UNL     1       2.156   5.311  20.794  0.00  0.00    +0.000 OA
ATOM     32  C   UNL     1       2.759   4.096  20.303  0.00  0.00    +0.000 C 
ATOM     33  O   UNL     1       3.627   4.310  19.170  0.00  0.00    +0.000 OA
ENDBRANCH  24  25
ENDBRANCH  22  24
ENDBRANCH  19  20
BRANCH  19  34
ATOM     34  C   UNL     1      -0.360  10.067  21.740  0.00  0.00    +0.000 C 
ATOM     35  N   UNL     1      -0.468   8.980  22.371  0.00  0.00    +0.000 NA
ENDBRANCH  19  34
ENDBRANCH  10  19
TORSDOF 6
ENDMDL
MODEL 8
REMARK VINA RESULT:      -8.2      1.627      2.302
REMARK  Name = 
REMARK  8 active torsions:
REMARK  status: ('A' for Active; 'I' for Inactive)
REMARK    1  A    between atoms: C_1  and  C_2
REMARK    2  A    between atoms: N_4  and  C_5
REMARK    3  A    between atoms: C_14  and  C_15
REMARK    4  A    between atoms: C_15  and  C_16
REMARK    5  A    between atoms: C_15  and  C_18
REMARK    6  A    between atoms: N_20  and  C_21
REMARK    7  A    between atoms: C_21  and  C_22
REMARK    8  A    between atoms: C_32  and  C_33
REMARK                            x       y       z     vdW  Elec       q    Type
REMARK                         _______ _______ _______ _____ _____    ______ ____
ROOT
ATOM      1  C   UNL     1      -1.641  12.415  20.476  0.00  0.00    +0.000 A 
ATOM      2  N   UNL     1      -2.916  12.382  20.008  0.00  0.00    +0.000 NA
ATOM      3  C   UNL     1      -3.186  11.895  18.780  0.00  0.00    +0.000 A 
ATOM      4  C   UNL     1      -4.504  11.759  18.348  0.00  0.00    +0.000 A 
ATOM      5  C   UNL     1      -4.815  11.222  17.094  0.00  0.00    +0.000 A 
ATOM      6  C   UNL     1      -3.789  10.807  16.257  0.00  0.00    +0.000 A 
ATOM      7  C   UNL     1      -2.466  10.945  16.681  0.00  0.00    +0.000 A 
ATOM      8  C   UNL     1      -2.156  11.487  17.926  0.00  0.00    +0.000 A 
ATOM      9  N   UNL     1      -0.878  11.569  18.325  0.00  0.00    +0.000 NA
ATOM     10  C   UNL     1      -0.618  11.948  19.607  0.00  0.00    +0.000 A 
ENDROOT
BRANCH   1  14
ATOM     11  C   UNL     1      -4.624  12.739  23.436  0.00  0.00    +0.000 C 
ATOM     12  C   UNL     1      -3.143  12.657  23.821  0.00  0.00    +0.000 C 
ATOM     13  C   UNL     1      -2.147  11.957  22.851  0.00  0.00    +0.000 C 
ATOM     14  N   UNL     1      -1.523  12.817  21.786  0.00  0.00    +0.000 N 
ATOM     15  C   UNL     1      -1.275  14.222  22.203  0.00  0.00    +0.000 C 
ATOM     16  C   UNL     1      -2.486  14.762  22.995  0.00  0.00    +0.000 C 
ATOM     17  C   UNL     1      -2.402  16.194  23.485  0.00  0.00    +0.000 C 
ATOM     18  O   UNL     1      -2.693  13.969  24.172  0.00  0.00    +0.000 OA
ENDBRANCH   1  14
BRANCH  10  19
ATOM     19  C   UNL     1       0.821  11.654  20.021  0.00  0.00    +0.000 C 
BRANCH  19  20
ATOM     20  C   UNL     1       0.982  10.402  20.868  0.00  0.00    +0.000 C 
ATOM     21  O   UNL     1       0.935  10.482  22.103  0.00  0.00    +0.000 OA
ATOM     22  N   UNL     1       1.117   9.184  20.237  0.00  0.00    +0.000 N 
ATOM     23  H   UNL     1       1.180   9.146  19.224  0.00  0.00    +0.000 HD
BRANCH  22  24
ATOM     24  C   UNL     1       1.122   7.921  20.963  0.00  0.00    +0.000 C 
BRANCH  24  25
ATOM     25  C   UNL     1       1.863   6.853  20.198  0.00  0.00    +0.000 A 
ATOM     26  C   UNL     1       2.502   7.158  18.972  0.00  0.00    +0.000 A 
ATOM     27  C   UNL     1       3.105   6.154  18.203  0.00  0.00    +0.000 A 
ATOM     28  C   UNL     1       3.035   4.860  18.672  0.00  0.00    +0.000 A 
ATOM     29  C   UNL     1       2.448   4.561  19.880  0.00  0.00    +0.000 A 
ATOM     30  C   UNL     1       1.875   5.531  20.673  0.00  0.00    +0.000 A 
ATOM     31  O   UNL     1       2.473   3.229  20.152  0.00  0.00    +0.000 OA
ATOM     32  C   UNL     1       2.986   2.717  18.904  0.00  0.00    +0.000 C 
ATOM     33  O   UNL     1       3.487   3.750  18.030  0.00  0.00    +0.000 OA
ENDBRANCH  24  25
ENDBRANCH  22  24
ENDBRANCH  19  20
BRANCH  19  34
ATOM     34  C   UNL     1       1.489  12.805  20.755  0.00  0.00    +0.000 C 
ATOM     35  N   UNL     1       2.042  13.761  21.365  0.00  0.00    +0.000 NA
ENDBRANCH  19  34
ENDBRANCH  10  19
TORSDOF 6
ENDMDL
MODEL 9
REMARK VINA RESULT:      -8.1      1.570      2.138
REMARK  Name = 
REMARK  8 active torsions:
REMARK  status: ('A' for Active; 'I' for Inactive)
REMARK    1  A    between atoms: C_1  and  C_2
REMARK    2  A    between atoms: N_4  and  C_5
REMARK    3  A    between atoms: C_14  and  C_15
REMARK    4  A    between atoms: C_15  and  C_16
REMARK    5  A    between atoms: C_15  and  C_18
REMARK    6  A    between atoms: N_20  and  C_21
REMARK    7  A    between atoms: C_21  and  C_22
REMARK    8  A    between atoms: C_32  and  C_33
REMARK                            x       y       z     vdW  Elec       q    Type
REMARK                         _______ _______ _______ _____ _____    ______ ____
ROOT
ATOM      1  C   UNL     1      -0.596  11.414  19.893  0.00  0.00    +0.000 A 
ATOM      2  N   UNL     1      -1.831  11.822  19.505  0.00  0.00    +0.000 NA
ATOM      3  C   UNL     1      -2.407  11.314  18.396  0.00  0.00    +0.000 A 
ATOM      4  C   UNL     1      -3.717  11.652  18.062  0.00  0.00    +0.000 A 
ATOM      5  C   UNL     1      -4.352  11.110  16.940  0.00  0.00    +0.000 A 
ATOM      6  C   UNL     1      -3.666  10.210  16.137  0.00  0.00    +0.000 A 
ATOM      7  C   UNL     1      -2.351   9.872  16.462  0.00  0.00    +0.000 A 
ATOM      8  C   UNL     1      -1.717  10.416  17.575  0.00  0.00    +0.000 A 
ATOM      9  N   UNL     1      -0.467  10.041  17.888  0.00  0.00    +0.000 NA
ATOM     10  C   UNL     1       0.064  10.463  19.069  0.00  0.00    +0.000 A 
ENDROOT
BRANCH   1  14
ATOM     11  C   UNL     1      -2.851  13.371  22.868  0.00  0.00    +0.000 C 
ATOM     12  C   UNL     1      -1.495  12.740  23.201  0.00  0.00    +0.000 C 
ATOM     13  C   UNL     1      -0.977  11.557  22.330  0.00  0.00    +0.000 C 
ATOM     14  N   UNL     1      -0.182  11.917  21.106  0.00  0.00    +0.000 N 
ATOM     15  C   UNL     1       0.653  13.137  21.255  0.00  0.00    +0.000 C 
ATOM     16  C   UNL     1      -0.144  14.239  21.987  0.00  0.00    +0.000 C 
ATOM     17  C   UNL     1       0.561  15.562  22.211  0.00  0.00    +0.000 C 
ATOM     18  O   UNL     1      -0.521  13.783  23.294  0.00  0.00    +0.000 OA
ENDBRANCH   1  14
BRANCH  10  19
ATOM     19  C   UNL     1       1.320   9.686  19.453  0.00  0.00    +0.000 C 
BRANCH  19  20
ATOM     20  C   UNL     1       1.753   8.654  18.424  0.00  0.00    +0.000 C 
ATOM     21  O   UNL     1       2.082   9.017  17.286  0.00  0.00    +0.000 OA
ATOM     22  N   UNL     1       1.828   7.330  18.799  0.00  0.00    +0.000 N 
ATOM     23  H   UNL     1       1.526   7.052  19.728  0.00  0.00    +0.000 HD
BRANCH  22  24
ATOM     24  C   UNL     1       2.376   6.298  17.929  0.00  0.00    +0.000 C 
BRANCH  24  25
ATOM     25  C   UNL     1       3.883   6.325  17.929  0.00  0.00    +0.000 A 
ATOM     26  C   UNL     1       4.595   6.772  16.790  0.00  0.00    +0.000 A 
ATOM     27  C   UNL     1       5.994   6.705  16.740  0.00  0.00    +0.000 A 
ATOM     28  C   UNL     1       6.647   6.170  17.828  0.00  0.00    +0.000 A 
ATOM     29  C   UNL     1       5.966   5.768  18.953  0.00  0.00    +0.000 A 
ATOM     30  C   UNL     1       4.594   5.850  19.044  0.00  0.00    +0.000 A 
ATOM     31  O   UNL     1       6.793   5.260  19.906  0.00  0.00    +0.000 OA
ATOM     32  C   UNL     1       8.041   5.234  19.181  0.00  0.00    +0.000 C 
ATOM     33  O   UNL     1       7.985   5.950  17.930  0.00  0.00    +0.000 OA
ENDBRANCH  24  25
ENDBRANCH  22  24
ENDBRANCH  19  20
BRANCH  19  34
ATOM     34  C   UNL     1       1.214   8.987  20.799  0.00  0.00    +0.000 C 
ATOM     35  N   UNL     1       1.126   8.409  21.917  0.00  0.00    +0.000 NA
ENDBRANCH  19  34
ENDBRANCH  10  19
TORSDOF 6
ENDMDL
