MODEL 1
REMARK VINA RESULT:      -9.0      0.000      0.000
REMARK  Name = 
REMARK  8 active torsions:
REMARK  status: ('A' for Active; 'I' for Inactive)
REMARK    1  A    between atoms: C_1  and  O_2
REMARK    2  A    between atoms: O_2  and  C_3
REMARK    3  A    between atoms: C_6  and  N_7
REMARK    4  A    between atoms: C_8  and  C_10
REMARK    5  A    between atoms: N_14  and  S_15
REMARK    6  A    between atoms: S_15  and  C_18
REMARK    7  A    between atoms: C_31  and  O_32
REMARK    8  A    between atoms: O_32  and  C_33
REMARK                            x       y       z     vdW  Elec       q    Type
REMARK                         _______ _______ _______ _____ _____    ______ ____
ROOT
ATOM      1  C   UNL     1       7.412   5.716  18.142  0.00  0.00    +0.000 C 
ATOM      2  C   UNL     1       7.476   4.890  16.864  0.00  0.00    +0.000 C 
ATOM      3  C   UNL     1       6.286   5.213  15.975  0.00  0.00    +0.000 C 
ATOM      4  C   UNL     1       4.963   4.982  16.684  0.00  0.00    +0.000 C 
ATOM      5  N   UNL     1       4.863   5.715  17.961  0.00  0.00    +0.000 NA
ATOM      6  C   UNL     1       6.063   5.473  18.864  0.00  0.00    +0.000 C 
ENDROOT
BRANCH   1   8
ATOM      7  N   UNL     1       8.375   7.924  18.771  0.00  0.00    +0.000 N 
ATOM      8  C   UNL     1       7.609   7.200  17.853  0.00  0.00    +0.000 C 
ATOM      9  O   UNL     1       7.080   7.680  16.851  0.00  0.00    +0.000 OA
ATOM     10  H   UNL     1       8.679   7.459  19.626  0.00  0.00    +0.000 HD
BRANCH   7  14
ATOM     11  C   UNL     1       9.394  12.067  18.343  0.00  0.00    +0.000 A 
ATOM     12  C   UNL     1       8.375  11.472  17.576  0.00  0.00    +0.000 A 
ATOM     13  C   UNL     1       7.985  10.125  17.743  0.00  0.00    +0.000 A 
ATOM     14  C   UNL     1       8.654   9.312  18.650  0.00  0.00    +0.000 A 
ATOM     15  C   UNL     1       9.611   9.928  19.453  0.00  0.00    +0.000 A 
ATOM     16  C   UNL     1       9.995  11.275  19.333  0.00  0.00    +0.000 A 
BRANCH  11  18
ATOM     17  C   UNL     1      10.496  13.911  17.255  0.00  0.00    +0.000 C 
ATOM     18  O   UNL     1       9.532  13.427  18.203  0.00  0.00    +0.000 OA
ENDBRANCH  11  18
BRANCH  16  19
ATOM     19  O   UNL     1      10.867  11.550  20.350  0.00  0.00    +0.000 OA
ATOM     20  C   UNL     1      12.123  12.056  20.005  0.00  0.00    +0.000 C 
ENDBRANCH  16  19
ENDBRANCH   7  14
ENDBRANCH   1   8
BRANCH   5  21
ATOM     21  S   UNL     1       3.346   5.483  18.785  0.00  0.00    +0.000 S 
ATOM     22  O   UNL     1       2.544   4.615  17.949  0.00  0.00    +0.000 OA
ATOM     23  O   UNL     1       3.644   5.103  20.151  0.00  0.00    +0.000 OA
BRANCH  21  24
ATOM     24  C   UNL     1       2.477   7.087  18.837  0.00  0.00    +0.000 A 
ATOM     25  C   UNL     1       2.608   7.938  17.724  0.00  0.00    +0.000 A 
ATOM     26  C   UNL     1       2.156   9.263  17.778  0.00  0.00    +0.000 A 
ATOM     27  C   UNL     1       1.508   9.719  18.919  0.00  0.00    +0.000 A 
ATOM     28  N   UNL     1       0.814  10.947  18.927  0.00  0.00    +0.000 N 
ATOM     29  C   UNL     1      -0.188  10.950  19.870  0.00  0.00    +0.000 A 
ATOM     30  O   UNL     1      -1.392  11.007  19.656  0.00  0.00    +0.000 OA
ATOM     31  C   UNL     1       0.410  10.878  21.294  0.00  0.00    +0.000 A 
ATOM     32  C   UNL     1       0.759   9.581  21.258  0.00  0.00    +0.000 A 
ATOM     33  C   UNL     1       1.381   8.913  20.066  0.00  0.00    +0.000 A 
ATOM     34  C   UNL     1       1.887   7.598  20.024  0.00  0.00    +0.000 A 
ATOM     35  H   UNL     1       0.617  11.387  18.042  0.00  0.00    +0.000 HD
ENDBRANCH  21  24
ENDBRANCH   5  21
TORSDOF 6
ENDMDL
MODEL 2
REMARK VINA RESULT:      -8.7      6.037      8.963
REMARK  Name = 
REMARK  8 active torsions:
REMARK  status: ('A' for Active; 'I' for Inactive)
REMARK    1  A    between atoms: C_1  and  O_2
REMARK    2  A    between atoms: O_2  and  C_3
REMARK    3  A    between atoms: C_6  and  N_7
REMARK    4  A    between atoms: C_8  and  C_10
REMARK    5  A    between atoms: N_14  and  S_15
REMARK    6  A    between atoms: S_15  and  C_18
REMARK    7  A    between atoms: C_31  and  O_32
REMARK    8  A    between atoms: O_32  and  C_33
REMARK                            x       y       z     vdW  Elec       q    Type
REMARK                         _______ _______ _______ _____ _____    ______ ____
ROOT
ATOM      1  C   UNL     1       1.608   9.994  21.687  0.00  0.00    +0.000 C 
ATOM      2  C   UNL     1       1.383   9.574  23.133  0.00  0.00    +0.000 C 
ATOM      3  C   UNL     1      -0.090   9.278  23.367  0.00  0.00    +0.000 C 
ATOM      4  C   UNL     1      -0.973  10.464  23.021  0.00  0.00    +0.000 C 
ATOM      5  N   UNL     1      -0.760  10.954  21.646  0.00  0.00    +0.000 NA
ATOM      6  C   UNL     1       0.708  11.207  21.341  0.00  0.00    +0.000 C 
ENDROOT
BRANCH   1   8
ATOM      7  N   UNL     1       2.103   7.678  20.918  0.00  0.00    +0.000 N 
ATOM      8  C   UNL     1       1.347   8.838  20.727  0.00  0.00    +0.000 C 
ATOM      9  O   UNL     1       0.508   8.989  19.839  0.00  0.00    +0.000 OA
ATOM     10  H   UNL     1       2.848   7.691  21.613  0.00  0.00    +0.000 HD
BRANCH   7  14
ATOM     11  C   UNL     1       1.548   4.179  18.502  0.00  0.00    +0.000 A 
ATOM     12  C   UNL     1       2.157   5.341  17.993  0.00  0.00    +0.000 A 
ATOM     13  C   UNL     1       2.402   6.483  18.788  0.00  0.00    +0.000 A 
ATOM     14  C   UNL     1       1.983   6.513  20.113  0.00  0.00    +0.000 A 
ATOM     15  C   UNL     1       1.446   5.335  20.625  0.00  0.00    +0.000 A 
ATOM     16  C   UNL     1       1.224   4.172  19.867  0.00  0.00    +0.000 A 
BRANCH  11  18
ATOM     17  C   UNL     1       2.669   2.191  17.733  0.00  0.00    +0.000 C 
ATOM     18  O   UNL     1       1.549   3.088  17.667  0.00  0.00    +0.000 OA
ENDBRANCH  11  18
BRANCH  16  19
ATOM     19  O   UNL     1       0.795   3.195  20.722  0.00  0.00    +0.000 OA
ATOM     20  C   UNL     1       1.732   2.654  21.607  0.00  0.00    +0.000 C 
ENDBRANCH  16  19
ENDBRANCH   7  14
ENDBRANCH   1   8
BRANCH   5  21
ATOM     21  S   UNL     1      -1.776  12.301  21.218  0.00  0.00    +0.000 S 
ATOM     22  O   UNL     1      -2.828  12.367  22.211  0.00  0.00    +0.000 OA
ATOM     23  O   UNL     1      -0.915  13.446  20.996  0.00  0.00    +0.000 OA
BRANCH  21  24
ATOM     24  C   UNL     1      -2.595  11.915  19.633  0.00  0.00    +0.000 A 
ATOM     25  C   UNL     1      -3.939  12.304  19.479  0.00  0.00    +0.000 A 
ATOM     26  C   UNL     1      -4.695  11.855  18.388  0.00  0.00    +0.000 A 
ATOM     27  C   UNL     1      -4.089  11.074  17.412  0.00  0.00    +0.000 A 
ATOM     28  N   UNL     1      -4.727  10.815  16.180  0.00  0.00    +0.000 N 
ATOM     29  C   UNL     1      -3.811  10.558  15.187  0.00  0.00    +0.000 A 
ATOM     30  O   UNL     1      -3.594  11.244  14.196  0.00  0.00    +0.000 OA
ATOM     31  C   UNL     1      -3.059   9.237  15.474  0.00  0.00    +0.000 A 
ATOM     32  C   UNL     1      -2.279   9.707  16.462  0.00  0.00    +0.000 A 
ATOM     33  C   UNL     1      -2.758  10.636  17.539  0.00  0.00    +0.000 A 
ATOM     34  C   UNL     1      -2.018  11.047  18.667  0.00  0.00    +0.000 A 
ATOM     35  H   UNL     1      -5.530  11.373  15.935  0.00  0.00    +0.000 HD
ENDBRANCH  21  24
ENDBRANCH   5  21
TORSDOF 6
ENDMDL
MODEL 3
REMARK VINA RESULT:      -8.7      1.144      1.628
REMARK  Name = 
REMARK  8 active torsions:
REMARK  status: ('A' for Active; 'I' for Inactive)
REMARK    1  A    between atoms: C_1  and  O_2
REMARK    2  A    between atoms: O_2  and  C_3
REMARK    3  A    between atoms: C_6  and  N_7
REMARK    4  A    between atoms: C_8  and  C_10
REMARK    5  A    between atoms: N_14  and  S_15
REMARK    6  A    between atoms: S_15  and  C_18
REMARK    7  A    between atoms: C_31  and  O_32
REMARK    8  A    between atoms: O_32  and  C_33
REMARK                            x       y       z     vdW  Elec       q    Type
REMARK                         _______ _______ _______ _____ _____    ______ ____
ROOT
ATOM      1  C   UNL     1       7.350   5.818  17.981  0.00  0.00    +0.000 C 
ATOM      2  C   UNL     1       7.421   5.155  16.612  0.00  0.00    +0.000 C 
ATOM      3  C   UNL     1       6.181   5.498  15.802  0.00  0.00    +0.000 C 
ATOM      4  C   UNL     1       4.903   5.094  16.515  0.00  0.00    +0.000 C 
ATOM      5  N   UNL     1       4.801   5.662  17.873  0.00  0.00    +0.000 NA
ATOM      6  C   UNL     1       6.047   5.398  18.706  0.00  0.00    +0.000 C 
ENDROOT
BRANCH   1   8
ATOM      7  N   UNL     1       8.424   7.968  18.632  0.00  0.00    +0.000 N 
ATOM      8  C   UNL     1       7.439   7.336  17.867  0.00  0.00    +0.000 C 
ATOM      9  O   UNL     1       6.643   7.919  17.132  0.00  0.00    +0.000 OA
ATOM     10  H   UNL     1       8.963   7.407  19.292  0.00  0.00    +0.000 HD
BRANCH   7  14
ATOM     11  C   UNL     1       9.268  12.172  18.650  0.00  0.00    +0.000 A 
ATOM     12  C   UNL     1       8.550  11.564  17.602  0.00  0.00    +0.000 A 
ATOM     13  C   UNL     1       8.212  10.193  17.605  0.00  0.00    +0.000 A 
ATOM     14  C   UNL     1       8.641   9.372  18.641  0.00  0.00    +0.000 A 
ATOM     15  C   UNL     1       9.287   9.995  19.706  0.00  0.00    +0.000 A 
ATOM     16  C   UNL     1       9.606  11.364  19.745  0.00  0.00    +0.000 A 
BRANCH  11  18
ATOM     17  C   UNL     1       8.149  14.286  18.368  0.00  0.00    +0.000 C 
ATOM     18  O   UNL     1       9.356  13.542  18.599  0.00  0.00    +0.000 OA
ENDBRANCH  11  18
BRANCH  16  19
ATOM     19  O   UNL     1      10.130  11.632  20.979  0.00  0.00    +0.000 OA
ATOM     20  C   UNL     1       9.306  12.277  21.906  0.00  0.00    +0.000 C 
ENDBRANCH  16  19
ENDBRANCH   7  14
ENDBRANCH   1   8
BRANCH   5  21
ATOM     21  S   UNL     1       3.334   5.230  18.705  0.00  0.00    +0.000 S 
ATOM     22  O   UNL     1       2.420   4.718  17.706  0.00  0.00    +0.000 OA
ATOM     23  O   UNL     1       3.701   4.409  19.841  0.00  0.00    +0.000 OA
BRANCH  21  24
ATOM     24  C   UNL     1       2.577   6.759  19.353  0.00  0.00    +0.000 A 
ATOM     25  C   UNL     1       1.943   6.693  20.608  0.00  0.00    +0.000 A 
ATOM     26  C   UNL     1       1.158   7.757  21.071  0.00  0.00    +0.000 A 
ATOM     27  C   UNL     1       1.062   8.917  20.312  0.00  0.00    +0.000 A 
ATOM     28  N   UNL     1       0.502  10.097  20.844  0.00  0.00    +0.000 N 
ATOM     29  C   UNL     1       0.999  11.215  20.214  0.00  0.00    +0.000 A 
ATOM     30  O   UNL     1       1.698  12.086  20.715  0.00  0.00    +0.000 OA
ATOM     31  C   UNL     1       0.544  11.250  18.737  0.00  0.00    +0.000 A 
ATOM     32  C   UNL     1       1.367  10.285  18.291  0.00  0.00    +0.000 A 
ATOM     33  C   UNL     1       1.652   9.015  19.038  0.00  0.00    +0.000 A 
ATOM     34  C   UNL     1       2.398   7.920  18.555  0.00  0.00    +0.000 A 
ATOM     35  H   UNL     1       0.367  10.151  21.841  0.00  0.00    +0.000 HD
ENDBRANCH  21  24
ENDBRANCH   5  21
TORSDOF 6
ENDMDL
MODEL 4
REMARK VINA RESULT:      -8.7      7.282     11.942
REMARK  Name = 
REMARK  8 active torsions:
REMARK  status: ('A' for Active; 'I' for Inactive)
REMARK    1  A    between atoms: C_1  and  O_2
REMARK    2  A    between atoms: O_2  and  C_3
REMARK    3  A    between atoms: C_6  and  N_7
REMARK    4  A    between atoms: C_8  and  C_10
REMARK    5  A    between atoms: N_14  and  S_15
REMARK    6  A    between atoms: S_15  and  C_18
REMARK    7  A    between atoms: C_31  and  O_32
REMARK    8  A    between atoms: O_32  and  C_33
REMARK                            x       y       z     vdW  Elec       q    Type
REMARK                         _______ _______ _______ _____ _____    ______ ____
ROOT
ATOM      1  C   UNL     1      -7.012  13.520  21.536  0.00  0.00    +0.000 C 
ATOM      2  C   UNL     1      -7.315  14.997  21.748  0.00  0.00    +0.000 C 
ATOM      3  C   UNL     1      -6.020  15.781  21.882  0.00  0.00    +0.000 C 
ATOM      4  C   UNL     1      -5.149  15.257  23.009  0.00  0.00    +0.000 C 
ATOM      5  N   UNL     1      -4.864  13.814  22.890  0.00  0.00    +0.000 NA
ATOM      6  C   UNL     1      -6.127  12.989  22.692  0.00  0.00    +0.000 C 
ENDROOT
BRANCH   1   8
ATOM      7  N   UNL     1      -5.336  12.307  20.150  0.00  0.00    +0.000 N 
ATOM      8  C   UNL     1      -6.340  13.279  20.188  0.00  0.00    +0.000 C 
ATOM      9  O   UNL     1      -6.699  13.952  19.223  0.00  0.00    +0.000 OA
ATOM     10  H   UNL     1      -5.037  11.881  21.027  0.00  0.00    +0.000 HD
BRANCH   7  14
ATOM     11  C   UNL     1      -3.090  11.104  16.702  0.00  0.00    +0.000 A 
ATOM     12  C   UNL     1      -4.494  11.203  16.674  0.00  0.00    +0.000 A 
ATOM     13  C   UNL     1      -5.248  11.652  17.780  0.00  0.00    +0.000 A 
ATOM     14  C   UNL     1      -4.612  11.961  18.978  0.00  0.00    +0.000 A 
ATOM     15  C   UNL     1      -3.220  11.928  18.973  0.00  0.00    +0.000 A 
ATOM     16  C   UNL     1      -2.443  11.519  17.875  0.00  0.00    +0.000 A 
BRANCH  11  18
ATOM     17  C   UNL     1      -3.243  10.119  14.509  0.00  0.00    +0.000 C 
ATOM     18  O   UNL     1      -2.485  10.835  15.498  0.00  0.00    +0.000 OA
ENDBRANCH  11  18
BRANCH  16  19
ATOM     19  O   UNL     1      -1.130  11.723  18.198  0.00  0.00    +0.000 OA
ATOM     20  C   UNL     1      -0.656  13.038  18.178  0.00  0.00    +0.000 C 
ENDBRANCH  16  19
ENDBRANCH   7  14
ENDBRANCH   1   8
BRANCH   5  21
ATOM     21  S   UNL     1      -3.849  13.192  24.161  0.00  0.00    +0.000 S 
ATOM     22  O   UNL     1      -3.404  14.330  24.936  0.00  0.00    +0.000 OA
ATOM     23  O   UNL     1      -4.567  12.111  24.805  0.00  0.00    +0.000 OA
BRANCH  21  24
ATOM     24  C   UNL     1      -2.353  12.480  23.395  0.00  0.00    +0.000 A 
ATOM     25  C   UNL     1      -1.548  13.332  22.617  0.00  0.00    +0.000 A 
ATOM     26  C   UNL     1      -0.513  12.815  21.826  0.00  0.00    +0.000 A 
ATOM     27  C   UNL     1      -0.235  11.454  21.867  0.00  0.00    +0.000 A 
ATOM     28  N   UNL     1       0.944  10.929  21.297  0.00  0.00    +0.000 N 
ATOM     29  C   UNL     1       1.315   9.755  21.909  0.00  0.00    +0.000 A 
ATOM     30  O   UNL     1       2.322   9.566  22.580  0.00  0.00    +0.000 OA
ATOM     31  C   UNL     1       0.272   8.647  21.632  0.00  0.00    +0.000 A 
ATOM     32  C   UNL     1      -0.679   9.109  22.462  0.00  0.00    +0.000 A 
ATOM     33  C   UNL     1      -1.032  10.561  22.606  0.00  0.00    +0.000 A 
ATOM     34  C   UNL     1      -2.106  11.081  23.358  0.00  0.00    +0.000 A 
ATOM     35  H   UNL     1       1.678  11.573  21.048  0.00  0.00    +0.000 HD
ENDBRANCH  21  24
ENDBRANCH   5  21
TORSDOF 6
ENDMDL
MODEL 5
REMARK VINA RESULT:      -8.7      7.838     10.278
REMARK  Name = 
REMARK  8 active torsions:
REMARK  status: ('A' for Active; 'I' for Inactive)
REMARK    1  A    between atoms: C_1  and  O_2
REMARK    2  A    between atoms: O_2  and  C_3
REMARK    3  A    between atoms: C_6  and  N_7
REMARK    4  A    between atoms: C_8  and  C_10
REMARK    5  A    between atoms: N_14  and  S_15
REMARK    6  A    between atoms: S_15  and  C_18
REMARK    7  A    between atoms: C_31  and  O_32
REMARK    8  A    between atoms: O_32  and  C_33
REMARK                            x       y       z     vdW  Elec       q    Type
REMARK                         _______ _______ _______ _____ _____    ______ ____
ROOT
ATOM      1  C   UNL     1      -2.834   9.474  17.222  0.00  0.00    +0.000 C 
ATOM      2  C   UNL     1      -2.789   9.901  15.761  0.00  0.00    +0.000 C 
ATOM      3  C   UNL     1      -3.242  11.346  15.626  0.00  0.00    +0.000 C 
ATOM      4  C   UNL     1      -4.632  11.565  16.194  0.00  0.00    +0.000 C 
ATOM      5  N   UNL     1      -4.755  11.118  17.595  0.00  0.00    +0.000 NA
ATOM      6  C   UNL     1      -4.256   9.695  17.796  0.00  0.00    +0.000 C 
ENDROOT
BRANCH   1   8
ATOM      7  N   UNL     1      -2.279  11.191  18.937  0.00  0.00    +0.000 N 
ATOM      8  C   UNL     1      -1.796  10.224  18.051  0.00  0.00    +0.000 C 
ATOM      9  O   UNL     1      -0.607   9.954  17.890  0.00  0.00    +0.000 OA
ATOM     10  H   UNL     1      -3.273  11.416  18.919  0.00  0.00    +0.000 HD
BRANCH   7  14
ATOM     11  C   UNL     1       0.364  13.426  21.469  0.00  0.00    +0.000 A 
ATOM     12  C   UNL     1      -0.049  13.914  20.214  0.00  0.00    +0.000 A 
ATOM     13  C   UNL     1      -0.964  13.221  19.392  0.00  0.00    +0.000 A 
ATOM     14  C   UNL     1      -1.448  11.977  19.781  0.00  0.00    +0.000 A 
ATOM     15  C   UNL     1      -1.089  11.537  21.052  0.00  0.00    +0.000 A 
ATOM     16  C   UNL     1      -0.209  12.223  21.907  0.00  0.00    +0.000 A 
BRANCH  11  18
ATOM     17  C   UNL     1       2.352  14.765  21.701  0.00  0.00    +0.000 C 
ATOM     18  O   UNL     1       1.104  14.294  22.234  0.00  0.00    +0.000 OA
ENDBRANCH  11  18
BRANCH  16  19
ATOM     19  O   UNL     1      -0.183  11.554  23.099  0.00  0.00    +0.000 OA
ATOM     20  C   UNL     1      -0.656  10.239  23.113  0.00  0.00    +0.000 C 
ENDBRANCH  16  19
ENDBRANCH   7  14
ENDBRANCH   1   8
BRANCH   5  21
ATOM     21  S   UNL     1      -6.336  11.377  18.277  0.00  0.00    +0.000 S 
ATOM     22  O   UNL     1      -7.055  12.233  17.357  0.00  0.00    +0.000 OA
ATOM     23  O   UNL     1      -6.876  10.081  18.635  0.00  0.00    +0.000 OA
BRANCH  21  24
ATOM     24  C   UNL     1      -6.140  12.336  19.818  0.00  0.00    +0.000 A 
ATOM     25  C   UNL     1      -4.847  12.779  20.152  0.00  0.00    +0.000 A 
ATOM     26  C   UNL     1      -4.581  13.326  21.415  0.00  0.00    +0.000 A 
ATOM     27  C   UNL     1      -5.621  13.497  22.319  0.00  0.00    +0.000 A 
ATOM     28  N   UNL     1      -5.457  14.269  23.488  0.00  0.00    +0.000 N 
ATOM     29  C   UNL     1      -6.657  14.786  23.919  0.00  0.00    +0.000 A 
ATOM     30  O   UNL     1      -6.973  15.968  23.955  0.00  0.00    +0.000 OA
ATOM     31  C   UNL     1      -7.600  13.651  24.381  0.00  0.00    +0.000 A 
ATOM     32  C   UNL     1      -7.913  13.192  23.158  0.00  0.00    +0.000 A 
ATOM     33  C   UNL     1      -6.923  13.041  22.040  0.00  0.00    +0.000 A 
ATOM     34  C   UNL     1      -7.173  12.442  20.788  0.00  0.00    +0.000 A 
ATOM     35  H   UNL     1      -4.647  14.865  23.553  0.00  0.00    +0.000 HD
ENDBRANCH  21  24
ENDBRANCH   5  21
TORSDOF 6
ENDMDL
MODEL 6
REMARK VINA RESULT:      -8.6      5.535      8.914
REMARK  Name = 
REMARK  8 active torsions:
REMARK  status: ('A' for Active; 'I' for Inactive)
REMARK    1  A    between atoms: C_1  and  O_2
REMARK    2  A    between atoms: O_2  and  C_3
REMARK    3  A    between atoms: C_6  and  N_7
REMARK    4  A    between atoms: C_8  and  C_10
REMARK    5  A    between atoms: N_14  and  S_15
REMARK    6  A    between atoms: S_15  and  C_18
REMARK    7  A    between atoms: C_31  and  O_32
REMARK    8  A    between atoms: O_32  and  C_33
REMARK                            x       y       z     vdW  Elec       q    Type
REMARK                         _______ _______ _______ _____ _____    ______ ____
ROOT
ATOM      1  C   UNL     1       1.645   9.930  19.533  0.00  0.00    +0.000 C 
ATOM      2  C   UNL     1       1.141   9.810  20.965  0.00  0.00    +0.000 C 
ATOM      3  C   UNL     1      -0.304   9.336  20.971  0.00  0.00    +0.000 C 
ATOM      4  C   UNL     1      -1.210  10.254  20.170  0.00  0.00    +0.000 C 
ATOM      5  N   UNL     1      -0.742  10.455  18.785  0.00  0.00    +0.000 NA
ATOM      6  C   UNL     1       0.720  10.872  18.722  0.00  0.00    +0.000 C 
ENDROOT
BRANCH   1   8
ATOM      7  N   UNL     1       2.215   7.509  19.651  0.00  0.00    +0.000 N 
ATOM      8  C   UNL     1       1.744   8.564  18.863  0.00  0.00    +0.000 C 
ATOM      9  O   UNL     1       1.424   8.464  17.679  0.00  0.00    +0.000 OA
ATOM     10  H   UNL     1       2.556   7.716  20.589  0.00  0.00    +0.000 HD
BRANCH   7  14
ATOM     11  C   UNL     1       2.487   3.493  18.175  0.00  0.00    +0.000 A 
ATOM     12  C   UNL     1       3.261   4.536  17.631  0.00  0.00    +0.000 A 
ATOM     13  C   UNL     1       3.229   5.853  18.141  0.00  0.00    +0.000 A 
ATOM     14  C   UNL     1       2.366   6.177  19.181  0.00  0.00    +0.000 A 
ATOM     15  C   UNL     1       1.658   5.124  19.757  0.00  0.00    +0.000 A 
ATOM     16  C   UNL     1       1.698   3.798  19.293  0.00  0.00    +0.000 A 
BRANCH  11  18
ATOM     17  C   UNL     1       3.642   1.401  18.476  0.00  0.00    +0.000 C 
ATOM     18  O   UNL     1       2.764   2.233  17.701  0.00  0.00    +0.000 OA
ENDBRANCH  11  18
BRANCH  16  19
ATOM     19  O   UNL     1       0.973   3.033  20.164  0.00  0.00    +0.000 OA
ATOM     20  C   UNL     1       1.518   2.804  21.431  0.00  0.00    +0.000 C 
ENDBRANCH  16  19
ENDBRANCH   7  14
ENDBRANCH   1   8
BRANCH   5  21
ATOM     21  S   UNL     1      -1.776  11.489  17.840  0.00  0.00    +0.000 S 
ATOM     22  O   UNL     1      -1.265  12.836  17.981  0.00  0.00    +0.000 OA
ATOM     23  O   UNL     1      -1.904  10.895  16.524  0.00  0.00    +0.000 OA
BRANCH  21  24
ATOM     24  C   UNL     1      -3.433  11.489  18.606  0.00  0.00    +0.000 A 
ATOM     25  C   UNL     1      -4.443  10.738  17.978  0.00  0.00    +0.000 A 
ATOM     26  C   UNL     1      -5.781  10.861  18.377  0.00  0.00    +0.000 A 
ATOM     27  C   UNL     1      -6.101  11.681  19.451  0.00  0.00    +0.000 A 
ATOM     28  N   UNL     1      -7.379  11.641  20.048  0.00  0.00    +0.000 N 
ATOM     29  C   UNL     1      -7.329  12.044  21.363  0.00  0.00    +0.000 A 
ATOM     30  O   UNL     1      -7.554  11.353  22.348  0.00  0.00    +0.000 OA
ATOM     31  C   UNL     1      -6.947  13.540  21.456  0.00  0.00    +0.000 A 
ATOM     32  C   UNL     1      -5.646  13.394  21.156  0.00  0.00    +0.000 A 
ATOM     33  C   UNL     1      -5.129  12.474  20.088  0.00  0.00    +0.000 A 
ATOM     34  C   UNL     1      -3.793  12.386  19.647  0.00  0.00    +0.000 A 
ATOM     35  H   UNL     1      -7.983  10.867  19.825  0.00  0.00    +0.000 HD
ENDBRANCH  21  24
ENDBRANCH   5  21
TORSDOF 6
ENDMDL
MODEL 7
REMARK VINA RESULT:      -8.6      5.341     10.002
REMARK  Name = 
REMARK  8 active torsions:
REMARK  status: ('A' for Active; 'I' for Inactive)
REMARK    1  A    between atoms: C_1  and  O_2
REMARK    2  A    between atoms: O_2  and  C_3
REMARK    3  A    between atoms: C_6  and  N_7
REMARK    4  A    between atoms: C_8  and  C_10
REMARK    5  A    between atoms: N_14  and  S_15
REMARK    6  A    between atoms: S_15  and  C_18
REMARK    7  A    between atoms: C_31  and  O_32
REMARK    8  A    between atoms: O_32  and  C_33
REMARK                            x       y       z     vdW  Elec       q    Type
REMARK                         _______ _______ _______ _____ _____    ______ ____
ROOT
ATOM      1  C   UNL     1       1.099  12.427  19.547  0.00  0.00    +0.000 C 
ATOM      2  C   UNL     1       2.130  12.116  18.470  0.00  0.00    +0.000 C 
ATOM      3  C   UNL     1       1.853  10.750  17.862  0.00  0.00    +0.000 C 
ATOM      4  C   UNL     1       1.839   9.651  18.909  0.00  0.00    +0.000 C 
ATOM      5  N   UNL     1       0.896   9.922  20.011  0.00  0.00    +0.000 NA
ATOM      6  C   UNL     1       1.092  11.304  20.615  0.00  0.00    +0.000 C 
ENDROOT
BRANCH   1   8
ATOM      7  N   UNL     1      -1.286  11.730  19.386  0.00  0.00    +0.000 N 
ATOM      8  C   UNL     1      -0.292  12.608  18.947  0.00  0.00    +0.000 C 
ATOM      9  O   UNL     1      -0.461  13.494  18.109  0.00  0.00    +0.000 OA
ATOM     10  H   UNL     1      -1.020  10.962  20.002  0.00  0.00    +0.000 HD
BRANCH   7  14
ATOM     11  C   UNL     1      -5.349  11.637  18.018  0.00  0.00    +0.000 A 
ATOM     12  C   UNL     1      -4.991  12.248  19.235  0.00  0.00    +0.000 A 
ATOM     13  C   UNL     1      -3.652  12.341  19.676  0.00  0.00    +0.000 A 
ATOM     14  C   UNL     1      -2.631  11.764  18.929  0.00  0.00    +0.000 A 
ATOM     15  C   UNL     1      -2.987  11.225  17.695  0.00  0.00    +0.000 A 
ATOM     16  C   UNL     1      -4.306  11.152  17.216  0.00  0.00    +0.000 A 
BRANCH  11  18
ATOM     17  C   UNL     1      -7.178  13.127  17.533  0.00  0.00    +0.000 C 
ATOM     18  O   UNL     1      -6.659  11.791  17.635  0.00  0.00    +0.000 OA
ENDBRANCH  11  18
BRANCH  16  19
ATOM     19  O   UNL     1      -4.256  10.669  15.937  0.00  0.00    +0.000 OA
ATOM     20  C   UNL     1      -3.037  10.758  15.260  0.00  0.00    +0.000 C 
ENDBRANCH  16  19
ENDBRANCH   7  14
ENDBRANCH   1   8
BRANCH   5  21
ATOM     21  S   UNL     1       0.846   8.665  21.215  0.00  0.00    +0.000 S 
ATOM     22  O   UNL     1       1.713   9.084  22.296  0.00  0.00    +0.000 OA
ATOM     23  O   UNL     1      -0.548   8.365  21.477  0.00  0.00    +0.000 OA
BRANCH  21  24
ATOM     24  C   UNL     1       1.606   7.166  20.503  0.00  0.00    +0.000 A 
ATOM     25  C   UNL     1       2.461   7.328  19.397  0.00  0.00    +0.000 A 
ATOM     26  C   UNL     1       2.906   6.219  18.666  0.00  0.00    +0.000 A 
ATOM     27  C   UNL     1       2.554   4.941  19.081  0.00  0.00    +0.000 A 
ATOM     28  N   UNL     1       3.178   3.797  18.540  0.00  0.00    +0.000 N 
ATOM     29  C   UNL     1       3.143   2.743  19.424  0.00  0.00    +0.000 A 
ATOM     30  O   UNL     1       4.103   2.217  19.973  0.00  0.00    +0.000 OA
ATOM     31  C   UNL     1       1.687   2.273  19.647  0.00  0.00    +0.000 A 
ATOM     32  C   UNL     1       1.301   3.302  20.420  0.00  0.00    +0.000 A 
ATOM     33  C   UNL     1       1.677   4.732  20.162  0.00  0.00    +0.000 A 
ATOM     34  C   UNL     1       1.190   5.855  20.861  0.00  0.00    +0.000 A 
ATOM     35  H   UNL     1       4.023   3.925  18.008  0.00  0.00    +0.000 HD
ENDBRANCH  21  24
ENDBRANCH   5  21
TORSDOF 6
ENDMDL
MODEL 8
REMARK VINA RESULT:      -8.6      7.723     10.003
REMARK  Name = 
REMARK  8 active torsions:
REMARK  status: ('A' for Active; 'I' for Inactive)
REMARK    1  A    between atoms: C_1  and  O_2
REMARK    2  A    between atoms: O_2  and  C_3
REMARK    3  A    between atoms: C_6  and  N_7
REMARK    4  A    between atoms: C_8  and  C_10
REMARK    5  A    between atoms: N_14  and  S_15
REMARK    6  A    between atoms: S_15  and  C_18
REMARK    7  A    between atoms: C_31  and  O_32
REMARK    8  A    between atoms: O_32  and  C_33
REMARK                            x       y       z     vdW  Elec       q    Type
REMARK                         _______ _______ _______ _____ _____    ______ ____
ROOT
ATOM      1  C   UNL     1      -2.829   9.600  17.531  0.00  0.00    +0.000 C 
ATOM      2  C   UNL     1      -2.739   9.765  16.020  0.00  0.00    +0.000 C 
ATOM      3  C   UNL     1      -3.047  11.203  15.633  0.00  0.00    +0.000 C 
ATOM      4  C   UNL     1      -4.410  11.649  16.130  0.00  0.00    +0.000 C 
ATOM      5  N   UNL     1      -4.580  11.462  17.583  0.00  0.00    +0.000 NA
ATOM      6  C   UNL     1      -4.224  10.052  18.031  0.00  0.00    +0.000 C 
ENDROOT
BRANCH   1   8
ATOM      7  N   UNL     1      -2.130  11.347  19.162  0.00  0.00    +0.000 N 
ATOM      8  C   UNL     1      -1.725  10.376  18.241  0.00  0.00    +0.000 C 
ATOM      9  O   UNL     1      -0.553  10.124  17.960  0.00  0.00    +0.000 OA
ATOM     10  H   UNL     1      -3.124  11.555  19.244  0.00  0.00    +0.000 HD
BRANCH   7  14
ATOM     11  C   UNL     1       0.436  13.903  21.457  0.00  0.00    +0.000 A 
ATOM     12  C   UNL     1       0.215  12.560  21.816  0.00  0.00    +0.000 A 
ATOM     13  C   UNL     1      -0.579  11.686  21.042  0.00  0.00    +0.000 A 
ATOM     14  C   UNL     1      -1.230  12.156  19.907  0.00  0.00    +0.000 A 
ATOM     15  C   UNL     1      -0.949  13.464  19.522  0.00  0.00    +0.000 A 
ATOM     16  C   UNL     1      -0.135  14.345  20.254  0.00  0.00    +0.000 A 
BRANCH  11  18
ATOM     17  C   UNL     1       2.729  14.595  21.709  0.00  0.00    +0.000 C 
ATOM     18  O   UNL     1       1.378  14.574  22.199  0.00  0.00    +0.000 OA
ENDBRANCH  11  18
BRANCH  16  19
ATOM     19  O   UNL     1       0.000  15.491  19.520  0.00  0.00    +0.000 OA
ATOM     20  C   UNL     1       1.135  15.613  18.713  0.00  0.00    +0.000 C 
ENDBRANCH  16  19
ENDBRANCH   7  14
ENDBRANCH   1   8
BRANCH   5  21
ATOM     21  S   UNL     1      -6.129  11.985  18.181  0.00  0.00    +0.000 S 
ATOM     22  O   UNL     1      -6.410  13.261  17.558  0.00  0.00    +0.000 OA
ATOM     23  O   UNL     1      -7.054  10.881  18.024  0.00  0.00    +0.000 OA
BRANCH  21  24
ATOM     24  C   UNL     1      -5.967  12.315  19.969  0.00  0.00    +0.000 A 
ATOM     25  C   UNL     1      -7.149  12.426  20.724  0.00  0.00    +0.000 A 
ATOM     26  C   UNL     1      -7.116  12.890  22.045  0.00  0.00    +0.000 A 
ATOM     27  C   UNL     1      -5.892  13.176  22.638  0.00  0.00    +0.000 A 
ATOM     28  N   UNL     1      -5.785  13.396  24.028  0.00  0.00    +0.000 N 
ATOM     29  C   UNL     1      -4.524  13.091  24.486  0.00  0.00    +0.000 A 
ATOM     30  O   UNL     1      -4.226  12.188  25.256  0.00  0.00    +0.000 OA
ATOM     31  C   UNL     1      -3.483  14.070  23.897  0.00  0.00    +0.000 A 
ATOM     32  C   UNL     1      -3.463  13.558  22.655  0.00  0.00    +0.000 A 
ATOM     33  C   UNL     1      -4.688  13.110  21.913  0.00  0.00    +0.000 A 
ATOM     34  C   UNL     1      -4.735  12.694  20.567  0.00  0.00    +0.000 A 
ATOM     35  H   UNL     1      -6.564  13.136  24.611  0.00  0.00    +0.000 HD
ENDBRANCH  21  24
ENDBRANCH   5  21
TORSDOF 6
ENDMDL
MODEL 9
REMARK VINA RESULT:      -8.5      6.013      9.281
REMARK  Name = 
REMARK  8 active torsions:
REMARK  status: ('A' for Active; 'I' for Inactive)
REMARK    1  A    between atoms: C_1  and  O_2
REMARK    2  A    between atoms: O_2  and  C_3
REMARK    3  A    between atoms: C_6  and  N_7
REMARK    4  A    between atoms: C_8  and  C_10
REMARK    5  A    between atoms: N_14  and  S_15
REMARK    6  A    between atoms: S_15  and  C_18
REMARK    7  A    between atoms: C_31  and  O_32
REMARK    8  A    between atoms: O_32  and  C_33
REMARK                            x       y       z     vdW  Elec       q    Type
REMARK                         _______ _______ _______ _____ _____    ______ ____
ROOT
ATOM      1  C   UNL     1       1.398   9.756  21.914  0.00  0.00    +0.000 C 
ATOM      2  C   UNL     1       0.598   9.574  23.197  0.00  0.00    +0.000 C 
ATOM      3  C   UNL     1      -0.889   9.692  22.905  0.00  0.00    +0.000 C 
ATOM      4  C   UNL     1      -1.240  11.017  22.251  0.00  0.00    +0.000 C 
ATOM      5  N   UNL     1      -0.456  11.277  21.029  0.00  0.00    +0.000 NA
ATOM      6  C   UNL     1       1.040  11.111  21.253  0.00  0.00    +0.000 C 
ENDROOT
BRANCH   1   8
ATOM      7  N   UNL     1       2.111   7.580  20.935  0.00  0.00    +0.000 N 
ATOM      8  C   UNL     1       1.159   8.603  20.944  0.00  0.00    +0.000 C 
ATOM      9  O   UNL     1       0.165   8.640  20.219  0.00  0.00    +0.000 OA
ATOM     10  H   UNL     1       2.955   7.695  21.496  0.00  0.00    +0.000 HD
BRANCH   7  14
ATOM     11  C   UNL     1       1.698   4.143  18.406  0.00  0.00    +0.000 A 
ATOM     12  C   UNL     1       2.290   5.335  17.946  0.00  0.00    +0.000 A 
ATOM     13  C   UNL     1       2.488   6.457  18.779  0.00  0.00    +0.000 A 
ATOM     14  C   UNL     1       2.039   6.437  20.094  0.00  0.00    +0.000 A 
ATOM     15  C   UNL     1       1.519   5.232  20.559  0.00  0.00    +0.000 A 
ATOM     16  C   UNL     1       1.343   4.087  19.761  0.00  0.00    +0.000 A 
BRANCH  11  18
ATOM     17  C   UNL     1       2.786   2.105  17.724  0.00  0.00    +0.000 C 
ATOM     18  O   UNL     1       1.746   3.078  17.538  0.00  0.00    +0.000 OA
ENDBRANCH  11  18
BRANCH  16  19
ATOM     19  O   UNL     1       0.920   3.075  20.577  0.00  0.00    +0.000 OA
ATOM     20  C   UNL     1       1.658   2.828  21.738  0.00  0.00    +0.000 C 
ENDBRANCH  16  19
ENDBRANCH   7  14
ENDBRANCH   1   8
BRANCH   5  21
ATOM     21  S   UNL     1      -0.854  12.781  20.248  0.00  0.00    +0.000 S 
ATOM     22  O   UNL     1      -0.523  13.838  21.179  0.00  0.00    +0.000 OA
ATOM     23  O   UNL     1      -0.254  12.762  18.929  0.00  0.00    +0.000 OA
BRANCH  21  24
ATOM     24  C   UNL     1      -2.665  12.844  20.027  0.00  0.00    +0.000 A 
ATOM     25  C   UNL     1      -3.414  13.574  20.969  0.00  0.00    +0.000 A 
ATOM     26  C   UNL     1      -4.812  13.491  20.993  0.00  0.00    +0.000 A 
ATOM     27  C   UNL     1      -5.469  12.734  20.031  0.00  0.00    +0.000 A 
ATOM     28  N   UNL     1      -6.866  12.823  19.856  0.00  0.00    +0.000 N 
ATOM     29  C   UNL     1      -7.231  12.491  18.571  0.00  0.00    +0.000 A 
ATOM     30  O   UNL     1      -7.725  13.237  17.736  0.00  0.00    +0.000 OA
ATOM     31  C   UNL     1      -6.940  10.998  18.295  0.00  0.00    +0.000 A 
ATOM     32  C   UNL     1      -5.605  11.110  18.189  0.00  0.00    +0.000 A 
ATOM     33  C   UNL     1      -4.761  11.964  19.090  0.00  0.00    +0.000 A 
ATOM     34  C   UNL     1      -3.351  12.010  19.104  0.00  0.00    +0.000 A 
ATOM     35  H   UNL     1      -7.350  13.592  20.290  0.00  0.00    +0.000 HD
ENDBRANCH  21  24
ENDBRANCH   5  21
TORSDOF 6
ENDMDL
