MODEL 1
REMARK VINA RESULT:      -7.5      0.000      0.000
REMARK  Name = 
REMARK  6 active torsions:
REMARK  status: ('A' for Active; 'I' for Inactive)
REMARK    1  A    between atoms: C_1  and  C_2
REMARK    2  A    between atoms: C_8  and  C_9
REMARK    3  A    between atoms: C_9  and  C_10
REMARK    4  A    between atoms: C_10  and  N_11
REMARK    5  A    between atoms: C_12  and  C_14
REMARK    6  A    between atoms: C_18  and  C_19
REMARK                            x       y       z     vdW  Elec       q    Type
REMARK                         _______ _______ _______ _____ _____    ______ ____
ROOT
ATOM      1  N   UNL     1       5.915   5.917  15.942  0.00  0.00    +0.000 N 
ATOM      2  C   UNL     1       6.558   4.797  15.451  0.00  0.00    +0.000 C 
ATOM      3  O   UNL     1       6.726   3.788  16.113  0.00  0.00    +0.000 OA
ATOM      4  H   UNL     1       5.624   6.604  15.253  0.00  0.00    +0.000 HD
ENDROOT
BRANCH   2   5
ATOM      5  C   UNL     1       7.053   4.931  14.079  0.00  0.00    +0.000 A 
ATOM      6  N   UNL     1       8.128   5.745  13.735  0.00  0.00    +0.000 NA
ATOM      7  C   UNL     1       8.301   5.500  12.457  0.00  0.00    +0.000 A 
ATOM      8  O   UNL     1       7.421   4.629  11.903  0.00  0.00    +0.000 OA
ATOM      9  C   UNL     1       6.598   4.270  12.939  0.00  0.00    +0.000 A 
BRANCH   9  10
ATOM     10  C   UNL     1       5.437   3.288  12.817  0.00  0.00    +0.000 C 
ATOM     11  C   UNL     1       4.456   3.431  11.666  0.00  0.00    +0.000 C 
ATOM     12  C   UNL     1       5.447   2.325  11.650  0.00  0.00    +0.000 C 
ENDBRANCH   9  10
ENDBRANCH   2   5
BRANCH   1  13
ATOM     13  C   UNL     1       5.325   5.917  17.282  0.00  0.00    +0.000 C 
BRANCH  13  14
ATOM     14  C   UNL     1       3.789   5.757  17.293  0.00  0.00    +0.000 C 
BRANCH  14  22
ATOM     15  C   UNL     1       2.394   5.668  20.029  0.00  0.00    +0.000 C 
ATOM     16  C   UNL     1       2.665   4.414  19.234  0.00  0.00    +0.000 A 
ATOM     17  C   UNL     1       2.293   3.142  19.731  0.00  0.00    +0.000 A 
ATOM     18 BR   UNL     1       1.415   2.878  21.404  0.00  0.00    +0.000 Br
ATOM     19  C   UNL     1       2.552   1.974  19.007  0.00  0.00    +0.000 A 
ATOM     20  C   UNL     1       3.185   2.043  17.776  0.00  0.00    +0.000 A 
ATOM     21  C   UNL     1       3.557   3.281  17.262  0.00  0.00    +0.000 A 
ATOM     22  C   UNL     1       3.311   4.478  17.969  0.00  0.00    +0.000 A 
ENDBRANCH  14  22
ENDBRANCH  13  14
ENDBRANCH   1  13
TORSDOF 5
ENDMDL
MODEL 2
REMARK VINA RESULT:      -7.3      0.973      1.914
REMARK  Name = 
REMARK  6 active torsions:
REMARK  status: ('A' for Active; 'I' for Inactive)
REMARK    1  A    between atoms: C_1  and  C_2
REMARK    2  A    between atoms: C_8  and  C_9
REMARK    3  A    between atoms: C_9  and  C_10
REMARK    4  A    between atoms: C_10  and  N_11
REMARK    5  A    between atoms: C_12  and  C_14
REMARK    6  A    between atoms: C_18  and  C_19
REMARK                            x       y       z     vdW  Elec       q    Type
REMARK                         _______ _______ _______ _____ _____    ______ ____
ROOT
ATOM      1  N   UNL     1       5.878   5.897  16.057  0.00  0.00    +0.000 N 
ATOM      2  C   UNL     1       6.351   4.724  15.504  0.00  0.00    +0.000 C 
ATOM      3  O   UNL     1       6.334   3.659  16.096  0.00  0.00    +0.000 OA
ATOM      4  H   UNL     1       5.723   6.666  15.412  0.00  0.00    +0.000 HD
ENDROOT
BRANCH   2   5
ATOM      5  C   UNL     1       6.907   4.866  14.155  0.00  0.00    +0.000 A 
ATOM      6  N   UNL     1       8.010   5.663  13.869  0.00  0.00    +0.000 NA
ATOM      7  C   UNL     1       8.233   5.433  12.596  0.00  0.00    +0.000 A 
ATOM      8  O   UNL     1       7.362   4.586  11.993  0.00  0.00    +0.000 OA
ATOM      9  C   UNL     1       6.489   4.229  12.989  0.00  0.00    +0.000 A 
BRANCH   9  10
ATOM     10  C   UNL     1       5.315   3.271  12.803  0.00  0.00    +0.000 C 
ATOM     11  C   UNL     1       4.437   3.396  11.571  0.00  0.00    +0.000 C 
ATOM     12  C   UNL     1       5.396   2.267  11.675  0.00  0.00    +0.000 C 
ENDBRANCH   9  10
ENDBRANCH   2   5
BRANCH   1  13
ATOM     13  C   UNL     1       5.251   5.904  17.380  0.00  0.00    +0.000 C 
BRANCH  13  14
ATOM     14  C   UNL     1       3.794   6.416  17.384  0.00  0.00    +0.000 C 
BRANCH  14  22
ATOM     15  C   UNL     1       2.592   3.609  17.049  0.00  0.00    +0.000 C 
ATOM     16  C   UNL     1       2.339   4.439  18.283  0.00  0.00    +0.000 A 
ATOM     17  C   UNL     1       1.523   3.954  19.333  0.00  0.00    +0.000 A 
ATOM     18 BR   UNL     1       0.690   2.238  19.316  0.00  0.00    +0.000 Br
ATOM     19  C   UNL     1       1.273   4.723  20.474  0.00  0.00    +0.000 A 
ATOM     20  C   UNL     1       1.826   5.988  20.599  0.00  0.00    +0.000 A 
ATOM     21  C   UNL     1       2.636   6.486  19.584  0.00  0.00    +0.000 A 
ATOM     22  C   UNL     1       2.908   5.736  18.418  0.00  0.00    +0.000 A 
ENDBRANCH  14  22
ENDBRANCH  13  14
ENDBRANCH   1  13
TORSDOF 5
ENDMDL
MODEL 3
REMARK VINA RESULT:      -7.3      6.388      8.519
REMARK  Name = 
REMARK  6 active torsions:
REMARK  status: ('A' for Active; 'I' for Inactive)
REMARK    1  A    between atoms: C_1  and  C_2
REMARK    2  A    between atoms: C_8  and  C_9
REMARK    3  A    between atoms: C_9  and  C_10
REMARK    4  A    between atoms: C_10  and  N_11
REMARK    5  A    between atoms: C_12  and  C_14
REMARK    6  A    between atoms: C_18  and  C_19
REMARK                            x       y       z     vdW  Elec       q    Type
REMARK                         _______ _______ _______ _____ _____    ______ ____
ROOT
ATOM      1  N   UNL     1       7.807   8.160  17.490  0.00  0.00    +0.000 N 
ATOM      2  C   UNL     1       7.556   6.840  17.813  0.00  0.00    +0.000 C 
ATOM      3  O   UNL     1       7.934   6.330  18.853  0.00  0.00    +0.000 OA
ATOM      4  H   UNL     1       7.262   8.546  16.725  0.00  0.00    +0.000 HD
ENDROOT
BRANCH   2   5
ATOM      5  C   UNL     1       6.826   6.091  16.787  0.00  0.00    +0.000 A 
ATOM      6  N   UNL     1       7.380   5.748  15.557  0.00  0.00    +0.000 NA
ATOM      7  C   UNL     1       6.448   5.013  14.996  0.00  0.00    +0.000 A 
ATOM      8  O   UNL     1       5.309   4.860  15.716  0.00  0.00    +0.000 OA
ATOM      9  C   UNL     1       5.536   5.570  16.868  0.00  0.00    +0.000 A 
BRANCH   9  10
ATOM     10  C   UNL     1       4.536   5.696  18.013  0.00  0.00    +0.000 C 
ATOM     11  C   UNL     1       3.457   6.762  17.949  0.00  0.00    +0.000 C 
ATOM     12  C   UNL     1       3.093   5.339  17.732  0.00  0.00    +0.000 C 
ENDBRANCH   9  10
ENDBRANCH   2   5
BRANCH   1  13
ATOM     13  C   UNL     1       8.487   9.047  18.435  0.00  0.00    +0.000 C 
BRANCH  13  14
ATOM     14  C   UNL     1       9.021  10.351  17.803  0.00  0.00    +0.000 C 
BRANCH  14  22
ATOM     15  C   UNL     1      10.712  12.801  17.044  0.00  0.00    +0.000 C 
ATOM     16  C   UNL     1      10.408  12.460  18.482  0.00  0.00    +0.000 A 
ATOM     17  C   UNL     1      10.906  13.257  19.541  0.00  0.00    +0.000 A 
ATOM     18 BR   UNL     1      11.970  14.818  19.277  0.00  0.00    +0.000 Br
ATOM     19  C   UNL     1      10.640  12.940  20.877  0.00  0.00    +0.000 A 
ATOM     20  C   UNL     1       9.876  11.827  21.191  0.00  0.00    +0.000 A 
ATOM     21  C   UNL     1       9.370  11.030  20.170  0.00  0.00    +0.000 A 
ATOM     22  C   UNL     1       9.621  11.321  18.811  0.00  0.00    +0.000 A 
ENDBRANCH  14  22
ENDBRANCH  13  14
ENDBRANCH   1  13
TORSDOF 5
ENDMDL
MODEL 4
REMARK VINA RESULT:      -7.2      0.867      1.890
REMARK  Name = 
REMARK  6 active torsions:
REMARK  status: ('A' for Active; 'I' for Inactive)
REMARK    1  A    between atoms: C_1  and  C_2
REMARK    2  A    between atoms: C_8  and  C_9
REMARK    3  A    between atoms: C_9  and  C_10
REMARK    4  A    between atoms: C_10  and  N_11
REMARK    5  A    between atoms: C_12  and  C_14
REMARK    6  A    between atoms: C_18  and  C_19
REMARK                            x       y       z     vdW  Elec       q    Type
REMARK                         _______ _______ _______ _____ _____    ______ ____
ROOT
ATOM      1  N   UNL     1       5.435   4.397  15.575  0.00  0.00    +0.000 N 
ATOM      2  C   UNL     1       6.799   4.486  15.370  0.00  0.00    +0.000 C 
ATOM      3  O   UNL     1       7.612   4.364  16.268  0.00  0.00    +0.000 OA
ATOM      4  H   UNL     1       4.863   4.281  14.744  0.00  0.00    +0.000 HD
ENDROOT
BRANCH   2   5
ATOM      5  C   UNL     1       7.189   4.770  13.986  0.00  0.00    +0.000 A 
ATOM      6  N   UNL     1       8.178   5.688  13.649  0.00  0.00    +0.000 NA
ATOM      7  C   UNL     1       8.281   5.564  12.347  0.00  0.00    +0.000 A 
ATOM      8  O   UNL     1       7.430   4.677  11.774  0.00  0.00    +0.000 OA
ATOM      9  C   UNL     1       6.706   4.172  12.824  0.00  0.00    +0.000 A 
BRANCH   9  10
ATOM     10  C   UNL     1       5.611   3.118  12.688  0.00  0.00    +0.000 C 
ATOM     11  C   UNL     1       4.563   3.266  11.598  0.00  0.00    +0.000 C 
ATOM     12  C   UNL     1       5.627   2.239  11.456  0.00  0.00    +0.000 C 
ENDBRANCH   9  10
ENDBRANCH   2   5
BRANCH   1  13
ATOM     13  C   UNL     1       4.895   4.072  16.896  0.00  0.00    +0.000 C 
BRANCH  13  14
ATOM     14  C   UNL     1       3.353   4.108  16.972  0.00  0.00    +0.000 C 
BRANCH  14  22
ATOM     15  C   UNL     1       2.590   1.906  18.975  0.00  0.00    +0.000 C 
ATOM     16  C   UNL     1       2.453   3.370  19.313  0.00  0.00    +0.000 A 
ATOM     17  C   UNL     1       1.952   3.784  20.571  0.00  0.00    +0.000 A 
ATOM     18 BR   UNL     1       1.428   2.572  21.948  0.00  0.00    +0.000 Br
ATOM     19  C   UNL     1       1.809   5.139  20.888  0.00  0.00    +0.000 A 
ATOM     20  C   UNL     1       2.159   6.111  19.964  0.00  0.00    +0.000 A 
ATOM     21  C   UNL     1       2.658   5.732  18.723  0.00  0.00    +0.000 A 
ATOM     22  C   UNL     1       2.814   4.373  18.372  0.00  0.00    +0.000 A 
ENDBRANCH  14  22
ENDBRANCH  13  14
ENDBRANCH   1  13
TORSDOF 5
ENDMDL
MODEL 5
REMARK VINA RESULT:      -7.2      6.186      8.383
REMARK  Name = 
REMARK  6 active torsions:
REMARK  status: ('A' for Active; 'I' for Inactive)
REMARK    1  A    between atoms: C_1  and  C_2
REMARK    2  A    between atoms: C_8  and  C_9
REMARK    3  A    between atoms: C_9  and  C_10
REMARK    4  A    between atoms: C_10  and  N_11
REMARK    5  A    between atoms: C_12  and  C_14
REMARK    6  A    between atoms: C_18  and  C_19
REMARK                            x       y       z     vdW  Elec       q    Type
REMARK                         _______ _______ _______ _____ _____    ______ ____
ROOT
ATOM      1  N   UNL     1       7.736   7.979  17.302  0.00  0.00    +0.000 N 
ATOM      2  C   UNL     1       7.515   6.681  17.721  0.00  0.00    +0.000 C 
ATOM      3  O   UNL     1       7.938   6.246  18.777  0.00  0.00    +0.000 OA
ATOM      4  H   UNL     1       7.157   8.307  16.535  0.00  0.00    +0.000 HD
ENDROOT
BRANCH   2   5
ATOM      5  C   UNL     1       6.755   5.858  16.776  0.00  0.00    +0.000 A 
ATOM      6  N   UNL     1       7.286   5.389  15.579  0.00  0.00    +0.000 NA
ATOM      7  C   UNL     1       6.331   4.628  15.097  0.00  0.00    +0.000 A 
ATOM      8  O   UNL     1       5.197   4.570  15.839  0.00  0.00    +0.000 OA
ATOM      9  C   UNL     1       5.454   5.378  16.917  0.00  0.00    +0.000 A 
BRANCH   9  10
ATOM     10  C   UNL     1       4.470   5.635  18.055  0.00  0.00    +0.000 C 
ATOM     11  C   UNL     1       3.444   6.745  17.919  0.00  0.00    +0.000 C 
ATOM     12  C   UNL     1       3.010   5.329  17.807  0.00  0.00    +0.000 C 
ENDBRANCH   9  10
ENDBRANCH   2   5
BRANCH   1  13
ATOM     13  C   UNL     1       8.440   8.934  18.159  0.00  0.00    +0.000 C 
BRANCH  13  14
ATOM     14  C   UNL     1       7.990  10.400  17.971  0.00  0.00    +0.000 C 
BRANCH  14  22
ATOM     15  C   UNL     1       7.723  13.398  17.355  0.00  0.00    +0.000 C 
ATOM     16  C   UNL     1       9.008  12.806  17.881  0.00  0.00    +0.000 A 
ATOM     17  C   UNL     1      10.148  13.616  18.100  0.00  0.00    +0.000 A 
ATOM     18 BR   UNL     1      10.182  15.497  17.782  0.00  0.00    +0.000 Br
ATOM     19  C   UNL     1      11.346  13.073  18.574  0.00  0.00    +0.000 A 
ATOM     20  C   UNL     1      11.439  11.716  18.842  0.00  0.00    +0.000 A 
ATOM     21  C   UNL     1      10.332  10.898  18.641  0.00  0.00    +0.000 A 
ATOM     22  C   UNL     1       9.109  11.415  18.161  0.00  0.00    +0.000 A 
ENDBRANCH  14  22
ENDBRANCH  13  14
ENDBRANCH   1  13
TORSDOF 5
ENDMDL
MODEL 6
REMARK VINA RESULT:      -7.1      3.191      5.243
REMARK  Name = 
REMARK  6 active torsions:
REMARK  status: ('A' for Active; 'I' for Inactive)
REMARK    1  A    between atoms: C_1  and  C_2
REMARK    2  A    between atoms: C_8  and  C_9
REMARK    3  A    between atoms: C_9  and  C_10
REMARK    4  A    between atoms: C_10  and  N_11
REMARK    5  A    between atoms: C_12  and  C_14
REMARK    6  A    between atoms: C_18  and  C_19
REMARK                            x       y       z     vdW  Elec       q    Type
REMARK                         _______ _______ _______ _____ _____    ______ ____
ROOT
ATOM      1  N   UNL     1       3.758   5.417  17.445  0.00  0.00    +0.000 N 
ATOM      2  C   UNL     1       4.485   4.253  17.280  0.00  0.00    +0.000 C 
ATOM      3  O   UNL     1       4.218   3.218  17.864  0.00  0.00    +0.000 OA
ATOM      4  H   UNL     1       3.913   6.143  16.753  0.00  0.00    +0.000 HD
ENDROOT
BRANCH   2   5
ATOM      5  C   UNL     1       5.625   4.372  16.368  0.00  0.00    +0.000 A 
ATOM      6  N   UNL     1       5.511   4.237  14.987  0.00  0.00    +0.000 NA
ATOM      7  C   UNL     1       6.719   4.511  14.552  0.00  0.00    +0.000 A 
ATOM      8  O   UNL     1       7.641   4.779  15.511  0.00  0.00    +0.000 OA
ATOM      9  C   UNL     1       6.947   4.673  16.689  0.00  0.00    +0.000 A 
BRANCH   9  10
ATOM     10  C   UNL     1       7.557   4.896  18.070  0.00  0.00    +0.000 C 
ATOM     11  C   UNL     1       7.793   6.313  18.563  0.00  0.00    +0.000 C 
ATOM     12  C   UNL     1       6.680   5.515  19.137  0.00  0.00    +0.000 C 
ENDBRANCH   9  10
ENDBRANCH   2   5
BRANCH   1  13
ATOM     13  C   UNL     1       2.563   5.442  18.289  0.00  0.00    +0.000 C 
BRANCH  13  14
ATOM     14  C   UNL     1       2.679   6.370  19.518  0.00  0.00    +0.000 C 
BRANCH  14  22
ATOM     15  C   UNL     1       0.982   7.903  21.570  0.00  0.00    +0.000 C 
ATOM     16  C   UNL     1       1.324   8.492  20.223  0.00  0.00    +0.000 A 
ATOM     17  C   UNL     1       0.862   9.777  19.851  0.00  0.00    +0.000 A 
ATOM     18 BR   UNL     1      -0.200  10.885  20.984  0.00  0.00    +0.000 Br
ATOM     19  C   UNL     1       1.164  10.324  18.600  0.00  0.00    +0.000 A 
ATOM     20  C   UNL     1       1.930   9.610  17.692  0.00  0.00    +0.000 A 
ATOM     21  C   UNL     1       2.401   8.347  18.035  0.00  0.00    +0.000 A 
ATOM     22  C   UNL     1       2.113   7.765  19.289  0.00  0.00    +0.000 A 
ENDBRANCH  14  22
ENDBRANCH  13  14
ENDBRANCH   1  13
TORSDOF 5
ENDMDL
MODEL 7
REMARK VINA RESULT:      -7.1      1.342      2.055
REMARK  Name = 
REMARK  6 active torsions:
REMARK  status: ('A' for Active; 'I' for Inactive)
REMARK    1  A    between atoms: C_1  and  C_2
REMARK    2  A    between atoms: C_8  and  C_9
REMARK    3  A    between atoms: C_9  and  C_10
REMARK    4  A    between atoms: C_10  and  N_11
REMARK    5  A    between atoms: C_12  and  C_14
REMARK    6  A    between atoms: C_18  and  C_19
REMARK                            x       y       z     vdW  Elec       q    Type
REMARK                         _______ _______ _______ _____ _____    ______ ____
ROOT
ATOM      1  N   UNL     1       7.385   4.771  16.593  0.00  0.00    +0.000 N 
ATOM      2  C   UNL     1       6.613   4.254  15.571  0.00  0.00    +0.000 C 
ATOM      3  O   UNL     1       5.662   3.518  15.766  0.00  0.00    +0.000 OA
ATOM      4  H   UNL     1       7.995   5.544  16.347  0.00  0.00    +0.000 HD
ENDROOT
BRANCH   2   5
ATOM      5  C   UNL     1       7.050   4.637  14.225  0.00  0.00    +0.000 A 
ATOM      6  N   UNL     1       8.068   5.555  13.990  0.00  0.00    +0.000 NA
ATOM      7  C   UNL     1       8.206   5.531  12.684  0.00  0.00    +0.000 A 
ATOM      8  O   UNL     1       7.353   4.713  12.020  0.00  0.00    +0.000 OA
ATOM      9  C   UNL     1       6.588   4.145  13.006  0.00  0.00    +0.000 A 
BRANCH   9  10
ATOM     10  C   UNL     1       5.474   3.132  12.757  0.00  0.00    +0.000 C 
ATOM     11  C   UNL     1       4.527   3.336  11.588  0.00  0.00    +0.000 C 
ATOM     12  C   UNL     1       5.565   2.276  11.512  0.00  0.00    +0.000 C 
ENDBRANCH   9  10
ENDBRANCH   2   5
BRANCH   1  13
ATOM     13  C   UNL     1       7.044   4.514  17.994  0.00  0.00    +0.000 C 
BRANCH  13  14
ATOM     14  C   UNL     1       6.228   5.644  18.660  0.00  0.00    +0.000 C 
BRANCH  14  22
ATOM     15  C   UNL     1       4.667   3.149  19.543  0.00  0.00    +0.000 C 
ATOM     16  C   UNL     1       3.979   4.336  18.914  0.00  0.00    +0.000 A 
ATOM     17  C   UNL     1       2.580   4.336  18.695  0.00  0.00    +0.000 A 
ATOM     18 BR   UNL     1       1.437   2.886  19.176  0.00  0.00    +0.000 Br
ATOM     19  C   UNL     1       1.937   5.426  18.099  0.00  0.00    +0.000 A 
ATOM     20  C   UNL     1       2.667   6.537  17.708  0.00  0.00    +0.000 A 
ATOM     21  C   UNL     1       4.042   6.565  17.916  0.00  0.00    +0.000 A 
ATOM     22  C   UNL     1       4.721   5.481  18.513  0.00  0.00    +0.000 A 
ENDBRANCH  14  22
ENDBRANCH  13  14
ENDBRANCH   1  13
TORSDOF 5
ENDMDL
MODEL 8
REMARK VINA RESULT:      -7.1      2.348      3.532
REMARK  Name = 
REMARK  6 active torsions:
REMARK  status: ('A' for Active; 'I' for Inactive)
REMARK    1  A    between atoms: C_1  and  C_2
REMARK    2  A    between atoms: C_8  and  C_9
REMARK    3  A    between atoms: C_9  and  C_10
REMARK    4  A    between atoms: C_10  and  N_11
REMARK    5  A    between atoms: C_12  and  C_14
REMARK    6  A    between atoms: C_18  and  C_19
REMARK                            x       y       z     vdW  Elec       q    Type
REMARK                         _______ _______ _______ _____ _____    ______ ____
ROOT
ATOM      1  N   UNL     1       4.645   3.298  17.167  0.00  0.00    +0.000 N 
ATOM      2  C   UNL     1       5.477   3.925  18.074  0.00  0.00    +0.000 C 
ATOM      3  O   UNL     1       5.548   3.595  19.244  0.00  0.00    +0.000 OA
ATOM      4  H   UNL     1       4.827   3.489  16.186  0.00  0.00    +0.000 HD
ENDROOT
BRANCH   2   5
ATOM      5  C   UNL     1       6.244   5.045  17.523  0.00  0.00    +0.000 A 
ATOM      6  N   UNL     1       6.561   6.184  18.258  0.00  0.00    +0.000 NA
ATOM      7  C   UNL     1       7.324   6.873  17.442  0.00  0.00    +0.000 A 
ATOM      8  O   UNL     1       7.520   6.322  16.217  0.00  0.00    +0.000 OA
ATOM      9  C   UNL     1       6.809   5.150  16.254  0.00  0.00    +0.000 A 
BRANCH   9  10
ATOM     10  C   UNL     1       6.724   4.159  15.097  0.00  0.00    +0.000 C 
ATOM     11  C   UNL     1       5.609   4.297  14.075  0.00  0.00    +0.000 C 
ATOM     12  C   UNL     1       6.996   4.677  13.702  0.00  0.00    +0.000 C 
ENDBRANCH   9  10
ENDBRANCH   2   5
BRANCH   1  13
ATOM     13  C   UNL     1       3.851   2.132  17.558  0.00  0.00    +0.000 C 
BRANCH  13  14
ATOM     14  C   UNL     1       2.378   2.457  17.890  0.00  0.00    +0.000 C 
BRANCH  14  22
ATOM     15  C   UNL     1       2.059   5.513  17.876  0.00  0.00    +0.000 C 
ATOM     16  C   UNL     1       2.056   4.719  19.159  0.00  0.00    +0.000 A 
ATOM     17  C   UNL     1       1.917   5.362  20.413  0.00  0.00    +0.000 A 
ATOM     18 BR   UNL     1       1.704   7.247  20.614  0.00  0.00    +0.000 Br
ATOM     19  C   UNL     1       1.926   4.636  21.608  0.00  0.00    +0.000 A 
ATOM     20  C   UNL     1       2.074   3.258  21.585  0.00  0.00    +0.000 A 
ATOM     21  C   UNL     1       2.208   2.601  20.367  0.00  0.00    +0.000 A 
ATOM     22  C   UNL     1       2.203   3.305  19.143  0.00  0.00    +0.000 A 
ENDBRANCH  14  22
ENDBRANCH  13  14
ENDBRANCH   1  13
TORSDOF 5
ENDMDL
MODEL 9
REMARK VINA RESULT:      -7.1      1.536      2.053
REMARK  Name = 
REMARK  6 active torsions:
REMARK  status: ('A' for Active; 'I' for Inactive)
REMARK    1  A    between atoms: C_1  and  C_2
REMARK    2  A    between atoms: C_8  and  C_9
REMARK    3  A    between atoms: C_9  and  C_10
REMARK    4  A    between atoms: C_10  and  N_11
REMARK    5  A    between atoms: C_12  and  C_14
REMARK    6  A    between atoms: C_18  and  C_19
REMARK                            x       y       z     vdW  Elec       q    Type
REMARK                         _______ _______ _______ _____ _____    ______ ____
ROOT
ATOM      1  N   UNL     1       5.646   3.641  15.981  0.00  0.00    +0.000 N 
ATOM      2  C   UNL     1       5.752   4.848  15.317  0.00  0.00    +0.000 C 
ATOM      3  O   UNL     1       5.184   5.860  15.688  0.00  0.00    +0.000 OA
ATOM      4  H   UNL     1       6.328   2.931  15.733  0.00  0.00    +0.000 HD
ENDROOT
BRANCH   2   5
ATOM      5  C   UNL     1       6.579   4.806  14.108  0.00  0.00    +0.000 A 
ATOM      6  N   UNL     1       7.764   5.522  13.973  0.00  0.00    +0.000 NA
ATOM      7  C   UNL     1       8.228   5.131  12.809  0.00  0.00    +0.000 A 
ATOM      8  O   UNL     1       7.449   4.249  12.134  0.00  0.00    +0.000 OA
ATOM      9  C   UNL     1       6.371   4.048  12.957  0.00  0.00    +0.000 A 
BRANCH   9  10
ATOM     10  C   UNL     1       5.205   3.117  12.637  0.00  0.00    +0.000 C 
ATOM     11  C   UNL     1       4.378   3.359  11.386  0.00  0.00    +0.000 C 
ATOM     12  C   UNL     1       5.330   2.220  11.425  0.00  0.00    +0.000 C 
ENDBRANCH   9  10
ENDBRANCH   2   5
BRANCH   1  13
ATOM     13  C   UNL     1       4.891   3.537  17.231  0.00  0.00    +0.000 C 
BRANCH  13  14
ATOM     14  C   UNL     1       3.366   3.707  17.062  0.00  0.00    +0.000 C 
BRANCH  14  22
ATOM     15  C   UNL     1       3.153   6.616  18.028  0.00  0.00    +0.000 C 
ATOM     16  C   UNL     1       2.542   5.475  18.803  0.00  0.00    +0.000 A 
ATOM     17  C   UNL     1       1.854   5.706  20.019  0.00  0.00    +0.000 A 
ATOM     18 BR   UNL     1       1.611   7.437  20.782  0.00  0.00    +0.000 Br
ATOM     19  C   UNL     1       1.296   4.652  20.750  0.00  0.00    +0.000 A 
ATOM     20  C   UNL     1       1.410   3.349  20.293  0.00  0.00    +0.000 A 
ATOM     21  C   UNL     1       2.076   3.095  19.098  0.00  0.00    +0.000 A 
ATOM     22  C   UNL     1       2.651   4.136  18.337  0.00  0.00    +0.000 A 
ENDBRANCH  14  22
ENDBRANCH  13  14
ENDBRANCH   1  13
TORSDOF 5
ENDMDL
