MODEL 1
REMARK VINA RESULT:      -6.1      0.000      0.000
REMARK  Name = 
REMARK  7 active torsions:
REMARK  status: ('A' for Active; 'I' for Inactive)
REMARK    1  A    between atoms: C_2  and  C_3
REMARK    2  A    between atoms: C_4  and  C_5
REMARK    3  A    between atoms: N_11  and  C_12
REMARK    4  A    between atoms: C_12  and  O_13
REMARK    5  A    between atoms: O_13  and  C_14
REMARK    6  A    between atoms: C_14  and  C_15
REMARK    7  A    between atoms: C_15  and  O_16
REMARK                            x       y       z     vdW  Elec       q    Type
REMARK                         _______ _______ _______ _____ _____    ______ ____
ROOT
ATOM      1  C   UNL     1       4.011   5.758  18.139  0.00  0.00    +0.000 A 
ATOM      2  C   UNL     1       4.959   5.676  17.186  0.00  0.00    +0.000 A 
ATOM      3  C   UNL     1       5.193   6.638  16.057  0.00  0.00    +0.000 C 
ATOM      4  C   UNL     1       5.882   4.521  17.231  0.00  0.00    +0.000 A 
ATOM      5  O   UNL     1       6.770   4.365  16.394  0.00  0.00    +0.000 OA
ATOM      6  N   UNL     1       5.698   3.641  18.248  0.00  0.00    +0.000 N 
ATOM      7  C   UNL     1       4.725   3.708  19.207  0.00  0.00    +0.000 A 
ATOM      8  O   UNL     1       4.658   2.825  20.058  0.00  0.00    +0.000 OA
ATOM      9  N   UNL     1       3.870   4.797  19.128  0.00  0.00    +0.000 N 
ATOM     10  H   UNL     1       6.322   2.850  18.286  0.00  0.00    +0.000 HD
ENDROOT
BRANCH   1  12
ATOM     11  C   UNL     1       2.262   7.973  18.031  0.00  0.00    +0.000 C 
ATOM     12  C   UNL     1       3.070   6.950  18.081  0.00  0.00    +0.000 C 
ENDBRANCH   1  12
BRANCH   9  13
ATOM     13  C   UNL     1       2.836   4.894  20.150  0.00  0.00    +0.000 C 
BRANCH  13  14
ATOM     14  O   UNL     1       1.553   4.531  19.646  0.00  0.00    +0.000 OA
BRANCH  14  15
ATOM     15  C   UNL     1       1.136   3.223  20.056  0.00  0.00    +0.000 C 
BRANCH  15  16
ATOM     16  C   UNL     1       1.036   2.353  18.807  0.00  0.00    +0.000 C 
BRANCH  16  17
ATOM     17  O   UNL     1       2.167   1.486  18.727  0.00  0.00    +0.000 OA
ATOM     18  H   UNL     1       1.811   0.633  18.410  0.00  0.00    +0.000 HD
ENDBRANCH  16  17
ENDBRANCH  15  16
ENDBRANCH  14  15
ENDBRANCH  13  14
ENDBRANCH   9  13
TORSDOF 6
ENDMDL
MODEL 2
REMARK VINA RESULT:      -5.9      1.046      1.263
REMARK  Name = 
REMARK  7 active torsions:
REMARK  status: ('A' for Active; 'I' for Inactive)
REMARK    1  A    between atoms: C_2  and  C_3
REMARK    2  A    between atoms: C_4  and  C_5
REMARK    3  A    between atoms: N_11  and  C_12
REMARK    4  A    between atoms: C_12  and  O_13
REMARK    5  A    between atoms: O_13  and  C_14
REMARK    6  A    between atoms: C_14  and  C_15
REMARK    7  A    between atoms: C_15  and  O_16
REMARK                            x       y       z     vdW  Elec       q    Type
REMARK                         _______ _______ _______ _____ _____    ______ ____
ROOT
ATOM      1  C   UNL     1       4.405   5.815  18.241  0.00  0.00    +0.000 A 
ATOM      2  C   UNL     1       5.586   5.868  17.596  0.00  0.00    +0.000 A 
ATOM      3  C   UNL     1       6.064   6.951  16.673  0.00  0.00    +0.000 C 
ATOM      4  C   UNL     1       6.533   4.750  17.798  0.00  0.00    +0.000 A 
ATOM      5  O   UNL     1       7.628   4.716  17.240  0.00  0.00    +0.000 OA
ATOM      6  N   UNL     1       6.129   3.762  18.637  0.00  0.00    +0.000 N 
ATOM      7  C   UNL     1       4.924   3.692  19.280  0.00  0.00    +0.000 A 
ATOM      8  O   UNL     1       4.679   2.723  19.993  0.00  0.00    +0.000 OA
ATOM      9  N   UNL     1       4.056   4.750  19.059  0.00  0.00    +0.000 N 
ATOM     10  H   UNL     1       6.767   2.996  18.781  0.00  0.00    +0.000 HD
ENDROOT
BRANCH   1  12
ATOM     11  C   UNL     1       2.617   7.962  17.838  0.00  0.00    +0.000 C 
ATOM     12  C   UNL     1       3.443   6.971  18.024  0.00  0.00    +0.000 C 
ENDBRANCH   1  12
BRANCH   9  13
ATOM     13  C   UNL     1       2.773   4.701  19.747  0.00  0.00    +0.000 C 
BRANCH  13  14
ATOM     14  O   UNL     1       1.847   3.842  19.087  0.00  0.00    +0.000 OA
BRANCH  14  15
ATOM     15  C   UNL     1       1.126   2.992  19.986  0.00  0.00    +0.000 C 
BRANCH  15  16
ATOM     16  C   UNL     1       1.538   3.362  21.408  0.00  0.00    +0.000 C 
BRANCH  16  17
ATOM     17  O   UNL     1       2.347   2.326  21.964  0.00  0.00    +0.000 OA
ATOM     18  H   UNL     1       1.959   2.144  22.843  0.00  0.00    +0.000 HD
ENDBRANCH  16  17
ENDBRANCH  15  16
ENDBRANCH  14  15
ENDBRANCH  13  14
ENDBRANCH   9  13
TORSDOF 6
ENDMDL
MODEL 3
REMARK VINA RESULT:      -5.8      1.048      1.354
REMARK  Name = 
REMARK  7 active torsions:
REMARK  status: ('A' for Active; 'I' for Inactive)
REMARK    1  A    between atoms: C_2  and  C_3
REMARK    2  A    between atoms: C_4  and  C_5
REMARK    3  A    between atoms: N_11  and  C_12
REMARK    4  A    between atoms: C_12  and  O_13
REMARK    5  A    between atoms: O_13  and  C_14
REMARK    6  A    between atoms: C_14  and  C_15
REMARK    7  A    between atoms: C_15  and  O_16
REMARK                            x       y       z     vdW  Elec       q    Type
REMARK                         _______ _______ _______ _____ _____    ______ ____
ROOT
ATOM      1  C   UNL     1       3.949   5.757  17.677  0.00  0.00    +0.000 A 
ATOM      2  C   UNL     1       4.774   5.587  16.626  0.00  0.00    +0.000 A 
ATOM      3  C   UNL     1       5.084   6.586  15.549  0.00  0.00    +0.000 C 
ATOM      4  C   UNL     1       5.460   4.283  16.493  0.00  0.00    +0.000 A 
ATOM      5  O   UNL     1       6.222   4.042  15.559  0.00  0.00    +0.000 OA
ATOM      6  N   UNL     1       5.204   3.366  17.460  0.00  0.00    +0.000 N 
ATOM      7  C   UNL     1       4.353   3.525  18.519  0.00  0.00    +0.000 A 
ATOM      8  O   UNL     1       4.195   2.597  19.308  0.00  0.00    +0.000 OA
ATOM      9  N   UNL     1       3.718   4.754  18.606  0.00  0.00    +0.000 N 
ATOM     10  H   UNL     1       5.666   2.474  17.377  0.00  0.00    +0.000 HD
ENDROOT
BRANCH   1  12
ATOM     11  C   UNL     1       2.653   8.255  17.908  0.00  0.00    +0.000 C 
ATOM     12  C   UNL     1       3.251   7.102  17.801  0.00  0.00    +0.000 C 
ENDBRANCH   1  12
BRANCH   9  13
ATOM     13  C   UNL     1       2.818   4.948  19.736  0.00  0.00    +0.000 C 
BRANCH  13  14
ATOM     14  O   UNL     1       1.534   4.376  19.498  0.00  0.00    +0.000 OA
BRANCH  14  15
ATOM     15  C   UNL     1       1.120   3.474  20.531  0.00  0.00    +0.000 C 
BRANCH  15  16
ATOM     16  C   UNL     1       2.066   3.653  21.715  0.00  0.00    +0.000 C 
BRANCH  16  17
ATOM     17  O   UNL     1       2.755   2.431  21.975  0.00  0.00    +0.000 OA
ATOM     18  H   UNL     1       3.121   2.157  21.110  0.00  0.00    +0.000 HD
ENDBRANCH  16  17
ENDBRANCH  15  16
ENDBRANCH  14  15
ENDBRANCH  13  14
ENDBRANCH   9  13
TORSDOF 6
ENDMDL
MODEL 4
REMARK VINA RESULT:      -5.8      2.303      2.925
REMARK  Name = 
REMARK  7 active torsions:
REMARK  status: ('A' for Active; 'I' for Inactive)
REMARK    1  A    between atoms: C_2  and  C_3
REMARK    2  A    between atoms: C_4  and  C_5
REMARK    3  A    between atoms: N_11  and  C_12
REMARK    4  A    between atoms: C_12  and  O_13
REMARK    5  A    between atoms: O_13  and  C_14
REMARK    6  A    between atoms: C_14  and  C_15
REMARK    7  A    between atoms: C_15  and  O_16
REMARK                            x       y       z     vdW  Elec       q    Type
REMARK                         _______ _______ _______ _____ _____    ______ ____
ROOT
ATOM      1  C   UNL     1       5.036   4.374  17.223  0.00  0.00    +0.000 A 
ATOM      2  C   UNL     1       5.702   4.688  16.095  0.00  0.00    +0.000 A 
ATOM      3  C   UNL     1       5.244   4.468  14.683  0.00  0.00    +0.000 C 
ATOM      4  C   UNL     1       7.034   5.315  16.234  0.00  0.00    +0.000 A 
ATOM      5  O   UNL     1       7.713   5.624  15.257  0.00  0.00    +0.000 OA
ATOM      6  N   UNL     1       7.468   5.534  17.502  0.00  0.00    +0.000 N 
ATOM      7  C   UNL     1       6.805   5.201  18.651  0.00  0.00    +0.000 A 
ATOM      8  O   UNL     1       7.330   5.435  19.737  0.00  0.00    +0.000 OA
ATOM      9  N   UNL     1       5.565   4.604  18.484  0.00  0.00    +0.000 N 
ATOM     10  H   UNL     1       8.375   5.961  17.607  0.00  0.00    +0.000 HD
ENDROOT
BRANCH   1  12
ATOM     11  C   UNL     1       2.495   3.178  16.929  0.00  0.00    +0.000 C 
ATOM     12  C   UNL     1       3.668   3.730  17.065  0.00  0.00    +0.000 C 
ENDBRANCH   1  12
BRANCH   9  13
ATOM     13  C   UNL     1       4.837   4.255  19.696  0.00  0.00    +0.000 C 
BRANCH  13  14
ATOM     14  O   UNL     1       5.046   2.896  20.071  0.00  0.00    +0.000 OA
BRANCH  14  15
ATOM     15  C   UNL     1       3.834   2.209  20.402  0.00  0.00    +0.000 C 
BRANCH  15  16
ATOM     16  C   UNL     1       2.791   3.258  20.776  0.00  0.00    +0.000 C 
BRANCH  16  17
ATOM     17  O   UNL     1       2.302   3.008  22.094  0.00  0.00    +0.000 OA
ATOM     18  H   UNL     1       2.588   3.780  22.622  0.00  0.00    +0.000 HD
ENDBRANCH  16  17
ENDBRANCH  15  16
ENDBRANCH  14  15
ENDBRANCH  13  14
ENDBRANCH   9  13
TORSDOF 6
ENDMDL
MODEL 5
REMARK VINA RESULT:      -5.8      1.222      1.297
REMARK  Name = 
REMARK  7 active torsions:
REMARK  status: ('A' for Active; 'I' for Inactive)
REMARK    1  A    between atoms: C_2  and  C_3
REMARK    2  A    between atoms: C_4  and  C_5
REMARK    3  A    between atoms: N_11  and  C_12
REMARK    4  A    between atoms: C_12  and  O_13
REMARK    5  A    between atoms: O_13  and  C_14
REMARK    6  A    between atoms: C_14  and  C_15
REMARK    7  A    between atoms: C_15  and  O_16
REMARK                            x       y       z     vdW  Elec       q    Type
REMARK                         _______ _______ _______ _____ _____    ______ ____
ROOT
ATOM      1  C   UNL     1       4.221   5.893  17.558  0.00  0.00    +0.000 A 
ATOM      2  C   UNL     1       5.543   6.012  17.332  0.00  0.00    +0.000 A 
ATOM      3  C   UNL     1       6.331   7.286  17.221  0.00  0.00    +0.000 C 
ATOM      4  C   UNL     1       6.329   4.770  17.167  0.00  0.00    +0.000 A 
ATOM      5  O   UNL     1       7.539   4.789  16.948  0.00  0.00    +0.000 OA
ATOM      6  N   UNL     1       5.642   3.604  17.272  0.00  0.00    +0.000 N 
ATOM      7  C   UNL     1       4.297   3.476  17.483  0.00  0.00    +0.000 A 
ATOM      8  O   UNL     1       3.800   2.353  17.532  0.00  0.00    +0.000 OA
ATOM      9  N   UNL     1       3.589   4.660  17.621  0.00  0.00    +0.000 N 
ATOM     10  H   UNL     1       6.169   2.752  17.161  0.00  0.00    +0.000 HD
ENDROOT
BRANCH   1  12
ATOM     11  C   UNL     1       2.745   8.280  17.869  0.00  0.00    +0.000 C 
ATOM     12  C   UNL     1       3.427   7.178  17.726  0.00  0.00    +0.000 C 
ENDBRANCH   1  12
BRANCH   9  13
ATOM     13  C   UNL     1       2.157   4.544  17.861  0.00  0.00    +0.000 C 
BRANCH  13  14
ATOM     14  O   UNL     1       1.829   4.740  19.234  0.00  0.00    +0.000 OA
BRANCH  14  15
ATOM     15  C   UNL     1       1.481   3.526  19.910  0.00  0.00    +0.000 C 
BRANCH  15  16
ATOM     16  C   UNL     1       0.743   2.635  18.916  0.00  0.00    +0.000 C 
BRANCH  16  17
ATOM     17  O   UNL     1       1.435   1.395  18.769  0.00  0.00    +0.000 OA
ATOM     18  H   UNL     1       1.342   0.949  19.634  0.00  0.00    +0.000 HD
ENDBRANCH  16  17
ENDBRANCH  15  16
ENDBRANCH  14  15
ENDBRANCH  13  14
ENDBRANCH   9  13
TORSDOF 6
ENDMDL
MODEL 6
REMARK VINA RESULT:      -5.8      1.533      4.293
REMARK  Name = 
REMARK  7 active torsions:
REMARK  status: ('A' for Active; 'I' for Inactive)
REMARK    1  A    between atoms: C_2  and  C_3
REMARK    2  A    between atoms: C_4  and  C_5
REMARK    3  A    between atoms: N_11  and  C_12
REMARK    4  A    between atoms: C_12  and  O_13
REMARK    5  A    between atoms: O_13  and  C_14
REMARK    6  A    between atoms: C_14  and  C_15
REMARK    7  A    between atoms: C_15  and  O_16
REMARK                            x       y       z     vdW  Elec       q    Type
REMARK                         _______ _______ _______ _____ _____    ______ ____
ROOT
ATOM      1  C   UNL     1       3.980   5.722  18.489  0.00  0.00    +0.000 A 
ATOM      2  C   UNL     1       3.379   4.676  19.087  0.00  0.00    +0.000 A 
ATOM      3  C   UNL     1       1.934   4.568  19.483  0.00  0.00    +0.000 C 
ATOM      4  C   UNL     1       4.209   3.493  19.403  0.00  0.00    +0.000 A 
ATOM      5  O   UNL     1       3.741   2.499  19.957  0.00  0.00    +0.000 OA
ATOM      6  N   UNL     1       5.516   3.562  19.046  0.00  0.00    +0.000 N 
ATOM      7  C   UNL     1       6.137   4.628  18.456  0.00  0.00    +0.000 A 
ATOM      8  O   UNL     1       7.339   4.563  18.210  0.00  0.00    +0.000 OA
ATOM      9  N   UNL     1       5.333   5.723  18.185  0.00  0.00    +0.000 N 
ATOM     10  H   UNL     1       6.090   2.760  19.258  0.00  0.00    +0.000 HD
ENDROOT
BRANCH   1  12
ATOM     11  C   UNL     1       2.372   7.967  17.897  0.00  0.00    +0.000 C 
ATOM     12  C   UNL     1       3.115   6.930  18.170  0.00  0.00    +0.000 C 
ENDBRANCH   1  12
BRANCH   9  13
ATOM     13  C   UNL     1       5.973   6.864  17.542  0.00  0.00    +0.000 C 
BRANCH  13  14
ATOM     14  O   UNL     1       6.436   6.546  16.232  0.00  0.00    +0.000 OA
BRANCH  14  15
ATOM     15  C   UNL     1       5.437   5.922  15.417  0.00  0.00    +0.000 C 
BRANCH  15  16
ATOM     16  C   UNL     1       6.081   4.726  14.723  0.00  0.00    +0.000 C 
BRANCH  16  17
ATOM     17  O   UNL     1       7.440   4.598  15.138  0.00  0.00    +0.000 OA
ATOM     18  H   UNL     1       7.403   4.102  15.980  0.00  0.00    +0.000 HD
ENDBRANCH  16  17
ENDBRANCH  15  16
ENDBRANCH  14  15
ENDBRANCH  13  14
ENDBRANCH   9  13
TORSDOF 6
ENDMDL
MODEL 7
REMARK VINA RESULT:      -5.7      1.226      1.461
REMARK  Name = 
REMARK  7 active torsions:
REMARK  status: ('A' for Active; 'I' for Inactive)
REMARK    1  A    between atoms: C_2  and  C_3
REMARK    2  A    between atoms: C_4  and  C_5
REMARK    3  A    between atoms: N_11  and  C_12
REMARK    4  A    between atoms: C_12  and  O_13
REMARK    5  A    between atoms: O_13  and  C_14
REMARK    6  A    between atoms: C_14  and  C_15
REMARK    7  A    between atoms: C_15  and  O_16
REMARK                            x       y       z     vdW  Elec       q    Type
REMARK                         _______ _______ _______ _____ _____    ______ ____
ROOT
ATOM      1  C   UNL     1       4.117   5.894  17.724  0.00  0.00    +0.000 A 
ATOM      2  C   UNL     1       5.429   5.976  17.435  0.00  0.00    +0.000 A 
ATOM      3  C   UNL     1       6.220   7.225  17.170  0.00  0.00    +0.000 C 
ATOM      4  C   UNL     1       6.199   4.716  17.361  0.00  0.00    +0.000 A 
ATOM      5  O   UNL     1       7.399   4.701  17.093  0.00  0.00    +0.000 OA
ATOM      6  N   UNL     1       5.509   3.573  17.606  0.00  0.00    +0.000 N 
ATOM      7  C   UNL     1       4.172   3.480  17.881  0.00  0.00    +0.000 A 
ATOM      8  O   UNL     1       3.670   2.373  18.058  0.00  0.00    +0.000 OA
ATOM      9  N   UNL     1       3.479   4.680  17.931  0.00  0.00    +0.000 N 
ATOM     10  H   UNL     1       6.025   2.708  17.557  0.00  0.00    +0.000 HD
ENDROOT
BRANCH   1  12
ATOM     11  C   UNL     1       2.671   8.316  17.860  0.00  0.00    +0.000 C 
ATOM     12  C   UNL     1       3.339   7.197  17.797  0.00  0.00    +0.000 C 
ENDBRANCH   1  12
BRANCH   9  13
ATOM     13  C   UNL     1       2.057   4.603  18.238  0.00  0.00    +0.000 C 
BRANCH  13  14
ATOM     14  O   UNL     1       1.807   4.715  19.637  0.00  0.00    +0.000 OA
BRANCH  14  15
ATOM     15  C   UNL     1       1.052   3.618  20.163  0.00  0.00    +0.000 C 
BRANCH  15  16
ATOM     16  C   UNL     1       1.768   3.114  21.412  0.00  0.00    +0.000 C 
BRANCH  16  17
ATOM     17  O   UNL     1       3.042   2.576  21.057  0.00  0.00    +0.000 OA
ATOM     18  H   UNL     1       3.664   2.941  21.717  0.00  0.00    +0.000 HD
ENDBRANCH  16  17
ENDBRANCH  15  16
ENDBRANCH  14  15
ENDBRANCH  13  14
ENDBRANCH   9  13
TORSDOF 6
ENDMDL
MODEL 8
REMARK VINA RESULT:      -5.7      1.669      4.460
REMARK  Name = 
REMARK  7 active torsions:
REMARK  status: ('A' for Active; 'I' for Inactive)
REMARK    1  A    between atoms: C_2  and  C_3
REMARK    2  A    between atoms: C_4  and  C_5
REMARK    3  A    between atoms: N_11  and  C_12
REMARK    4  A    between atoms: C_12  and  O_13
REMARK    5  A    between atoms: O_13  and  C_14
REMARK    6  A    between atoms: C_14  and  C_15
REMARK    7  A    between atoms: C_15  and  O_16
REMARK                            x       y       z     vdW  Elec       q    Type
REMARK                         _______ _______ _______ _____ _____    ______ ____
ROOT
ATOM      1  C   UNL     1       3.178   5.160  18.150  0.00  0.00    +0.000 A 
ATOM      2  C   UNL     1       2.548   4.129  18.745  0.00  0.00    +0.000 A 
ATOM      3  C   UNL     1       1.417   4.207  19.729  0.00  0.00    +0.000 C 
ATOM      4  C   UNL     1       3.003   2.761  18.415  0.00  0.00    +0.000 A 
ATOM      5  O   UNL     1       2.489   1.765  18.921  0.00  0.00    +0.000 OA
ATOM      6  N   UNL     1       4.019   2.663  17.520  0.00  0.00    +0.000 N 
ATOM      7  C   UNL     1       4.675   3.706  16.926  0.00  0.00    +0.000 A 
ATOM      8  O   UNL     1       5.598   3.472  16.151  0.00  0.00    +0.000 OA
ATOM      9  N   UNL     1       4.231   4.974  17.267  0.00  0.00    +0.000 N 
ATOM     10  H   UNL     1       4.336   1.734  17.289  0.00  0.00    +0.000 HD
ENDROOT
BRANCH   1  12
ATOM     11  C   UNL     1       2.290   7.761  18.798  0.00  0.00    +0.000 C 
ATOM     12  C   UNL     1       2.700   6.560  18.498  0.00  0.00    +0.000 C 
ENDBRANCH   1  12
BRANCH   9  13
ATOM     13  C   UNL     1       4.908   6.098  16.634  0.00  0.00    +0.000 C 
BRANCH  13  14
ATOM     14  O   UNL     1       5.883   6.685  17.492  0.00  0.00    +0.000 OA
BRANCH  14  15
ATOM     15  C   UNL     1       7.222   6.283  17.182  0.00  0.00    +0.000 C 
BRANCH  15  16
ATOM     16  C   UNL     1       7.689   5.328  18.276  0.00  0.00    +0.000 C 
BRANCH  16  17
ATOM     17  O   UNL     1       8.147   4.109  17.694  0.00  0.00    +0.000 OA
ATOM     18  H   UNL     1       7.335   3.632  17.430  0.00  0.00    +0.000 HD
ENDBRANCH  16  17
ENDBRANCH  15  16
ENDBRANCH  14  15
ENDBRANCH  13  14
ENDBRANCH   9  13
TORSDOF 6
ENDMDL
MODEL 9
REMARK VINA RESULT:      -5.7      2.260      2.774
REMARK  Name = 
REMARK  7 active torsions:
REMARK  status: ('A' for Active; 'I' for Inactive)
REMARK    1  A    between atoms: C_2  and  C_3
REMARK    2  A    between atoms: C_4  and  C_5
REMARK    3  A    between atoms: N_11  and  C_12
REMARK    4  A    between atoms: C_12  and  O_13
REMARK    5  A    between atoms: O_13  and  C_14
REMARK    6  A    between atoms: C_14  and  C_15
REMARK    7  A    between atoms: C_15  and  O_16
REMARK                            x       y       z     vdW  Elec       q    Type
REMARK                         _______ _______ _______ _____ _____    ______ ____
ROOT
ATOM      1  C   UNL     1       4.990   4.322  17.252  0.00  0.00    +0.000 A 
ATOM      2  C   UNL     1       5.678   4.583  16.125  0.00  0.00    +0.000 A 
ATOM      3  C   UNL     1       5.246   4.300  14.715  0.00  0.00    +0.000 C 
ATOM      4  C   UNL     1       7.010   5.212  16.261  0.00  0.00    +0.000 A 
ATOM      5  O   UNL     1       7.709   5.474  15.284  0.00  0.00    +0.000 OA
ATOM      6  N   UNL     1       7.420   5.487  17.525  0.00  0.00    +0.000 N 
ATOM      7  C   UNL     1       6.734   5.208  18.675  0.00  0.00    +0.000 A 
ATOM      8  O   UNL     1       7.238   5.490  19.759  0.00  0.00    +0.000 OA
ATOM      9  N   UNL     1       5.496   4.608  18.512  0.00  0.00    +0.000 N 
ATOM     10  H   UNL     1       8.327   5.916  17.628  0.00  0.00    +0.000 HD
ENDROOT
BRANCH   1  12
ATOM     11  C   UNL     1       2.450   3.121  16.964  0.00  0.00    +0.000 C 
ATOM     12  C   UNL     1       3.623   3.676  17.097  0.00  0.00    +0.000 C 
ENDBRANCH   1  12
BRANCH   9  13
ATOM     13  C   UNL     1       4.743   4.316  19.724  0.00  0.00    +0.000 C 
BRANCH  13  14
ATOM     14  O   UNL     1       3.772   5.322  20.004  0.00  0.00    +0.000 OA
BRANCH  14  15
ATOM     15  C   UNL     1       2.528   4.790  20.474  0.00  0.00    +0.000 C 
BRANCH  15  16
ATOM     16  C   UNL     1       2.748   3.318  20.811  0.00  0.00    +0.000 C 
BRANCH  16  17
ATOM     17  O   UNL     1       2.213   3.030  22.102  0.00  0.00    +0.000 OA
ATOM     18  H   UNL     1       2.965   2.673  22.615  0.00  0.00    +0.000 HD
ENDBRANCH  16  17
ENDBRANCH  15  16
ENDBRANCH  14  15
ENDBRANCH  13  14
ENDBRANCH   9  13
TORSDOF 6
ENDMDL
