MODEL 1
REMARK VINA RESULT:      -8.2      0.000      0.000
REMARK  Name = 
REMARK  5 active torsions:
REMARK  status: ('A' for Active; 'I' for Inactive)
REMARK    1  A    between atoms: C_2  and  C_3
REMARK    2  A    between atoms: C_3  and  C_4
REMARK    3  A    between atoms: N_7  and  C_8
REMARK    4  A    between atoms: N_10  and  C_11
REMARK    5  A    between atoms: C_11  and  C_12
REMARK                            x       y       z     vdW  Elec       q    Type
REMARK                         _______ _______ _______ _____ _____    ______ ____
ROOT
ATOM      1  C   UNL     1       3.790   5.060  17.069  0.00  0.00    +0.000 C 
ATOM      2  C   UNL     1       4.222   5.809  18.346  0.00  0.00    +0.000 C 
ATOM      3  N   UNL     1       3.124   6.232  19.237  0.00  0.00    +0.000 NA
ATOM      4  C   UNL     1       2.288   5.072  19.584  0.00  0.00    +0.000 C 
ATOM      5  C   UNL     1       1.763   4.274  18.368  0.00  0.00    +0.000 C 
ATOM      6  C   UNL     1       0.982   3.032  18.806  0.00  0.00    +0.000 C 
ATOM      7  C   UNL     1       1.885   2.012  19.482  0.00  0.00    +0.000 C 
ATOM      8  C   UNL     1       3.190   1.774  18.729  0.00  0.00    +0.000 C 
ATOM      9  O   UNL     1       3.794   2.936  18.179  0.00  0.00    +0.000 OA
ATOM     10  C   UNL     1       2.927   3.837  17.463  0.00  0.00    +0.000 C 
ENDROOT
BRANCH   1  13
ATOM     11  O   UNL     1       5.197   6.619  15.166  0.00  0.00    +0.000 OA
ATOM     12  C   UNL     1       5.558   5.461  15.352  0.00  0.00    +0.000 C 
ATOM     13  N   UNL     1       4.975   4.654  16.293  0.00  0.00    +0.000 N 
ATOM     14  H   UNL     1       5.076   3.645  16.167  0.00  0.00    +0.000 HD
BRANCH  12  15
ATOM     15  C   UNL     1       6.759   4.881  14.615  0.00  0.00    +0.000 C 
BRANCH  15  16
ATOM     16  C   UNL     1       6.509   3.703  13.717  0.00  0.00    +0.000 C 
ATOM     17  C   UNL     1       5.378   3.696  12.721  0.00  0.00    +0.000 C 
ATOM     18  C   UNL     1       6.795   3.826  12.237  0.00  0.00    +0.000 C 
ENDBRANCH  15  16
ENDBRANCH  12  15
ENDBRANCH   1  13
BRANCH   3  19
ATOM     19  C   UNL     1       2.309   7.329  18.677  0.00  0.00    +0.000 C 
BRANCH  19  20
ATOM     20  C   UNL     1       1.723   8.286  19.694  0.00  0.00    +0.000 A 
ATOM     21  C   UNL     1       1.591   7.912  21.030  0.00  0.00    +0.000 A 
ATOM     22  C   UNL     1       0.985   8.796  21.917  0.00  0.00    +0.000 A 
ATOM     23  C   UNL     1       0.540  10.030  21.455  0.00  0.00    +0.000 A 
ATOM     24  C   UNL     1       0.726  10.331  20.117  0.00  0.00    +0.000 A 
ATOM     25  N   UNL     1       1.302   9.491  19.230  0.00  0.00    +0.000 NA
ENDBRANCH  19  20
ENDBRANCH   3  19
TORSDOF 5
ENDMDL
MODEL 2
REMARK VINA RESULT:      -7.9      0.642      1.023
REMARK  Name = 
REMARK  5 active torsions:
REMARK  status: ('A' for Active; 'I' for Inactive)
REMARK    1  A    between atoms: C_2  and  C_3
REMARK    2  A    between atoms: C_3  and  C_4
REMARK    3  A    between atoms: N_7  and  C_8
REMARK    4  A    between atoms: N_10  and  C_11
REMARK    5  A    between atoms: C_11  and  C_12
REMARK                            x       y       z     vdW  Elec       q    Type
REMARK                         _______ _______ _______ _____ _____    ______ ____
ROOT
ATOM      1  C   UNL     1       3.773   5.319  17.274  0.00  0.00    +0.000 C 
ATOM      2  C   UNL     1       4.206   6.085  18.540  0.00  0.00    +0.000 C 
ATOM      3  N   UNL     1       3.108   6.540  19.415  0.00  0.00    +0.000 NA
ATOM      4  C   UNL     1       2.254   5.400  19.778  0.00  0.00    +0.000 C 
ATOM      5  C   UNL     1       1.726   4.587  18.574  0.00  0.00    +0.000 C 
ATOM      6  C   UNL     1       0.924   3.364  19.030  0.00  0.00    +0.000 C 
ATOM      7  C   UNL     1       1.808   2.344  19.731  0.00  0.00    +0.000 C 
ATOM      8  C   UNL     1       3.114   2.074  18.991  0.00  0.00    +0.000 C 
ATOM      9  O   UNL     1       3.739   3.217  18.423  0.00  0.00    +0.000 OA
ATOM     10  C   UNL     1       2.889   4.116  17.685  0.00  0.00    +0.000 C 
ENDROOT
BRANCH   1  13
ATOM     11  O   UNL     1       5.102   6.749  15.220  0.00  0.00    +0.000 OA
ATOM     12  C   UNL     1       5.500   5.622  15.497  0.00  0.00    +0.000 C 
ATOM     13  N   UNL     1       4.956   4.882  16.514  0.00  0.00    +0.000 N 
ATOM     14  H   UNL     1       5.085   3.870  16.472  0.00  0.00    +0.000 HD
BRANCH  12  15
ATOM     15  C   UNL     1       6.706   5.015  14.790  0.00  0.00    +0.000 C 
BRANCH  15  16
ATOM     16  C   UNL     1       6.462   3.805  13.935  0.00  0.00    +0.000 C 
ATOM     17  C   UNL     1       5.314   3.747  12.959  0.00  0.00    +0.000 C 
ATOM     18  C   UNL     1       6.720   3.885  12.447  0.00  0.00    +0.000 C 
ENDBRANCH  15  16
ENDBRANCH  12  15
ENDBRANCH   1  13
BRANCH   3  19
ATOM     19  C   UNL     1       2.313   7.638  18.830  0.00  0.00    +0.000 C 
BRANCH  19  20
ATOM     20  C   UNL     1       1.545   8.485  19.823  0.00  0.00    +0.000 A 
ATOM     21  C   UNL     1       0.790   9.575  19.394  0.00  0.00    +0.000 A 
ATOM     22  C   UNL     1       0.155  10.367  20.346  0.00  0.00    +0.000 A 
ATOM     23  C   UNL     1       0.279  10.048  21.693  0.00  0.00    +0.000 A 
ATOM     24  C   UNL     1       1.034   8.938  22.034  0.00  0.00    +0.000 A 
ATOM     25  N   UNL     1       1.668   8.156  21.135  0.00  0.00    +0.000 NA
ENDBRANCH  19  20
ENDBRANCH   3  19
TORSDOF 5
ENDMDL
MODEL 3
REMARK VINA RESULT:      -7.6      3.211      7.955
REMARK  Name = 
REMARK  5 active torsions:
REMARK  status: ('A' for Active; 'I' for Inactive)
REMARK    1  A    between atoms: C_2  and  C_3
REMARK    2  A    between atoms: C_3  and  C_4
REMARK    3  A    between atoms: N_7  and  C_8
REMARK    4  A    between atoms: N_10  and  C_11
REMARK    5  A    between atoms: C_11  and  C_12
REMARK                            x       y       z     vdW  Elec       q    Type
REMARK                         _______ _______ _______ _____ _____    ______ ____
ROOT
ATOM      1  C   UNL     1       4.723   4.298  17.070  0.00  0.00    +0.000 C 
ATOM      2  C   UNL     1       5.722   3.457  16.249  0.00  0.00    +0.000 C 
ATOM      3  N   UNL     1       6.553   4.212  15.291  0.00  0.00    +0.000 NA
ATOM      4  C   UNL     1       7.255   5.300  15.989  0.00  0.00    +0.000 C 
ATOM      5  C   UNL     1       6.336   6.234  16.809  0.00  0.00    +0.000 C 
ATOM      6  C   UNL     1       7.144   7.281  17.581  0.00  0.00    +0.000 C 
ATOM      7  C   UNL     1       7.992   6.644  18.671  0.00  0.00    +0.000 C 
ATOM      8  C   UNL     1       7.229   5.615  19.499  0.00  0.00    +0.000 C 
ATOM      9  O   UNL     1       6.348   4.776  18.765  0.00  0.00    +0.000 OA
ATOM     10  C   UNL     1       5.490   5.424  17.806  0.00  0.00    +0.000 C 
ENDROOT
BRANCH   1  13
ATOM     11  O   UNL     1       1.952   3.705  17.041  0.00  0.00    +0.000 OA
ATOM     12  C   UNL     1       2.635   3.253  17.954  0.00  0.00    +0.000 C 
ATOM     13  N   UNL     1       3.992   3.439  18.017  0.00  0.00    +0.000 N 
ATOM     14  H   UNL     1       4.432   3.344  18.933  0.00  0.00    +0.000 HD
BRANCH  12  15
ATOM     15  C   UNL     1       2.027   2.356  19.026  0.00  0.00    +0.000 C 
BRANCH  15  16
ATOM     16  C   UNL     1       1.154   3.015  20.056  0.00  0.00    +0.000 C 
ATOM     17  C   UNL     1       1.400   2.833  21.532  0.00  0.00    +0.000 C 
ATOM     18  C   UNL     1       1.713   4.151  20.883  0.00  0.00    +0.000 C 
ENDBRANCH  15  16
ENDBRANCH  12  15
ENDBRANCH   1  13
BRANCH   3  19
ATOM     19  C   UNL     1       5.790   4.725  14.136  0.00  0.00    +0.000 C 
BRANCH  19  20
ATOM     20  C   UNL     1       5.705   3.790  12.947  0.00  0.00    +0.000 A 
ATOM     21  C   UNL     1       4.497   3.594  12.281  0.00  0.00    +0.000 A 
ATOM     22  C   UNL     1       4.448   2.676  11.237  0.00  0.00    +0.000 A 
ATOM     23  C   UNL     1       5.602   1.987  10.878  0.00  0.00    +0.000 A 
ATOM     24  C   UNL     1       6.765   2.253  11.579  0.00  0.00    +0.000 A 
ATOM     25  N   UNL     1       6.842   3.133  12.601  0.00  0.00    +0.000 NA
ENDBRANCH  19  20
ENDBRANCH   3  19
TORSDOF 5
ENDMDL
MODEL 4
REMARK VINA RESULT:      -7.6      0.888      1.047
REMARK  Name = 
REMARK  5 active torsions:
REMARK  status: ('A' for Active; 'I' for Inactive)
REMARK    1  A    between atoms: C_2  and  C_3
REMARK    2  A    between atoms: C_3  and  C_4
REMARK    3  A    between atoms: N_7  and  C_8
REMARK    4  A    between atoms: N_10  and  C_11
REMARK    5  A    between atoms: C_11  and  C_12
REMARK                            x       y       z     vdW  Elec       q    Type
REMARK                         _______ _______ _______ _____ _____    ______ ____
ROOT
ATOM      1  C   UNL     1       3.725   5.285  17.208  0.00  0.00    +0.000 C 
ATOM      2  C   UNL     1       4.132   6.413  18.178  0.00  0.00    +0.000 C 
ATOM      3  N   UNL     1       3.046   6.950  19.021  0.00  0.00    +0.000 NA
ATOM      4  C   UNL     1       2.398   5.855  19.757  0.00  0.00    +0.000 C 
ATOM      5  C   UNL     1       1.908   4.687  18.869  0.00  0.00    +0.000 C 
ATOM      6  C   UNL     1       1.331   3.545  19.710  0.00  0.00    +0.000 C 
ATOM      7  C   UNL     1       2.404   2.869  20.550  0.00  0.00    +0.000 C 
ATOM      8  C   UNL     1       3.678   2.571  19.767  0.00  0.00    +0.000 C 
ATOM      9  O   UNL     1       4.085   3.585  18.858  0.00  0.00    +0.000 OA
ATOM     10  C   UNL     1       3.060   4.139  18.010  0.00  0.00    +0.000 C 
ENDROOT
BRANCH   1  13
ATOM     11  O   UNL     1       5.129   6.669  15.172  0.00  0.00    +0.000 OA
ATOM     12  C   UNL     1       5.483   5.528  15.452  0.00  0.00    +0.000 C 
ATOM     13  N   UNL     1       4.901   4.806  16.462  0.00  0.00    +0.000 N 
ATOM     14  H   UNL     1       4.994   3.791  16.421  0.00  0.00    +0.000 HD
BRANCH  12  15
ATOM     15  C   UNL     1       6.675   4.879  14.759  0.00  0.00    +0.000 C 
BRANCH  15  16
ATOM     16  C   UNL     1       6.391   3.719  13.848  0.00  0.00    +0.000 C 
ATOM     17  C   UNL     1       5.273   3.765  12.837  0.00  0.00    +0.000 C 
ATOM     18  C   UNL     1       6.701   3.842  12.373  0.00  0.00    +0.000 C 
ENDBRANCH  15  16
ENDBRANCH  12  15
ENDBRANCH   1  13
BRANCH   3  19
ATOM     19  C   UNL     1       2.058   7.742  18.263  0.00  0.00    +0.000 C 
BRANCH  19  20
ATOM     20  C   UNL     1       1.638   9.046  18.908  0.00  0.00    +0.000 A 
ATOM     21  C   UNL     1       1.045   9.057  20.169  0.00  0.00    +0.000 A 
ATOM     22  C   UNL     1       0.612  10.270  20.696  0.00  0.00    +0.000 A 
ATOM     23  C   UNL     1       0.792  11.437  19.961  0.00  0.00    +0.000 A 
ATOM     24  C   UNL     1       1.406  11.342  18.725  0.00  0.00    +0.000 A 
ATOM     25  N   UNL     1       1.829  10.179  18.184  0.00  0.00    +0.000 NA
ENDBRANCH  19  20
ENDBRANCH   3  19
TORSDOF 5
ENDMDL
MODEL 5
REMARK VINA RESULT:      -7.6      1.075      1.505
REMARK  Name = 
REMARK  5 active torsions:
REMARK  status: ('A' for Active; 'I' for Inactive)
REMARK    1  A    between atoms: C_2  and  C_3
REMARK    2  A    between atoms: C_3  and  C_4
REMARK    3  A    between atoms: N_7  and  C_8
REMARK    4  A    between atoms: N_10  and  C_11
REMARK    5  A    between atoms: C_11  and  C_12
REMARK                            x       y       z     vdW  Elec       q    Type
REMARK                         _______ _______ _______ _____ _____    ______ ____
ROOT
ATOM      1  C   UNL     1       3.660   5.282  17.386  0.00  0.00    +0.000 C 
ATOM      2  C   UNL     1       4.019   6.450  18.327  0.00  0.00    +0.000 C 
ATOM      3  N   UNL     1       2.899   6.995  19.120  0.00  0.00    +0.000 NA
ATOM      4  C   UNL     1       2.250   5.913  19.876  0.00  0.00    +0.000 C 
ATOM      5  C   UNL     1       1.808   4.706  19.016  0.00  0.00    +0.000 C 
ATOM      6  C   UNL     1       1.228   3.584  19.881  0.00  0.00    +0.000 C 
ATOM      7  C   UNL     1       2.290   2.958  20.773  0.00  0.00    +0.000 C 
ATOM      8  C   UNL     1       3.591   2.657  20.036  0.00  0.00    +0.000 C 
ATOM      9  O   UNL     1       4.004   3.647  19.104  0.00  0.00    +0.000 OA
ATOM     10  C   UNL     1       2.994   4.152  18.209  0.00  0.00    +0.000 C 
ENDROOT
BRANCH   1  13
ATOM     11  O   UNL     1       5.052   6.587  15.291  0.00  0.00    +0.000 OA
ATOM     12  C   UNL     1       5.440   5.479  15.647  0.00  0.00    +0.000 C 
ATOM     13  N   UNL     1       4.865   4.801  16.690  0.00  0.00    +0.000 N 
ATOM     14  H   UNL     1       4.995   3.788  16.714  0.00  0.00    +0.000 HD
BRANCH  12  15
ATOM     15  C   UNL     1       6.667   4.832  15.015  0.00  0.00    +0.000 C 
BRANCH  15  16
ATOM     16  C   UNL     1       6.425   3.748  14.004  0.00  0.00    +0.000 C 
ATOM     17  C   UNL     1       5.346   3.870  12.958  0.00  0.00    +0.000 C 
ATOM     18  C   UNL     1       6.790   3.991  12.556  0.00  0.00    +0.000 C 
ENDBRANCH  15  16
ENDBRANCH  12  15
ENDBRANCH   1  13
BRANCH   3  19
ATOM     19  C   UNL     1       1.918   7.741  18.307  0.00  0.00    +0.000 C 
BRANCH  19  20
ATOM     20  C   UNL     1       1.591   9.135  18.802  0.00  0.00    +0.000 A 
ATOM     21  C   UNL     1       1.956  10.257  18.060  0.00  0.00    +0.000 A 
ATOM     22  C   UNL     1       1.696  11.519  18.583  0.00  0.00    +0.000 A 
ATOM     23  C   UNL     1       1.073  11.632  19.820  0.00  0.00    +0.000 A 
ATOM     24  C   UNL     1       0.727  10.468  20.484  0.00  0.00    +0.000 A 
ATOM     25  N   UNL     1       0.972   9.229  20.007  0.00  0.00    +0.000 NA
ENDBRANCH  19  20
ENDBRANCH   3  19
TORSDOF 5
ENDMDL
MODEL 6
REMARK VINA RESULT:      -7.4      3.263      7.028
REMARK  Name = 
REMARK  5 active torsions:
REMARK  status: ('A' for Active; 'I' for Inactive)
REMARK    1  A    between atoms: C_2  and  C_3
REMARK    2  A    between atoms: C_3  and  C_4
REMARK    3  A    between atoms: N_7  and  C_8
REMARK    4  A    between atoms: N_10  and  C_11
REMARK    5  A    between atoms: C_11  and  C_12
REMARK                            x       y       z     vdW  Elec       q    Type
REMARK                         _______ _______ _______ _____ _____    ______ ____
ROOT
ATOM      1  C   UNL     1       5.987   5.882  17.657  0.00  0.00    +0.000 C 
ATOM      2  C   UNL     1       5.129   5.810  16.377  0.00  0.00    +0.000 C 
ATOM      3  N   UNL     1       4.691   4.457  15.981  0.00  0.00    +0.000 NA
ATOM      4  C   UNL     1       3.989   3.812  17.101  0.00  0.00    +0.000 C 
ATOM      5  C   UNL     1       4.784   3.790  18.427  0.00  0.00    +0.000 C 
ATOM      6  C   UNL     1       3.957   3.190  19.567  0.00  0.00    +0.000 C 
ATOM      7  C   UNL     1       2.773   4.075  19.928  0.00  0.00    +0.000 C 
ATOM      8  C   UNL     1       3.142   5.550  20.048  0.00  0.00    +0.000 C 
ATOM      9  O   UNL     1       4.059   6.028  19.073  0.00  0.00    +0.000 OA
ATOM     10  C   UNL     1       5.219   5.211  18.822  0.00  0.00    +0.000 C 
ENDROOT
BRANCH   1  13
ATOM     11  O   UNL     1       8.172   7.379  16.649  0.00  0.00    +0.000 OA
ATOM     12  C   UNL     1       7.431   7.910  17.472  0.00  0.00    +0.000 C 
ATOM     13  N   UNL     1       6.318   7.283  17.968  0.00  0.00    +0.000 N 
ATOM     14  H   UNL     1       5.957   7.617  18.863  0.00  0.00    +0.000 HD
BRANCH  12  15
ATOM     15  C   UNL     1       7.647   9.352  17.914  0.00  0.00    +0.000 C 
BRANCH  15  16
ATOM     16  C   UNL     1       9.050   9.760  18.261  0.00  0.00    +0.000 C 
ATOM     17  C   UNL     1       9.477  11.206  18.255  0.00  0.00    +0.000 C 
ATOM     18  C   UNL     1       9.311  10.484  19.563  0.00  0.00    +0.000 C 
ENDBRANCH  15  16
ENDBRANCH  12  15
ENDBRANCH   1  13
BRANCH   3  19
ATOM     19  C   UNL     1       5.793   3.610  15.482  0.00  0.00    +0.000 C 
BRANCH  19  20
ATOM     20  C   UNL     1       6.417   4.058  14.177  0.00  0.00    +0.000 A 
ATOM     21  C   UNL     1       6.055   3.456  12.973  0.00  0.00    +0.000 A 
ATOM     22  C   UNL     1       6.702   3.850  11.805  0.00  0.00    +0.000 A 
ATOM     23  C   UNL     1       7.679   4.837  11.866  0.00  0.00    +0.000 A 
ATOM     24  C   UNL     1       7.966   5.397  13.099  0.00  0.00    +0.000 A 
ATOM     25  N   UNL     1       7.362   5.030  14.250  0.00  0.00    +0.000 NA
ENDBRANCH  19  20
ENDBRANCH   3  19
TORSDOF 5
ENDMDL
MODEL 7
REMARK VINA RESULT:      -7.3      3.513      5.989
REMARK  Name = 
REMARK  5 active torsions:
REMARK  status: ('A' for Active; 'I' for Inactive)
REMARK    1  A    between atoms: C_2  and  C_3
REMARK    2  A    between atoms: C_3  and  C_4
REMARK    3  A    between atoms: N_7  and  C_8
REMARK    4  A    between atoms: N_10  and  C_11
REMARK    5  A    between atoms: C_11  and  C_12
REMARK                            x       y       z     vdW  Elec       q    Type
REMARK                         _______ _______ _______ _____ _____    ______ ____
ROOT
ATOM      1  C   UNL     1       6.168   6.265  17.668  0.00  0.00    +0.000 C 
ATOM      2  C   UNL     1       6.020   4.941  18.446  0.00  0.00    +0.000 C 
ATOM      3  N   UNL     1       4.869   4.102  18.060  0.00  0.00    +0.000 NA
ATOM      4  C   UNL     1       4.905   3.840  16.613  0.00  0.00    +0.000 C 
ATOM      5  C   UNL     1       5.008   5.110  15.735  0.00  0.00    +0.000 C 
ATOM      6  C   UNL     1       5.136   4.757  14.251  0.00  0.00    +0.000 C 
ATOM      7  C   UNL     1       6.456   4.063  13.951  0.00  0.00    +0.000 C 
ATOM      8  C   UNL     1       7.654   4.747  14.601  0.00  0.00    +0.000 C 
ATOM      9  O   UNL     1       7.438   5.224  15.922  0.00  0.00    +0.000 OA
ATOM     10  C   UNL     1       6.220   5.960  16.151  0.00  0.00    +0.000 C 
ENDROOT
BRANCH   1  13
ATOM     11  O   UNL     1       6.808   8.982  17.182  0.00  0.00    +0.000 OA
ATOM     12  C   UNL     1       7.623   8.290  17.783  0.00  0.00    +0.000 C 
ATOM     13  N   UNL     1       7.374   6.984  18.113  0.00  0.00    +0.000 N 
ATOM     14  H   UNL     1       8.183   6.387  18.293  0.00  0.00    +0.000 HD
BRANCH  12  15
ATOM     15  C   UNL     1       8.931   8.879  18.298  0.00  0.00    +0.000 C 
BRANCH  15  16
ATOM     16  C   UNL     1       8.889  10.286  18.822  0.00  0.00    +0.000 C 
ATOM     17  C   UNL     1      10.123  10.966  19.359  0.00  0.00    +0.000 C 
ATOM     18  C   UNL     1       9.558  11.391  18.033  0.00  0.00    +0.000 C 
ENDBRANCH  15  16
ENDBRANCH  12  15
ENDBRANCH   1  13
BRANCH   3  19
ATOM     19  C   UNL     1       3.569   4.672  18.467  0.00  0.00    +0.000 C 
BRANCH  19  20
ATOM     20  C   UNL     1       2.826   3.897  19.535  0.00  0.00    +0.000 A 
ATOM     21  C   UNL     1       1.451   4.052  19.698  0.00  0.00    +0.000 A 
ATOM     22  C   UNL     1       0.818   3.373  20.735  0.00  0.00    +0.000 A 
ATOM     23  C   UNL     1       1.567   2.552  21.571  0.00  0.00    +0.000 A 
ATOM     24  C   UNL     1       2.925   2.439  21.329  0.00  0.00    +0.000 A 
ATOM     25  N   UNL     1       3.568   3.091  20.337  0.00  0.00    +0.000 NA
ENDBRANCH  19  20
ENDBRANCH   3  19
TORSDOF 5
ENDMDL
MODEL 8
REMARK VINA RESULT:      -7.2      2.176      7.386
REMARK  Name = 
REMARK  5 active torsions:
REMARK  status: ('A' for Active; 'I' for Inactive)
REMARK    1  A    between atoms: C_2  and  C_3
REMARK    2  A    between atoms: C_3  and  C_4
REMARK    3  A    between atoms: N_7  and  C_8
REMARK    4  A    between atoms: N_10  and  C_11
REMARK    5  A    between atoms: C_11  and  C_12
REMARK                            x       y       z     vdW  Elec       q    Type
REMARK                         _______ _______ _______ _____ _____    ______ ____
ROOT
ATOM      1  C   UNL     1       2.379   6.390  20.247  0.00  0.00    +0.000 C 
ATOM      2  C   UNL     1       2.067   6.651  18.759  0.00  0.00    +0.000 C 
ATOM      3  N   UNL     1       2.982   6.009  17.796  0.00  0.00    +0.000 NA
ATOM      4  C   UNL     1       3.050   4.564  18.057  0.00  0.00    +0.000 C 
ATOM      5  C   UNL     1       3.402   4.192  19.516  0.00  0.00    +0.000 C 
ATOM      6  C   UNL     1       3.362   2.677  19.735  0.00  0.00    +0.000 C 
ATOM      7  C   UNL     1       1.948   2.130  19.607  0.00  0.00    +0.000 C 
ATOM      8  C   UNL     1       0.913   2.962  20.358  0.00  0.00    +0.000 C 
ATOM      9  O   UNL     1       1.092   4.370  20.279  0.00  0.00    +0.000 OA
ATOM     10  C   UNL     1       2.428   4.863  20.497  0.00  0.00    +0.000 C 
ENDROOT
BRANCH   1  13
ATOM     11  O   UNL     1       1.503   9.082  20.095  0.00  0.00    +0.000 OA
ATOM     12  C   UNL     1       1.050   8.370  20.986  0.00  0.00    +0.000 C 
ATOM     13  N   UNL     1       1.371   7.043  21.100  0.00  0.00    +0.000 N 
ATOM     14  H   UNL     1       1.246   6.612  22.017  0.00  0.00    +0.000 HD
BRANCH  12  15
ATOM     15  C   UNL     1       0.008   8.899  21.964  0.00  0.00    +0.000 C 
BRANCH  15  16
ATOM     16  C   UNL     1       0.048  10.367  22.281  0.00  0.00    +0.000 C 
ATOM     17  C   UNL     1      -0.817  11.358  21.543  0.00  0.00    +0.000 C 
ATOM     18  C   UNL     1      -1.136  11.009  22.969  0.00  0.00    +0.000 C 
ENDBRANCH  15  16
ENDBRANCH  12  15
ENDBRANCH   1  13
BRANCH   3  19
ATOM     19  C   UNL     1       4.330   6.613  17.782  0.00  0.00    +0.000 C 
BRANCH  19  20
ATOM     20  C   UNL     1       5.352   5.900  16.921  0.00  0.00    +0.000 A 
ATOM     21  C   UNL     1       5.221   5.877  15.534  0.00  0.00    +0.000 A 
ATOM     22  C   UNL     1       6.144   5.154  14.785  0.00  0.00    +0.000 A 
ATOM     23  C   UNL     1       7.176   4.486  15.434  0.00  0.00    +0.000 A 
ATOM     24  C   UNL     1       7.246   4.575  16.813  0.00  0.00    +0.000 A 
ATOM     25  N   UNL     1       6.361   5.261  17.568  0.00  0.00    +0.000 NA
ENDBRANCH  19  20
ENDBRANCH   3  19
TORSDOF 5
ENDMDL
MODEL 9
REMARK VINA RESULT:      -7.1      3.694      6.198
REMARK  Name = 
REMARK  5 active torsions:
REMARK  status: ('A' for Active; 'I' for Inactive)
REMARK    1  A    between atoms: C_2  and  C_3
REMARK    2  A    between atoms: C_3  and  C_4
REMARK    3  A    between atoms: N_7  and  C_8
REMARK    4  A    between atoms: N_10  and  C_11
REMARK    5  A    between atoms: C_11  and  C_12
REMARK                            x       y       z     vdW  Elec       q    Type
REMARK                         _______ _______ _______ _____ _____    ______ ____
ROOT
ATOM      1  C   UNL     1       6.715   6.586  17.919  0.00  0.00    +0.000 C 
ATOM      2  C   UNL     1       6.868   5.290  18.741  0.00  0.00    +0.000 C 
ATOM      3  N   UNL     1       5.731   4.352  18.668  0.00  0.00    +0.000 NA
ATOM      4  C   UNL     1       5.438   4.032  17.263  0.00  0.00    +0.000 C 
ATOM      5  C   UNL     1       5.221   5.265  16.356  0.00  0.00    +0.000 C 
ATOM      6  C   UNL     1       5.015   4.858  14.895  0.00  0.00    +0.000 C 
ATOM      7  C   UNL     1       6.275   4.251  14.299  0.00  0.00    +0.000 C 
ATOM      8  C   UNL     1       7.535   5.050  14.620  0.00  0.00    +0.000 C 
ATOM      9  O   UNL     1       7.606   5.567  15.941  0.00  0.00    +0.000 OA
ATOM     10  C   UNL     1       6.423   6.220  16.443  0.00  0.00    +0.000 C 
ENDROOT
BRANCH   1  13
ATOM     11  O   UNL     1       6.886   9.407  17.706  0.00  0.00    +0.000 OA
ATOM     12  C   UNL     1       7.923   8.770  17.866  0.00  0.00    +0.000 C 
ATOM     13  N   UNL     1       7.930   7.411  18.038  0.00  0.00    +0.000 N 
ATOM     14  H   UNL     1       8.800   6.920  17.827  0.00  0.00    +0.000 HD
BRANCH  12  15
ATOM     15  C   UNL     1       9.269   9.473  17.994  0.00  0.00    +0.000 C 
BRANCH  15  16
ATOM     16  C   UNL     1       9.278  10.821  18.656  0.00  0.00    +0.000 C 
ATOM     17  C   UNL     1       9.566  10.976  20.128  0.00  0.00    +0.000 C 
ATOM     18  C   UNL     1      10.591  11.411  19.119  0.00  0.00    +0.000 C 
ENDBRANCH  15  16
ENDBRANCH  12  15
ENDBRANCH   1  13
BRANCH   3  19
ATOM     19  C   UNL     1       4.526   4.842  19.367  0.00  0.00    +0.000 C 
BRANCH  19  20
ATOM     20  C   UNL     1       3.280   4.002  19.181  0.00  0.00    +0.000 A 
ATOM     21  C   UNL     1       3.169   2.752  19.787  0.00  0.00    +0.000 A 
ATOM     22  C   UNL     1       2.036   1.983  19.535  0.00  0.00    +0.000 A 
ATOM     23  C   UNL     1       1.044   2.482  18.698  0.00  0.00    +0.000 A 
ATOM     24  C   UNL     1       1.225   3.740  18.150  0.00  0.00    +0.000 A 
ATOM     25  N   UNL     1       2.315   4.506  18.370  0.00  0.00    +0.000 NA
ENDBRANCH  19  20
ENDBRANCH   3  19
TORSDOF 5
ENDMDL
