MODEL 1
REMARK VINA RESULT:      -8.6      0.000      0.000
REMARK  Name = 
REMARK  12 active torsions:
REMARK  status: ('A' for Active; 'I' for Inactive)
REMARK    1  A    between atoms: C_1  and  C_2
REMARK    2  A    between atoms: C_4  and  O_5
REMARK    3  A    between atoms: O_5  and  C_6
REMARK    4  A    between atoms: C_6  and  C_7
REMARK    5  A    between atoms: C_7  and  C_8
REMARK    6  A    between atoms: C_7  and  C_9
REMARK    7  A    between atoms: C_7  and  C_10
REMARK    8  A    between atoms: C_10  and  O_12
REMARK    9  A    between atoms: C_15  and  C_16
REMARK   10  A    between atoms: C_19  and  C_20
REMARK   11  A    between atoms: C_23  and  C_24
REMARK   12  A    between atoms: C_24  and  C_25
REMARK                            x       y       z     vdW  Elec       q    Type
REMARK                         _______ _______ _______ _____ _____    ______ ____
ROOT
ATOM      1  C   UNL     1       0.576   9.825  19.927  0.00  0.00    +0.000 A 
ATOM      2  C   UNL     1       1.101   9.732  18.628  0.00  0.00    +0.000 A 
ATOM      3  C   UNL     1       1.865   8.632  18.235  0.00  0.00    +0.000 A 
ATOM      4  C   UNL     1       2.179   7.617  19.148  0.00  0.00    +0.000 A 
ATOM      5  C   UNL     1       1.676   7.691  20.435  0.00  0.00    +0.000 A 
ATOM      6  C   UNL     1       0.857   8.754  20.793  0.00  0.00    +0.000 A 
ENDROOT
BRANCH   1  13
ATOM      7  C   UNL     1      -1.960  10.786  18.415  0.00  0.00    +0.000 C 
ATOM      8  C   UNL     1      -1.402  11.434  19.654  0.00  0.00    +0.000 A 
ATOM      9  C   UNL     1      -2.090  12.549  20.149  0.00  0.00    +0.000 A 
ATOM     10  C   UNL     1      -1.629  13.192  21.283  0.00  0.00    +0.000 A 
ATOM     11  N   UNL     1      -0.557  12.799  21.984  0.00  0.00    +0.000 NA
ATOM     12  C   UNL     1       0.100  11.719  21.494  0.00  0.00    +0.000 A 
ATOM     13  C   UNL     1      -0.248  10.985  20.341  0.00  0.00    +0.000 A 
BRANCH  10  14
ATOM     14  O   UNL     1      -2.387  14.254  21.719  0.00  0.00    +0.000 OA
BRANCH  14  15
ATOM     15  C   UNL     1      -3.762  13.926  21.952  0.00  0.00    +0.000 C 
BRANCH  15  16
ATOM     16  C   UNL     1      -4.021  13.981  23.481  0.00  0.00    +0.000 C 
ATOM     17  C   UNL     1      -2.863  14.723  24.171  0.00  0.00    +0.000 C 
ATOM     18  C   UNL     1      -5.349  14.715  23.739  0.00  0.00    +0.000 C 
BRANCH  16  19
ATOM     19  C   UNL     1      -4.107  12.546  24.011  0.00  0.00    +0.000 C 
ATOM     20  O   UNL     1      -5.018  12.121  24.696  0.00  0.00    +0.000 OA
BRANCH  19  21
ATOM     21  O   UNL     1      -3.070  11.751  23.646  0.00  0.00    +0.000 OA
ATOM     22  H   UNL     1      -3.266  10.785  23.652  0.00  0.00    +0.000 HD
ENDBRANCH  19  21
ENDBRANCH  16  19
ENDBRANCH  15  16
ENDBRANCH  14  15
ENDBRANCH  10  14
ENDBRANCH   1  13
BRANCH   4  23
ATOM     23  C   UNL     1       3.008   6.487  18.776  0.00  0.00    +0.000 A 
ATOM     24  N   UNL     1       3.004   5.267  19.278  0.00  0.00    +0.000 NA
ATOM     25  C   UNL     1       4.012   4.589  18.635  0.00  0.00    +0.000 A 
ATOM     26  C   UNL     1       4.613   5.402  17.704  0.00  0.00    +0.000 A 
ATOM     27  N   UNL     1       3.929   6.578  17.779  0.00  0.00    +0.000 N 
ATOM     28  H   UNL     1       4.083   7.395  17.201  0.00  0.00    +0.000 HD
BRANCH  26  29
ATOM     29  C   UNL     1       5.784   5.143  16.741  0.00  0.00    +0.000 C 
ATOM     30  C   UNL     1       5.665   3.737  16.032  0.00  0.00    +0.000 C 
ATOM     31  C   UNL     1       6.051   4.418  14.712  0.00  0.00    +0.000 C 
ATOM     32  C   UNL     1       5.494   5.721  15.302  0.00  0.00    +0.000 C 
BRANCH  29  33
ATOM     33  C   UNL     1       7.183   5.457  17.306  0.00  0.00    +0.000 C 
ATOM     34  F   UNL     1       7.152   5.771  18.633  0.00  0.00    +0.000 F 
ATOM     35  F   UNL     1       8.020   4.402  17.187  0.00  0.00    +0.000 F 
ATOM     36  F   UNL     1       7.751   6.513  16.680  0.00  0.00    +0.000 F 
ENDBRANCH  29  33
ENDBRANCH  26  29
ENDBRANCH   4  23
TORSDOF 9
ENDMDL
MODEL 2
REMARK VINA RESULT:      -8.5      0.575      1.204
REMARK  Name = 
REMARK  12 active torsions:
REMARK  status: ('A' for Active; 'I' for Inactive)
REMARK    1  A    between atoms: C_1  and  C_2
REMARK    2  A    between atoms: C_4  and  O_5
REMARK    3  A    between atoms: O_5  and  C_6
REMARK    4  A    between atoms: C_6  and  C_7
REMARK    5  A    between atoms: C_7  and  C_8
REMARK    6  A    between atoms: C_7  and  C_9
REMARK    7  A    between atoms: C_7  and  C_10
REMARK    8  A    between atoms: C_10  and  O_12
REMARK    9  A    between atoms: C_15  and  C_16
REMARK   10  A    between atoms: C_19  and  C_20
REMARK   11  A    between atoms: C_23  and  C_24
REMARK   12  A    between atoms: C_24  and  C_25
REMARK                            x       y       z     vdW  Elec       q    Type
REMARK                         _______ _______ _______ _____ _____    ______ ____
ROOT
ATOM      1  C   UNL     1       0.842   9.798  19.699  0.00  0.00    +0.000 A 
ATOM      2  C   UNL     1       1.171   8.721  20.537  0.00  0.00    +0.000 A 
ATOM      3  C   UNL     1       1.868   7.614  20.052  0.00  0.00    +0.000 A 
ATOM      4  C   UNL     1       2.207   7.521  18.696  0.00  0.00    +0.000 A 
ATOM      5  C   UNL     1       1.890   8.569  17.850  0.00  0.00    +0.000 A 
ATOM      6  C   UNL     1       1.259   9.697  18.360  0.00  0.00    +0.000 A 
ENDROOT
BRANCH   1  13
ATOM      7  C   UNL     1      -1.891  10.777  18.599  0.00  0.00    +0.000 C 
ATOM      8  C   UNL     1      -1.129  11.438  19.717  0.00  0.00    +0.000 A 
ATOM      9  C   UNL     1      -1.709  12.575  20.292  0.00  0.00    +0.000 A 
ATOM     10  C   UNL     1      -1.059  13.231  21.321  0.00  0.00    +0.000 A 
ATOM     11  N   UNL     1       0.107  12.832  21.846  0.00  0.00    +0.000 NA
ATOM     12  C   UNL     1       0.658  11.731  21.280  0.00  0.00    +0.000 A 
ATOM     13  C   UNL     1       0.115  10.981  20.216  0.00  0.00    +0.000 A 
BRANCH  10  14
ATOM     14  O   UNL     1      -1.719  14.316  21.851  0.00  0.00    +0.000 OA
BRANCH  14  15
ATOM     15  C   UNL     1      -3.146  14.201  21.811  0.00  0.00    +0.000 C 
BRANCH  15  16
ATOM     16  C   UNL     1      -3.670  14.150  23.271  0.00  0.00    +0.000 C 
ATOM     17  C   UNL     1      -2.520  14.481  24.239  0.00  0.00    +0.000 C 
ATOM     18  C   UNL     1      -4.809  15.172  23.431  0.00  0.00    +0.000 C 
BRANCH  16  19
ATOM     19  C   UNL     1      -4.194  12.737  23.551  0.00  0.00    +0.000 C 
ATOM     20  O   UNL     1      -5.371  12.440  23.605  0.00  0.00    +0.000 OA
BRANCH  19  21
ATOM     21  O   UNL     1      -3.223  11.806  23.732  0.00  0.00    +0.000 OA
ATOM     22  H   UNL     1      -2.997  11.621  24.673  0.00  0.00    +0.000 HD
ENDBRANCH  19  21
ENDBRANCH  16  19
ENDBRANCH  15  16
ENDBRANCH  14  15
ENDBRANCH  10  14
ENDBRANCH   1  13
BRANCH   4  23
ATOM     23  C   UNL     1       2.892   6.362  18.160  0.00  0.00    +0.000 A 
ATOM     24  N   UNL     1       2.516   5.097  18.197  0.00  0.00    +0.000 NA
ATOM     25  C   UNL     1       3.532   4.381  17.611  0.00  0.00    +0.000 A 
ATOM     26  C   UNL     1       4.526   5.230  17.182  0.00  0.00    +0.000 A 
ATOM     27  N   UNL     1       4.074   6.476  17.496  0.00  0.00    +0.000 N 
ATOM     28  H   UNL     1       4.542   7.349  17.287  0.00  0.00    +0.000 HD
BRANCH  26  29
ATOM     29  C   UNL     1       5.867   4.946  16.487  0.00  0.00    +0.000 C 
ATOM     30  C   UNL     1       5.857   3.563  15.726  0.00  0.00    +0.000 C 
ATOM     31  C   UNL     1       6.543   4.258  14.541  0.00  0.00    +0.000 C 
ATOM     32  C   UNL     1       5.915   5.568  15.037  0.00  0.00    +0.000 C 
BRANCH  29  33
ATOM     33  C   UNL     1       7.121   5.191  17.349  0.00  0.00    +0.000 C 
ATOM     34  F   UNL     1       8.062   4.217  17.191  0.00  0.00    +0.000 F 
ATOM     35  F   UNL     1       7.726   6.357  17.033  0.00  0.00    +0.000 F 
ATOM     36  F   UNL     1       6.824   5.220  18.669  0.00  0.00    +0.000 F 
ENDBRANCH  29  33
ENDBRANCH  26  29
ENDBRANCH   4  23
TORSDOF 9
ENDMDL
MODEL 3
REMARK VINA RESULT:      -8.5      0.604      1.049
REMARK  Name = 
REMARK  12 active torsions:
REMARK  status: ('A' for Active; 'I' for Inactive)
REMARK    1  A    between atoms: C_1  and  C_2
REMARK    2  A    between atoms: C_4  and  O_5
REMARK    3  A    between atoms: O_5  and  C_6
REMARK    4  A    between atoms: C_6  and  C_7
REMARK    5  A    between atoms: C_7  and  C_8
REMARK    6  A    between atoms: C_7  and  C_9
REMARK    7  A    between atoms: C_7  and  C_10
REMARK    8  A    between atoms: C_10  and  O_12
REMARK    9  A    between atoms: C_15  and  C_16
REMARK   10  A    between atoms: C_19  and  C_20
REMARK   11  A    between atoms: C_23  and  C_24
REMARK   12  A    between atoms: C_24  and  C_25
REMARK                            x       y       z     vdW  Elec       q    Type
REMARK                         _______ _______ _______ _____ _____    ______ ____
ROOT
ATOM      1  C   UNL     1       0.505   9.611  20.346  0.00  0.00    +0.000 A 
ATOM      2  C   UNL     1       0.742   8.504  21.177  0.00  0.00    +0.000 A 
ATOM      3  C   UNL     1       1.579   7.463  20.772  0.00  0.00    +0.000 A 
ATOM      4  C   UNL     1       2.159   7.467  19.497  0.00  0.00    +0.000 A 
ATOM      5  C   UNL     1       1.936   8.546  18.660  0.00  0.00    +0.000 A 
ATOM      6  C   UNL     1       1.159   9.610  19.101  0.00  0.00    +0.000 A 
ENDROOT
BRANCH   1  13
ATOM      7  C   UNL     1      -1.689  10.894  18.562  0.00  0.00    +0.000 C 
ATOM      8  C   UNL     1      -1.370  11.319  19.971  0.00  0.00    +0.000 A 
ATOM      9  C   UNL     1      -2.128  12.371  20.502  0.00  0.00    +0.000 A 
ATOM     10  C   UNL     1      -1.885  12.811  21.790  0.00  0.00    +0.000 A 
ATOM     11  N   UNL     1      -0.969  12.272  22.605  0.00  0.00    +0.000 NA
ATOM     12  C   UNL     1      -0.242  11.257  22.079  0.00  0.00    +0.000 A 
ATOM     13  C   UNL     1      -0.371  10.724  20.780  0.00  0.00    +0.000 A 
BRANCH  10  14
ATOM     14  O   UNL     1      -2.701  13.822  22.241  0.00  0.00    +0.000 OA
BRANCH  14  15
ATOM     15  C   UNL     1      -4.095  13.493  22.221  0.00  0.00    +0.000 C 
BRANCH  15  16
ATOM     16  C   UNL     1      -4.694  13.834  23.611  0.00  0.00    +0.000 C 
ATOM     17  C   UNL     1      -3.574  14.328  24.544  0.00  0.00    +0.000 C 
ATOM     18  C   UNL     1      -5.763  14.927  23.442  0.00  0.00    +0.000 C 
BRANCH  16  19
ATOM     19  C   UNL     1      -5.330  12.567  24.192  0.00  0.00    +0.000 C 
ATOM     20  O   UNL     1      -6.487  12.238  24.016  0.00  0.00    +0.000 OA
BRANCH  19  21
ATOM     21  O   UNL     1      -4.485  11.805  24.932  0.00  0.00    +0.000 OA
ATOM     22  H   UNL     1      -4.887  10.988  25.309  0.00  0.00    +0.000 HD
ENDBRANCH  19  21
ENDBRANCH  16  19
ENDBRANCH  15  16
ENDBRANCH  14  15
ENDBRANCH  10  14
ENDBRANCH   1  13
BRANCH   4  23
ATOM     23  C   UNL     1       2.996   6.376  19.038  0.00  0.00    +0.000 A 
ATOM     24  N   UNL     1       3.046   5.136  19.486  0.00  0.00    +0.000 NA
ATOM     25  C   UNL     1       4.038   4.512  18.769  0.00  0.00    +0.000 A 
ATOM     26  C   UNL     1       4.575   5.380  17.846  0.00  0.00    +0.000 A 
ATOM     27  N   UNL     1       3.866   6.533  18.004  0.00  0.00    +0.000 N 
ATOM     28  H   UNL     1       3.973   7.377  17.456  0.00  0.00    +0.000 HD
BRANCH  26  29
ATOM     29  C   UNL     1       5.704   5.192  16.820  0.00  0.00    +0.000 C 
ATOM     30  C   UNL     1       5.551   3.844  16.013  0.00  0.00    +0.000 C 
ATOM     31  C   UNL     1       5.886   4.622  14.733  0.00  0.00    +0.000 C 
ATOM     32  C   UNL     1       5.358   5.877  15.442  0.00  0.00    +0.000 C 
BRANCH  29  33
ATOM     33  C   UNL     1       7.127   5.461  17.350  0.00  0.00    +0.000 C 
ATOM     34  F   UNL     1       7.140   5.760  18.680  0.00  0.00    +0.000 F 
ATOM     35  F   UNL     1       7.929   4.384  17.197  0.00  0.00    +0.000 F 
ATOM     36  F   UNL     1       7.707   6.507  16.719  0.00  0.00    +0.000 F 
ENDBRANCH  29  33
ENDBRANCH  26  29
ENDBRANCH   4  23
TORSDOF 9
ENDMDL
MODEL 4
REMARK VINA RESULT:      -8.4      1.091      1.721
REMARK  Name = 
REMARK  12 active torsions:
REMARK  status: ('A' for Active; 'I' for Inactive)
REMARK    1  A    between atoms: C_1  and  C_2
REMARK    2  A    between atoms: C_4  and  O_5
REMARK    3  A    between atoms: O_5  and  C_6
REMARK    4  A    between atoms: C_6  and  C_7
REMARK    5  A    between atoms: C_7  and  C_8
REMARK    6  A    between atoms: C_7  and  C_9
REMARK    7  A    between atoms: C_7  and  C_10
REMARK    8  A    between atoms: C_10  and  O_12
REMARK    9  A    between atoms: C_15  and  C_16
REMARK   10  A    between atoms: C_19  and  C_20
REMARK   11  A    between atoms: C_23  and  C_24
REMARK   12  A    between atoms: C_24  and  C_25
REMARK                            x       y       z     vdW  Elec       q    Type
REMARK                         _______ _______ _______ _____ _____    ______ ____
ROOT
ATOM      1  C   UNL     1       0.769   8.977  20.453  0.00  0.00    +0.000 A 
ATOM      2  C   UNL     1       0.960   7.722  21.053  0.00  0.00    +0.000 A 
ATOM      3  C   UNL     1       1.698   6.723  20.417  0.00  0.00    +0.000 A 
ATOM      4  C   UNL     1       2.220   6.928  19.133  0.00  0.00    +0.000 A 
ATOM      5  C   UNL     1       2.040   8.156  18.521  0.00  0.00    +0.000 A 
ATOM      6  C   UNL     1       1.364   9.166  19.194  0.00  0.00    +0.000 A 
ENDROOT
BRANCH   1  13
ATOM      7  C   UNL     1      -1.000  11.057  18.975  0.00  0.00    +0.000 C 
ATOM      8  C   UNL     1      -0.807  11.001  20.467  0.00  0.00    +0.000 A 
ATOM      9  C   UNL     1      -1.482  11.962  21.230  0.00  0.00    +0.000 A 
ATOM     10  C   UNL     1      -1.345  11.967  22.605  0.00  0.00    +0.000 A 
ATOM     11  N   UNL     1      -0.615  11.075  23.289  0.00  0.00    +0.000 NA
ATOM     12  C   UNL     1       0.033  10.151  22.539  0.00  0.00    +0.000 A 
ATOM     13  C   UNL     1      -0.002  10.045  21.134  0.00  0.00    +0.000 A 
BRANCH  10  14
ATOM     14  O   UNL     1      -2.072  12.923  23.276  0.00  0.00    +0.000 OA
BRANCH  14  15
ATOM     15  C   UNL     1      -3.389  12.495  23.644  0.00  0.00    +0.000 C 
BRANCH  15  16
ATOM     16  C   UNL     1      -4.342  13.716  23.541  0.00  0.00    +0.000 C 
ATOM     17  C   UNL     1      -3.813  14.855  24.432  0.00  0.00    +0.000 C 
ATOM     18  C   UNL     1      -4.409  14.179  22.075  0.00  0.00    +0.000 C 
BRANCH  16  19
ATOM     19  C   UNL     1      -5.734  13.289  24.018  0.00  0.00    +0.000 C 
ATOM     20  O   UNL     1      -6.074  12.136  24.196  0.00  0.00    +0.000 OA
BRANCH  19  21
ATOM     21  O   UNL     1      -6.588  14.319  24.245  0.00  0.00    +0.000 OA
ATOM     22  H   UNL     1      -7.055  14.654  23.444  0.00  0.00    +0.000 HD
ENDBRANCH  19  21
ENDBRANCH  16  19
ENDBRANCH  15  16
ENDBRANCH  14  15
ENDBRANCH  10  14
ENDBRANCH   1  13
BRANCH   4  23
ATOM     23  C   UNL     1       2.952   5.890  18.434  0.00  0.00    +0.000 A 
ATOM     24  N   UNL     1       2.671   4.603  18.348  0.00  0.00    +0.000 NA
ATOM     25  C   UNL     1       3.698   4.036  17.633  0.00  0.00    +0.000 A 
ATOM     26  C   UNL     1       4.599   5.002  17.250  0.00  0.00    +0.000 A 
ATOM     27  N   UNL     1       4.080   6.168  17.725  0.00  0.00    +0.000 N 
ATOM     28  H   UNL     1       4.470   7.092  17.591  0.00  0.00    +0.000 HD
BRANCH  26  29
ATOM     29  C   UNL     1       5.912   4.900  16.457  0.00  0.00    +0.000 C 
ATOM     30  C   UNL     1       5.985   3.576  15.600  0.00  0.00    +0.000 C 
ATOM     31  C   UNL     1       6.520   4.413  14.430  0.00  0.00    +0.000 C 
ATOM     32  C   UNL     1       5.804   5.618  15.056  0.00  0.00    +0.000 C 
BRANCH  29  33
ATOM     33  C   UNL     1       7.192   5.212  17.259  0.00  0.00    +0.000 C 
ATOM     34  F   UNL     1       7.759   6.398  16.895  0.00  0.00    +0.000 F 
ATOM     35  F   UNL     1       6.942   5.304  18.584  0.00  0.00    +0.000 F 
ATOM     36  F   UNL     1       8.141   4.266  17.078  0.00  0.00    +0.000 F 
ENDBRANCH  29  33
ENDBRANCH  26  29
ENDBRANCH   4  23
TORSDOF 9
ENDMDL
MODEL 5
REMARK VINA RESULT:      -8.3      1.331      1.877
REMARK  Name = 
REMARK  12 active torsions:
REMARK  status: ('A' for Active; 'I' for Inactive)
REMARK    1  A    between atoms: C_1  and  C_2
REMARK    2  A    between atoms: C_4  and  O_5
REMARK    3  A    between atoms: O_5  and  C_6
REMARK    4  A    between atoms: C_6  and  C_7
REMARK    5  A    between atoms: C_7  and  C_8
REMARK    6  A    between atoms: C_7  and  C_9
REMARK    7  A    between atoms: C_7  and  C_10
REMARK    8  A    between atoms: C_10  and  O_12
REMARK    9  A    between atoms: C_15  and  C_16
REMARK   10  A    between atoms: C_19  and  C_20
REMARK   11  A    between atoms: C_23  and  C_24
REMARK   12  A    between atoms: C_24  and  C_25
REMARK                            x       y       z     vdW  Elec       q    Type
REMARK                         _______ _______ _______ _____ _____    ______ ____
ROOT
ATOM      1  C   UNL     1       0.969   9.506  20.484  0.00  0.00    +0.000 A 
ATOM      2  C   UNL     1       1.230   9.606  19.108  0.00  0.00    +0.000 A 
ATOM      3  C   UNL     1       1.803   8.547  18.403  0.00  0.00    +0.000 A 
ATOM      4  C   UNL     1       2.188   7.373  19.064  0.00  0.00    +0.000 A 
ATOM      5  C   UNL     1       1.945   7.254  20.420  0.00  0.00    +0.000 A 
ATOM      6  C   UNL     1       1.309   8.287  21.098  0.00  0.00    +0.000 A 
ENDROOT
BRANCH   1  13
ATOM      7  C   UNL     1       1.362  12.503  19.775  0.00  0.00    +0.000 C 
ATOM      8  C   UNL     1       0.526  11.994  20.919  0.00  0.00    +0.000 A 
ATOM      9  C   UNL     1      -0.116  12.954  21.711  0.00  0.00    +0.000 A 
ATOM     10  C   UNL     1      -0.897  12.554  22.779  0.00  0.00    +0.000 A 
ATOM     11  N   UNL     1      -1.117  11.274  23.107  0.00  0.00    +0.000 NA
ATOM     12  C   UNL     1      -0.490  10.354  22.334  0.00  0.00    +0.000 A 
ATOM     13  C   UNL     1       0.347  10.624  21.232  0.00  0.00    +0.000 A 
BRANCH  10  14
ATOM     14  O   UNL     1      -1.518  13.562  23.478  0.00  0.00    +0.000 OA
BRANCH  14  15
ATOM     15  C   UNL     1      -2.830  13.878  22.995  0.00  0.00    +0.000 C 
BRANCH  15  16
ATOM     16  C   UNL     1      -3.776  14.015  24.217  0.00  0.00    +0.000 C 
ATOM     17  C   UNL     1      -4.234  12.618  24.670  0.00  0.00    +0.000 C 
ATOM     18  C   UNL     1      -3.023  14.721  25.358  0.00  0.00    +0.000 C 
BRANCH  16  19
ATOM     19  C   UNL     1      -4.992  14.850  23.800  0.00  0.00    +0.000 C 
ATOM     20  O   UNL     1      -4.933  15.857  23.122  0.00  0.00    +0.000 OA
BRANCH  19  21
ATOM     21  O   UNL     1      -6.180  14.368  24.244  0.00  0.00    +0.000 OA
ATOM     22  H   UNL     1      -6.162  14.001  25.159  0.00  0.00    +0.000 HD
ENDBRANCH  19  21
ENDBRANCH  16  19
ENDBRANCH  15  16
ENDBRANCH  14  15
ENDBRANCH  10  14
ENDBRANCH   1  13
BRANCH   4  23
ATOM     23  C   UNL     1       2.825   6.277  18.360  0.00  0.00    +0.000 A 
ATOM     24  N   UNL     1       2.393   5.039  18.208  0.00  0.00    +0.000 NA
ATOM     25  C   UNL     1       3.381   4.374  17.522  0.00  0.00    +0.000 A 
ATOM     26  C   UNL     1       4.413   5.233  17.223  0.00  0.00    +0.000 A 
ATOM     27  N   UNL     1       4.015   6.437  17.720  0.00  0.00    +0.000 N 
ATOM     28  H   UNL     1       4.522   7.310  17.643  0.00  0.00    +0.000 HD
BRANCH  26  29
ATOM     29  C   UNL     1       5.745   4.996  16.493  0.00  0.00    +0.000 C 
ATOM     30  C   UNL     1       5.755   3.624  15.712  0.00  0.00    +0.000 C 
ATOM     31  C   UNL     1       6.392   4.354  14.522  0.00  0.00    +0.000 C 
ATOM     32  C   UNL     1       5.741   5.639  15.052  0.00  0.00    +0.000 C 
BRANCH  29  33
ATOM     33  C   UNL     1       7.012   5.265  17.329  0.00  0.00    +0.000 C 
ATOM     34  F   UNL     1       7.638   6.422  16.972  0.00  0.00    +0.000 F 
ATOM     35  F   UNL     1       6.727   5.380  18.646  0.00  0.00    +0.000 F 
ATOM     36  F   UNL     1       7.926   4.278  17.185  0.00  0.00    +0.000 F 
ENDBRANCH  29  33
ENDBRANCH  26  29
ENDBRANCH   4  23
TORSDOF 9
ENDMDL
MODEL 6
REMARK VINA RESULT:      -8.3      0.797      1.372
REMARK  Name = 
REMARK  12 active torsions:
REMARK  status: ('A' for Active; 'I' for Inactive)
REMARK    1  A    between atoms: C_1  and  C_2
REMARK    2  A    between atoms: C_4  and  O_5
REMARK    3  A    between atoms: O_5  and  C_6
REMARK    4  A    between atoms: C_6  and  C_7
REMARK    5  A    between atoms: C_7  and  C_8
REMARK    6  A    between atoms: C_7  and  C_9
REMARK    7  A    between atoms: C_7  and  C_10
REMARK    8  A    between atoms: C_10  and  O_12
REMARK    9  A    between atoms: C_15  and  C_16
REMARK   10  A    between atoms: C_19  and  C_20
REMARK   11  A    between atoms: C_23  and  C_24
REMARK   12  A    between atoms: C_24  and  C_25
REMARK                            x       y       z     vdW  Elec       q    Type
REMARK                         _______ _______ _______ _____ _____    ______ ____
ROOT
ATOM      1  C   UNL     1       0.410   9.775  19.874  0.00  0.00    +0.000 A 
ATOM      2  C   UNL     1       0.695   8.809  20.853  0.00  0.00    +0.000 A 
ATOM      3  C   UNL     1       1.586   7.766  20.599  0.00  0.00    +0.000 A 
ATOM      4  C   UNL     1       2.176   7.620  19.337  0.00  0.00    +0.000 A 
ATOM      5  C   UNL     1       1.906   8.558  18.356  0.00  0.00    +0.000 A 
ATOM      6  C   UNL     1       1.073   9.632  18.643  0.00  0.00    +0.000 A 
ENDROOT
BRANCH   1  13
ATOM      7  C   UNL     1      -2.024  10.483  18.081  0.00  0.00    +0.000 C 
ATOM      8  C   UNL     1      -1.634  11.226  19.331  0.00  0.00    +0.000 A 
ATOM      9  C   UNL     1      -2.437  12.312  19.698  0.00  0.00    +0.000 A 
ATOM     10  C   UNL     1      -2.133  13.038  20.834  0.00  0.00    +0.000 A 
ATOM     11  N   UNL     1      -1.111  12.755  21.653  0.00  0.00    +0.000 NA
ATOM     12  C   UNL     1      -0.340  11.703  21.285  0.00  0.00    +0.000 A 
ATOM     13  C   UNL     1      -0.525  10.892  20.146  0.00  0.00    +0.000 A 
BRANCH  10  14
ATOM     14  O   UNL     1      -2.997  14.064  21.139  0.00  0.00    +0.000 OA
BRANCH  14  15
ATOM     15  C   UNL     1      -3.169  14.278  22.545  0.00  0.00    +0.000 C 
BRANCH  15  16
ATOM     16  C   UNL     1      -4.678  14.514  22.819  0.00  0.00    +0.000 C 
ATOM     17  C   UNL     1      -4.839  15.463  24.019  0.00  0.00    +0.000 C 
ATOM     18  C   UNL     1      -5.325  15.129  21.566  0.00  0.00    +0.000 C 
BRANCH  16  19
ATOM     19  C   UNL     1      -5.332  13.164  23.134  0.00  0.00    +0.000 C 
ATOM     20  O   UNL     1      -5.857  12.887  24.195  0.00  0.00    +0.000 OA
BRANCH  19  21
ATOM     21  O   UNL     1      -5.295  12.272  22.112  0.00  0.00    +0.000 OA
ATOM     22  H   UNL     1      -5.999  11.583  22.138  0.00  0.00    +0.000 HD
ENDBRANCH  19  21
ENDBRANCH  16  19
ENDBRANCH  15  16
ENDBRANCH  14  15
ENDBRANCH  10  14
ENDBRANCH   1  13
BRANCH   4  23
ATOM     23  C   UNL     1       3.071   6.519  19.037  0.00  0.00    +0.000 A 
ATOM     24  N   UNL     1       3.221   5.383  19.691  0.00  0.00    +0.000 NA
ATOM     25  C   UNL     1       4.229   4.705  19.048  0.00  0.00    +0.000 A 
ATOM     26  C   UNL     1       4.673   5.428  17.966  0.00  0.00    +0.000 A 
ATOM     27  N   UNL     1       3.892   6.545  17.953  0.00  0.00    +0.000 N 
ATOM     28  H   UNL     1       3.922   7.284  17.262  0.00  0.00    +0.000 HD
BRANCH  26  29
ATOM     29  C   UNL     1       5.777   5.133  16.938  0.00  0.00    +0.000 C 
ATOM     30  C   UNL     1       5.589   3.721  16.258  0.00  0.00    +0.000 C 
ATOM     31  C   UNL     1       5.906   4.377  14.907  0.00  0.00    +0.000 C 
ATOM     32  C   UNL     1       5.411   5.698  15.511  0.00  0.00    +0.000 C 
BRANCH  29  33
ATOM     33  C   UNL     1       7.215   5.427  17.412  0.00  0.00    +0.000 C 
ATOM     34  F   UNL     1       8.045   4.357  17.255  0.00  0.00    +0.000 F 
ATOM     35  F   UNL     1       7.773   6.443  16.718  0.00  0.00    +0.000 F 
ATOM     36  F   UNL     1       7.253   5.748  18.726  0.00  0.00    +0.000 F 
ENDBRANCH  29  33
ENDBRANCH  26  29
ENDBRANCH   4  23
TORSDOF 9
ENDMDL
MODEL 7
REMARK VINA RESULT:      -8.3      0.921      1.687
REMARK  Name = 
REMARK  12 active torsions:
REMARK  status: ('A' for Active; 'I' for Inactive)
REMARK    1  A    between atoms: C_1  and  C_2
REMARK    2  A    between atoms: C_4  and  O_5
REMARK    3  A    between atoms: O_5  and  C_6
REMARK    4  A    between atoms: C_6  and  C_7
REMARK    5  A    between atoms: C_7  and  C_8
REMARK    6  A    between atoms: C_7  and  C_9
REMARK    7  A    between atoms: C_7  and  C_10
REMARK    8  A    between atoms: C_10  and  O_12
REMARK    9  A    between atoms: C_15  and  C_16
REMARK   10  A    between atoms: C_19  and  C_20
REMARK   11  A    between atoms: C_23  and  C_24
REMARK   12  A    between atoms: C_24  and  C_25
REMARK                            x       y       z     vdW  Elec       q    Type
REMARK                         _______ _______ _______ _____ _____    ______ ____
ROOT
ATOM      1  C   UNL     1       0.742   9.756  19.838  0.00  0.00    +0.000 A 
ATOM      2  C   UNL     1       1.058   8.683  20.685  0.00  0.00    +0.000 A 
ATOM      3  C   UNL     1       1.790   7.588  20.221  0.00  0.00    +0.000 A 
ATOM      4  C   UNL     1       2.177   7.505  18.878  0.00  0.00    +0.000 A 
ATOM      5  C   UNL     1       1.872   8.550  18.023  0.00  0.00    +0.000 A 
ATOM      6  C   UNL     1       1.206   9.666  18.514  0.00  0.00    +0.000 A 
ENDROOT
BRANCH   1  13
ATOM      7  C   UNL     1      -1.889  10.787  18.550  0.00  0.00    +0.000 C 
ATOM      8  C   UNL     1      -1.220  11.406  19.748  0.00  0.00    +0.000 A 
ATOM      9  C   UNL     1      -1.841  12.527  20.311  0.00  0.00    +0.000 A 
ATOM     10  C   UNL     1      -1.277  13.146  21.411  0.00  0.00    +0.000 A 
ATOM     11  N   UNL     1      -0.160  12.722  22.017  0.00  0.00    +0.000 NA
ATOM     12  C   UNL     1       0.433  11.637  21.462  0.00  0.00    +0.000 A 
ATOM     13  C   UNL     1      -0.022  10.926  20.333  0.00  0.00    +0.000 A 
BRANCH  10  14
ATOM     14  O   UNL     1      -1.975  14.216  21.920  0.00  0.00    +0.000 OA
BRANCH  14  15
ATOM     15  C   UNL     1      -3.395  14.027  21.934  0.00  0.00    +0.000 C 
BRANCH  15  16
ATOM     16  C   UNL     1      -3.875  14.060  23.409  0.00  0.00    +0.000 C 
ATOM     17  C   UNL     1      -5.352  14.491  23.459  0.00  0.00    +0.000 C 
ATOM     18  C   UNL     1      -3.711  12.658  24.021  0.00  0.00    +0.000 C 
BRANCH  16  19
ATOM     19  C   UNL     1      -3.015  15.069  24.178  0.00  0.00    +0.000 C 
ATOM     20  O   UNL     1      -2.406  14.814  25.199  0.00  0.00    +0.000 OA
BRANCH  19  21
ATOM     21  O   UNL     1      -2.967  16.304  23.619  0.00  0.00    +0.000 OA
ATOM     22  H   UNL     1      -3.254  17.038  24.211  0.00  0.00    +0.000 HD
ENDBRANCH  19  21
ENDBRANCH  16  19
ENDBRANCH  15  16
ENDBRANCH  14  15
ENDBRANCH  10  14
ENDBRANCH   1  13
BRANCH   4  23
ATOM     23  C   UNL     1       2.899   6.358  18.363  0.00  0.00    +0.000 A 
ATOM     24  N   UNL     1       2.626   5.077  18.524  0.00  0.00    +0.000 NA
ATOM     25  C   UNL     1       3.639   4.391  17.897  0.00  0.00    +0.000 A 
ATOM     26  C   UNL     1       4.521   5.272  17.317  0.00  0.00    +0.000 A 
ATOM     27  N   UNL     1       4.005   6.504  17.583  0.00  0.00    +0.000 N 
ATOM     28  H   UNL     1       4.383   7.389  17.269  0.00  0.00    +0.000 HD
BRANCH  26  29
ATOM     29  C   UNL     1       5.813   5.029  16.520  0.00  0.00    +0.000 C 
ATOM     30  C   UNL     1       5.794   3.639  15.773  0.00  0.00    +0.000 C 
ATOM     31  C   UNL     1       6.358   4.346  14.532  0.00  0.00    +0.000 C 
ATOM     32  C   UNL     1       5.724   5.637  15.067  0.00  0.00    +0.000 C 
BRANCH  29  33
ATOM     33  C   UNL     1       7.121   5.329  17.279  0.00  0.00    +0.000 C 
ATOM     34  F   UNL     1       7.751   6.445  16.813  0.00  0.00    +0.000 F 
ATOM     35  F   UNL     1       6.899   5.542  18.595  0.00  0.00    +0.000 F 
ATOM     36  F   UNL     1       8.010   4.316  17.165  0.00  0.00    +0.000 F 
ENDBRANCH  29  33
ENDBRANCH  26  29
ENDBRANCH   4  23
TORSDOF 9
ENDMDL
MODEL 8
REMARK VINA RESULT:      -8.2      1.062      1.821
REMARK  Name = 
REMARK  12 active torsions:
REMARK  status: ('A' for Active; 'I' for Inactive)
REMARK    1  A    between atoms: C_1  and  C_2
REMARK    2  A    between atoms: C_4  and  O_5
REMARK    3  A    between atoms: O_5  and  C_6
REMARK    4  A    between atoms: C_6  and  C_7
REMARK    5  A    between atoms: C_7  and  C_8
REMARK    6  A    between atoms: C_7  and  C_9
REMARK    7  A    between atoms: C_7  and  C_10
REMARK    8  A    between atoms: C_10  and  O_12
REMARK    9  A    between atoms: C_15  and  C_16
REMARK   10  A    between atoms: C_19  and  C_20
REMARK   11  A    between atoms: C_23  and  C_24
REMARK   12  A    between atoms: C_24  and  C_25
REMARK                            x       y       z     vdW  Elec       q    Type
REMARK                         _______ _______ _______ _____ _____    ______ ____
ROOT
ATOM      1  C   UNL     1       0.682  10.110  19.573  0.00  0.00    +0.000 A 
ATOM      2  C   UNL     1       0.997   9.102  20.497  0.00  0.00    +0.000 A 
ATOM      3  C   UNL     1       1.730   7.977  20.116  0.00  0.00    +0.000 A 
ATOM      4  C   UNL     1       2.120   7.796  18.783  0.00  0.00    +0.000 A 
ATOM      5  C   UNL     1       1.816   8.775  17.854  0.00  0.00    +0.000 A 
ATOM      6  C   UNL     1       1.149   9.924  18.260  0.00  0.00    +0.000 A 
ENDROOT
BRANCH   1  13
ATOM      7  C   UNL     1       1.985  12.804  20.400  0.00  0.00    +0.000 C 
ATOM      8  C   UNL     1       0.503  12.543  20.363  0.00  0.00    +0.000 A 
ATOM      9  C   UNL     1      -0.335  13.603  20.731  0.00  0.00    +0.000 A 
ATOM     10  C   UNL     1      -1.707  13.429  20.721  0.00  0.00    +0.000 A 
ATOM     11  N   UNL     1      -2.316  12.296  20.347  0.00  0.00    +0.000 NA
ATOM     12  C   UNL     1      -1.493  11.278  19.995  0.00  0.00    +0.000 A 
ATOM     13  C   UNL     1      -0.084  11.313  19.979  0.00  0.00    +0.000 A 
BRANCH  10  14
ATOM     14  O   UNL     1      -2.453  14.534  21.060  0.00  0.00    +0.000 OA
BRANCH  14  15
ATOM     15  C   UNL     1      -2.873  14.550  22.430  0.00  0.00    +0.000 C 
BRANCH  15  16
ATOM     16  C   UNL     1      -4.422  14.458  22.463  0.00  0.00    +0.000 C 
ATOM     17  C   UNL     1      -4.966  15.373  23.574  0.00  0.00    +0.000 C 
ATOM     18  C   UNL     1      -4.980  14.894  21.097  0.00  0.00    +0.000 C 
BRANCH  16  19
ATOM     19  C   UNL     1      -4.817  13.005  22.748  0.00  0.00    +0.000 C 
ATOM     20  O   UNL     1      -4.858  12.510  23.858  0.00  0.00    +0.000 OA
BRANCH  19  21
ATOM     21  O   UNL     1      -5.139  12.286  21.643  0.00  0.00    +0.000 OA
ATOM     22  H   UNL     1      -4.549  12.431  20.868  0.00  0.00    +0.000 HD
ENDBRANCH  19  21
ENDBRANCH  16  19
ENDBRANCH  15  16
ENDBRANCH  14  15
ENDBRANCH  10  14
ENDBRANCH   1  13
BRANCH   4  23
ATOM     23  C   UNL     1       2.843   6.615  18.354  0.00  0.00    +0.000 A 
ATOM     24  N   UNL     1       2.566   5.348  18.602  0.00  0.00    +0.000 NA
ATOM     25  C   UNL     1       3.582   4.618  18.032  0.00  0.00    +0.000 A 
ATOM     26  C   UNL     1       4.471   5.455  17.400  0.00  0.00    +0.000 A 
ATOM     27  N   UNL     1       3.956   6.704  17.577  0.00  0.00    +0.000 N 
ATOM     28  H   UNL     1       4.339   7.564  17.206  0.00  0.00    +0.000 HD
BRANCH  26  29
ATOM     29  C   UNL     1       5.770   5.156  16.634  0.00  0.00    +0.000 C 
ATOM     30  C   UNL     1       5.754   3.717  15.985  0.00  0.00    +0.000 C 
ATOM     31  C   UNL     1       6.330   4.335  14.703  0.00  0.00    +0.000 C 
ATOM     32  C   UNL     1       5.694   5.662  15.141  0.00  0.00    +0.000 C 
BRANCH  29  33
ATOM     33  C   UNL     1       7.072   5.505  17.381  0.00  0.00    +0.000 C 
ATOM     34  F   UNL     1       7.978   4.487  17.355  0.00  0.00    +0.000 F 
ATOM     35  F   UNL     1       7.690   6.576  16.835  0.00  0.00    +0.000 F 
ATOM     36  F   UNL     1       6.843   5.777  18.686  0.00  0.00    +0.000 F 
ENDBRANCH  29  33
ENDBRANCH  26  29
ENDBRANCH   4  23
TORSDOF 9
ENDMDL
MODEL 9
REMARK VINA RESULT:      -8.1      1.162      1.776
REMARK  Name = 
REMARK  12 active torsions:
REMARK  status: ('A' for Active; 'I' for Inactive)
REMARK    1  A    between atoms: C_1  and  C_2
REMARK    2  A    between atoms: C_4  and  O_5
REMARK    3  A    between atoms: O_5  and  C_6
REMARK    4  A    between atoms: C_6  and  C_7
REMARK    5  A    between atoms: C_7  and  C_8
REMARK    6  A    between atoms: C_7  and  C_9
REMARK    7  A    between atoms: C_7  and  C_10
REMARK    8  A    between atoms: C_10  and  O_12
REMARK    9  A    between atoms: C_15  and  C_16
REMARK   10  A    between atoms: C_19  and  C_20
REMARK   11  A    between atoms: C_23  and  C_24
REMARK   12  A    between atoms: C_24  and  C_25
REMARK                            x       y       z     vdW  Elec       q    Type
REMARK                         _______ _______ _______ _____ _____    ______ ____
ROOT
ATOM      1  C   UNL     1       0.699   9.605  20.365  0.00  0.00    +0.000 A 
ATOM      2  C   UNL     1       1.132   9.644  19.030  0.00  0.00    +0.000 A 
ATOM      3  C   UNL     1       1.810   8.566  18.459  0.00  0.00    +0.000 A 
ATOM      4  C   UNL     1       2.130   7.437  19.224  0.00  0.00    +0.000 A 
ATOM      5  C   UNL     1       1.718   7.379  20.543  0.00  0.00    +0.000 A 
ATOM      6  C   UNL     1       0.981   8.427  21.080  0.00  0.00    +0.000 A 
ENDROOT
BRANCH   1  13
ATOM      7  C   UNL     1      -0.346   9.645  23.288  0.00  0.00    +0.000 C 
ATOM      8  C   UNL     1      -0.519  10.767  22.299  0.00  0.00    +0.000 A 
ATOM      9  C   UNL     1      -1.203  11.905  22.745  0.00  0.00    +0.000 A 
ATOM     10  C   UNL     1      -1.399  12.970  21.886  0.00  0.00    +0.000 A 
ATOM     11  N   UNL     1      -0.944  13.009  20.626  0.00  0.00    +0.000 NA
ATOM     12  C   UNL     1      -0.285  11.902  20.207  0.00  0.00    +0.000 A 
ATOM     13  C   UNL     1      -0.034  10.743  20.969  0.00  0.00    +0.000 A 
BRANCH  10  14
ATOM     14  O   UNL     1      -2.047  14.059  22.420  0.00  0.00    +0.000 OA
BRANCH  14  15
ATOM     15  C   UNL     1      -3.475  13.972  22.354  0.00  0.00    +0.000 C 
BRANCH  15  16
ATOM     16  C   UNL     1      -4.044  14.262  23.769  0.00  0.00    +0.000 C 
ATOM     17  C   UNL     1      -5.467  14.834  23.643  0.00  0.00    +0.000 C 
ATOM     18  C   UNL     1      -4.069  12.952  24.577  0.00  0.00    +0.000 C 
BRANCH  16  19
ATOM     19  C   UNL     1      -3.134  15.283  24.460  0.00  0.00    +0.000 C 
ATOM     20  O   UNL     1      -3.276  16.488  24.388  0.00  0.00    +0.000 OA
BRANCH  19  21
ATOM     21  O   UNL     1      -2.131  14.734  25.191  0.00  0.00    +0.000 OA
ATOM     22  H   UNL     1      -2.359  14.544  26.130  0.00  0.00    +0.000 HD
ENDBRANCH  19  21
ENDBRANCH  16  19
ENDBRANCH  15  16
ENDBRANCH  14  15
ENDBRANCH  10  14
ENDBRANCH   1  13
BRANCH   4  23
ATOM     23  C   UNL     1       2.872   6.324  18.665  0.00  0.00    +0.000 A 
ATOM     24  N   UNL     1       2.664   5.032  18.833  0.00  0.00    +0.000 NA
ATOM     25  C   UNL     1       3.670   4.392  18.150  0.00  0.00    +0.000 A 
ATOM     26  C   UNL     1       4.482   5.312  17.528  0.00  0.00    +0.000 A 
ATOM     27  N   UNL     1       3.928   6.520  17.829  0.00  0.00    +0.000 N 
ATOM     28  H   UNL     1       4.251   7.421  17.500  0.00  0.00    +0.000 HD
BRANCH  26  29
ATOM     29  C   UNL     1       5.739   5.128  16.663  0.00  0.00    +0.000 C 
ATOM     30  C   UNL     1       5.704   3.775  15.850  0.00  0.00    +0.000 C 
ATOM     31  C   UNL     1       6.201   4.550  14.621  0.00  0.00    +0.000 C 
ATOM     32  C   UNL     1       5.575   5.805  15.247  0.00  0.00    +0.000 C 
BRANCH  29  33
ATOM     33  C   UNL     1       7.076   5.411  17.376  0.00  0.00    +0.000 C 
ATOM     34  F   UNL     1       6.917   5.648  18.709  0.00  0.00    +0.000 F 
ATOM     35  F   UNL     1       7.927   4.365  17.277  0.00  0.00    +0.000 F 
ATOM     36  F   UNL     1       7.695   6.500  16.867  0.00  0.00    +0.000 F 
ENDBRANCH  29  33
ENDBRANCH  26  29
ENDBRANCH   4  23
TORSDOF 9
ENDMDL
