MODEL 1
REMARK VINA RESULT:      -7.3      0.000      0.000
REMARK  Name = 
REMARK  10 active torsions:
REMARK  status: ('A' for Active; 'I' for Inactive)
REMARK    1  A    between atoms: C_1  and  C_2
REMARK    2  A    between atoms: C_2  and  C_3
REMARK    3  A    between atoms: C_3  and  C_4
REMARK    4  A    between atoms: C_4  and  C_5
REMARK    5  A    between atoms: C_4  and  C_18
REMARK    6  A    between atoms: C_6  and  O_7
REMARK    7  A    between atoms: C_10  and  C_11
REMARK    8  A    between atoms: C_19  and  N_20
REMARK    9  A    between atoms: N_21  and  C_22
REMARK   10  A    between atoms: N_25  and  C_26
REMARK                            x       y       z     vdW  Elec       q    Type
REMARK                         _______ _______ _______ _____ _____    ______ ____
ROOT
ATOM      1  C   UNL     1       0.575  12.167  19.568  0.00  0.00    +0.000 C 
ENDROOT
BRANCH   1   2
ATOM      2  C   UNL     1       0.868  10.681  19.740  0.00  0.00    +0.000 A 
ATOM      3  C   UNL     1       1.322   9.897  18.746  0.00  0.00    +0.000 A 
ATOM      4  C   UNL     1       1.821   8.556  19.031  0.00  0.00    +0.000 A 
ATOM      5  C   UNL     1       2.587   7.819  18.123  0.00  0.00    +0.000 A 
ATOM      6  C   UNL     1       3.084   6.552  18.457  0.00  0.00    +0.000 A 
ATOM      7  C   UNL     1       3.953   5.808  17.489  0.00  0.00    +0.000 C 
ATOM      8  C   UNL     1       2.740   5.985  19.695  0.00  0.00    +0.000 A 
ATOM      9  C   UNL     1       1.982   6.715  20.610  0.00  0.00    +0.000 A 
ATOM     10  C   UNL     1       1.559   8.001  20.276  0.00  0.00    +0.000 A 
ATOM     11  O   UNL     1       0.914   8.750  21.268  0.00  0.00    +0.000 OA
ATOM     12  C   UNL     1       0.770  10.122  21.116  0.00  0.00    +0.000 A 
ATOM     13  O   UNL     1       0.537  10.841  22.083  0.00  0.00    +0.000 OA
BRANCH   3  14
ATOM     14  O   UNL     1       1.441  10.302  17.430  0.00  0.00    +0.000 OA
ATOM     15  H   UNL     1       2.388  10.398  17.212  0.00  0.00    +0.000 HD
ENDBRANCH   3  14
ENDBRANCH   1   2
BRANCH   1  16
ATOM     16  C   UNL     1       1.831  13.058  19.622  0.00  0.00    +0.000 A 
ATOM     17  C   UNL     1       2.717  13.329  18.636  0.00  0.00    +0.000 A 
ATOM     18  N   UNL     1       3.618  14.371  18.788  0.00  0.00    +0.000 N 
ATOM     19  C   UNL     1       4.476  14.777  17.677  0.00  0.00    +0.000 C 
ATOM     20  C   UNL     1       3.860  15.010  19.998  0.00  0.00    +0.000 A 
ATOM     21  O   UNL     1       4.695  15.910  20.106  0.00  0.00    +0.000 OA
ATOM     22  N   UNL     1       3.113  14.568  21.071  0.00  0.00    +0.000 N 
ATOM     23  C   UNL     1       3.412  15.098  22.387  0.00  0.00    +0.000 C 
ATOM     24  C   UNL     1       1.998  13.774  20.927  0.00  0.00    +0.000 A 
ATOM     25  O   UNL     1       1.167  13.605  21.824  0.00  0.00    +0.000 OA
BRANCH  17  26
ATOM     26  N   UNL     1       2.793  12.583  17.478  0.00  0.00    +0.000 N 
ATOM     27  H   UNL     1       3.749  12.310  17.232  0.00  0.00    +0.000 HD
ATOM     28  H   UNL     1       2.176  11.774  17.489  0.00  0.00    +0.000 HD
ENDBRANCH  17  26
ENDBRANCH   1  16
BRANCH   1  29
ATOM     29  C   UNL     1      -0.438  12.442  18.417  0.00  0.00    +0.000 C 
BRANCH  29  31
ATOM     30  C   UNL     1      -2.132  10.818  17.485  0.00  0.00    +0.000 C 
ATOM     31  C   UNL     1      -1.808  11.770  18.627  0.00  0.00    +0.000 C 
ENDBRANCH  29  31
ENDBRANCH   1  29
TORSDOF 6
ENDMDL
MODEL 2
REMARK VINA RESULT:      -7.2      2.784      4.917
REMARK  Name = 
REMARK  10 active torsions:
REMARK  status: ('A' for Active; 'I' for Inactive)
REMARK    1  A    between atoms: C_1  and  C_2
REMARK    2  A    between atoms: C_2  and  C_3
REMARK    3  A    between atoms: C_3  and  C_4
REMARK    4  A    between atoms: C_4  and  C_5
REMARK    5  A    between atoms: C_4  and  C_18
REMARK    6  A    between atoms: C_6  and  O_7
REMARK    7  A    between atoms: C_10  and  C_11
REMARK    8  A    between atoms: C_19  and  N_20
REMARK    9  A    between atoms: N_21  and  C_22
REMARK   10  A    between atoms: N_25  and  C_26
REMARK                            x       y       z     vdW  Elec       q    Type
REMARK                         _______ _______ _______ _____ _____    ______ ____
ROOT
ATOM      1  C   UNL     1       0.206  11.851  19.965  0.00  0.00    +0.000 C 
ENDROOT
BRANCH   1   2
ATOM      2  C   UNL     1       0.689  10.407  19.969  0.00  0.00    +0.000 A 
ATOM      3  C   UNL     1       1.170   9.784  18.878  0.00  0.00    +0.000 A 
ATOM      4  C   UNL     1       1.847   8.498  18.997  0.00  0.00    +0.000 A 
ATOM      5  C   UNL     1       2.636   7.955  17.978  0.00  0.00    +0.000 A 
ATOM      6  C   UNL     1       3.306   6.737  18.155  0.00  0.00    +0.000 A 
ATOM      7  C   UNL     1       4.194   6.205  17.070  0.00  0.00    +0.000 C 
ATOM      8  C   UNL     1       3.117   6.016  19.346  0.00  0.00    +0.000 A 
ATOM      9  C   UNL     1       2.338   6.552  20.369  0.00  0.00    +0.000 A 
ATOM     10  C   UNL     1       1.739   7.799  20.192  0.00  0.00    +0.000 A 
ATOM     11  O   UNL     1       1.073   8.361  21.288  0.00  0.00    +0.000 OA
ATOM     12  C   UNL     1       0.752   9.712  21.284  0.00  0.00    +0.000 A 
ATOM     13  O   UNL     1       0.498  10.301  22.330  0.00  0.00    +0.000 OA
BRANCH   3  14
ATOM     14  O   UNL     1       1.150  10.323  17.606  0.00  0.00    +0.000 OA
ATOM     15  H   UNL     1       0.978  11.283  17.670  0.00  0.00    +0.000 HD
ENDBRANCH   3  14
ENDBRANCH   1   2
BRANCH   1  16
ATOM     16  C   UNL     1      -1.318  11.998  20.137  0.00  0.00    +0.000 A 
ATOM     17  C   UNL     1      -2.014  12.326  21.250  0.00  0.00    +0.000 A 
ATOM     18  N   UNL     1      -3.349  12.687  21.145  0.00  0.00    +0.000 N 
ATOM     19  C   UNL     1      -4.073  13.191  22.309  0.00  0.00    +0.000 C 
ATOM     20  C   UNL     1      -4.113  12.488  20.001  0.00  0.00    +0.000 A 
ATOM     21  O   UNL     1      -5.308  12.788  19.954  0.00  0.00    +0.000 OA
ATOM     22  N   UNL     1      -3.452  11.930  18.926  0.00  0.00    +0.000 N 
ATOM     23  C   UNL     1      -4.222  11.573  17.750  0.00  0.00    +0.000 C 
ATOM     24  C   UNL     1      -2.080  11.844  18.856  0.00  0.00    +0.000 A 
ATOM     25  O   UNL     1      -1.468  11.617  17.809  0.00  0.00    +0.000 OA
BRANCH  17  26
ATOM     26  N   UNL     1      -1.461  12.286  22.512  0.00  0.00    +0.000 N 
ATOM     27  H   UNL     1      -2.159  12.281  23.263  0.00  0.00    +0.000 HD
ATOM     28  H   UNL     1      -0.799  11.522  22.628  0.00  0.00    +0.000 HD
ENDBRANCH  17  26
ENDBRANCH   1  16
BRANCH   1  29
ATOM     29  C   UNL     1       1.108  12.781  20.832  0.00  0.00    +0.000 C 
BRANCH  29  31
ATOM     30  C   UNL     1       1.914  13.854  18.694  0.00  0.00    +0.000 C 
ATOM     31  C   UNL     1       2.320  13.348  20.070  0.00  0.00    +0.000 C 
ENDBRANCH  29  31
ENDBRANCH   1  29
TORSDOF 6
ENDMDL
MODEL 3
REMARK VINA RESULT:      -6.9      3.451      5.448
REMARK  Name = 
REMARK  10 active torsions:
REMARK  status: ('A' for Active; 'I' for Inactive)
REMARK    1  A    between atoms: C_1  and  C_2
REMARK    2  A    between atoms: C_2  and  C_3
REMARK    3  A    between atoms: C_3  and  C_4
REMARK    4  A    between atoms: C_4  and  C_5
REMARK    5  A    between atoms: C_4  and  C_18
REMARK    6  A    between atoms: C_6  and  O_7
REMARK    7  A    between atoms: C_10  and  C_11
REMARK    8  A    between atoms: C_19  and  N_20
REMARK    9  A    between atoms: N_21  and  C_22
REMARK   10  A    between atoms: N_25  and  C_26
REMARK                            x       y       z     vdW  Elec       q    Type
REMARK                         _______ _______ _______ _____ _____    ______ ____
ROOT
ATOM      1  C   UNL     1      -0.701  12.350  20.768  0.00  0.00    +0.000 C 
ENDROOT
BRANCH   1   2
ATOM      2  C   UNL     1      -0.123  10.945  20.656  0.00  0.00    +0.000 A 
ATOM      3  C   UNL     1       0.344  10.427  19.507  0.00  0.00    +0.000 A 
ATOM      4  C   UNL     1       1.111   9.186  19.511  0.00  0.00    +0.000 A 
ATOM      5  C   UNL     1       1.884   8.764  18.426  0.00  0.00    +0.000 A 
ATOM      6  C   UNL     1       2.642   7.587  18.492  0.00  0.00    +0.000 A 
ATOM      7  C   UNL     1       3.509   7.187  17.337  0.00  0.00    +0.000 C 
ATOM      8  C   UNL     1       2.560   6.782  19.640  0.00  0.00    +0.000 A 
ATOM      9  C   UNL     1       1.798   7.198  20.731  0.00  0.00    +0.000 A 
ATOM     10  C   UNL     1       1.108   8.409  20.662  0.00  0.00    +0.000 A 
ATOM     11  O   UNL     1       0.461   8.854  21.821  0.00  0.00    +0.000 OA
ATOM     12  C   UNL     1       0.051  10.176  21.919  0.00  0.00    +0.000 A 
ATOM     13  O   UNL     1      -0.191  10.680  23.012  0.00  0.00    +0.000 OA
BRANCH   3  14
ATOM     14  O   UNL     1       0.227  11.041  18.274  0.00  0.00    +0.000 OA
ATOM     15  H   UNL     1      -0.591  11.576  18.263  0.00  0.00    +0.000 HD
ENDBRANCH   3  14
ENDBRANCH   1   2
BRANCH   1  16
ATOM     16  C   UNL     1      -2.231  12.381  20.947  0.00  0.00    +0.000 A 
ATOM     17  C   UNL     1      -2.945  12.538  22.085  0.00  0.00    +0.000 A 
ATOM     18  N   UNL     1      -4.300  12.823  22.014  0.00  0.00    +0.000 N 
ATOM     19  C   UNL     1      -5.053  13.147  23.223  0.00  0.00    +0.000 C 
ATOM     20  C   UNL     1      -5.051  12.707  20.851  0.00  0.00    +0.000 A 
ATOM     21  O   UNL     1      -6.263  12.934  20.830  0.00  0.00    +0.000 OA
ATOM     22  N   UNL     1      -4.358  12.315  19.724  0.00  0.00    +0.000 N 
ATOM     23  C   UNL     1      -5.105  12.045  18.511  0.00  0.00    +0.000 C 
ATOM     24  C   UNL     1      -2.984  12.324  19.652  0.00  0.00    +0.000 A 
ATOM     25  O   UNL     1      -2.360  12.255  18.590  0.00  0.00    +0.000 OA
BRANCH  17  26
ATOM     26  N   UNL     1      -2.389  12.391  23.339  0.00  0.00    +0.000 N 
ATOM     27  H   UNL     1      -1.487  11.903  23.329  0.00  0.00    +0.000 HD
ATOM     28  H   UNL     1      -2.319  13.270  23.845  0.00  0.00    +0.000 HD
ENDBRANCH  17  26
ENDBRANCH   1  16
BRANCH   1  29
ATOM     29  C   UNL     1       0.139  13.264  21.710  0.00  0.00    +0.000 C 
BRANCH  29  31
ATOM     30  C   UNL     1       1.054  14.289  19.593  0.00  0.00    +0.000 C 
ATOM     31  C   UNL     1       1.369  13.890  21.026  0.00  0.00    +0.000 C 
ENDBRANCH  29  31
ENDBRANCH   1  29
TORSDOF 6
ENDMDL
MODEL 4
REMARK VINA RESULT:      -6.9      2.576      6.582
REMARK  Name = 
REMARK  10 active torsions:
REMARK  status: ('A' for Active; 'I' for Inactive)
REMARK    1  A    between atoms: C_1  and  C_2
REMARK    2  A    between atoms: C_2  and  C_3
REMARK    3  A    between atoms: C_3  and  C_4
REMARK    4  A    between atoms: C_4  and  C_5
REMARK    5  A    between atoms: C_4  and  C_18
REMARK    6  A    between atoms: C_6  and  O_7
REMARK    7  A    between atoms: C_10  and  C_11
REMARK    8  A    between atoms: C_19  and  N_20
REMARK    9  A    between atoms: N_21  and  C_22
REMARK   10  A    between atoms: N_25  and  C_26
REMARK                            x       y       z     vdW  Elec       q    Type
REMARK                         _______ _______ _______ _____ _____    ______ ____
ROOT
ATOM      1  C   UNL     1       0.767   9.883  18.791  0.00  0.00    +0.000 C 
ENDROOT
BRANCH   1   2
ATOM      2  C   UNL     1       1.398  11.159  19.335  0.00  0.00    +0.000 A 
ATOM      3  C   UNL     1       2.125  12.004  18.582  0.00  0.00    +0.000 A 
ATOM      4  C   UNL     1       2.486  13.323  19.089  0.00  0.00    +0.000 A 
ATOM      5  C   UNL     1       2.953  14.353  18.267  0.00  0.00    +0.000 A 
ATOM      6  C   UNL     1       3.244  15.621  18.791  0.00  0.00    +0.000 A 
ATOM      7  C   UNL     1       3.685  16.725  17.880  0.00  0.00    +0.000 C 
ATOM      8  C   UNL     1       3.137  15.831  20.176  0.00  0.00    +0.000 A 
ATOM      9  C   UNL     1       2.666  14.813  21.002  0.00  0.00    +0.000 A 
ATOM     10  C   UNL     1       2.319  13.583  20.443  0.00  0.00    +0.000 A 
ATOM     11  O   UNL     1       1.729  12.631  21.283  0.00  0.00    +0.000 OA
ATOM     12  C   UNL     1       1.067  11.541  20.736  0.00  0.00    +0.000 A 
ATOM     13  O   UNL     1       0.261  10.895  21.400  0.00  0.00    +0.000 OA
BRANCH   3  14
ATOM     14  O   UNL     1       2.505  11.750  17.279  0.00  0.00    +0.000 OA
ATOM     15  H   UNL     1       1.722  11.461  16.770  0.00  0.00    +0.000 HD
ENDBRANCH   3  14
ENDBRANCH   1   2
BRANCH   1  16
ATOM     16  C   UNL     1       1.587   8.611  19.081  0.00  0.00    +0.000 A 
ATOM     17  C   UNL     1       1.489   7.766  20.132  0.00  0.00    +0.000 A 
ATOM     18  N   UNL     1       2.110   6.527  20.079  0.00  0.00    +0.000 N 
ATOM     19  C   UNL     1       1.891   5.542  21.135  0.00  0.00    +0.000 C 
ATOM     20  C   UNL     1       3.055   6.180  19.121  0.00  0.00    +0.000 A 
ATOM     21  O   UNL     1       3.615   5.082  19.124  0.00  0.00    +0.000 OA
ATOM     22  N   UNL     1       3.331   7.143  18.172  0.00  0.00    +0.000 N 
ATOM     23  C   UNL     1       4.402   6.896  17.226  0.00  0.00    +0.000 C 
ATOM     24  C   UNL     1       2.536   8.251  17.980  0.00  0.00    +0.000 A 
ATOM     25  O   UNL     1       2.597   8.961  16.972  0.00  0.00    +0.000 OA
BRANCH  17  26
ATOM     26  N   UNL     1       0.818   8.094  21.291  0.00  0.00    +0.000 N 
ATOM     27  H   UNL     1      -0.135   8.433  21.128  0.00  0.00    +0.000 HD
ATOM     28  H   UNL     1       0.822   7.341  21.975  0.00  0.00    +0.000 HD
ENDBRANCH  17  26
ENDBRANCH   1  16
BRANCH   1  29
ATOM     29  C   UNL     1      -0.765   9.815  19.068  0.00  0.00    +0.000 C 
BRANCH  29  31
ATOM     30  C   UNL     1      -2.275   9.852  17.045  0.00  0.00    +0.000 C 
ATOM     31  C   UNL     1      -1.602  10.693  18.119  0.00  0.00    +0.000 C 
ENDBRANCH  29  31
ENDBRANCH   1  29
TORSDOF 6
ENDMDL
MODEL 5
REMARK VINA RESULT:      -6.8      4.067      6.197
REMARK  Name = 
REMARK  10 active torsions:
REMARK  status: ('A' for Active; 'I' for Inactive)
REMARK    1  A    between atoms: C_1  and  C_2
REMARK    2  A    between atoms: C_2  and  C_3
REMARK    3  A    between atoms: C_3  and  C_4
REMARK    4  A    between atoms: C_4  and  C_5
REMARK    5  A    between atoms: C_4  and  C_18
REMARK    6  A    between atoms: C_6  and  O_7
REMARK    7  A    between atoms: C_10  and  C_11
REMARK    8  A    between atoms: C_19  and  N_20
REMARK    9  A    between atoms: N_21  and  C_22
REMARK   10  A    between atoms: N_25  and  C_26
REMARK                            x       y       z     vdW  Elec       q    Type
REMARK                         _______ _______ _______ _____ _____    ______ ____
ROOT
ATOM      1  C   UNL     1      -2.033  12.746  19.952  0.00  0.00    +0.000 C 
ENDROOT
BRANCH   1   2
ATOM      2  C   UNL     1      -1.215  11.472  20.120  0.00  0.00    +0.000 A 
ATOM      3  C   UNL     1      -0.660  10.809  19.090  0.00  0.00    +0.000 A 
ATOM      4  C   UNL     1       0.315   9.750  19.330  0.00  0.00    +0.000 A 
ATOM      5  C   UNL     1       1.154   9.246  18.332  0.00  0.00    +0.000 A 
ATOM      6  C   UNL     1       2.108   8.261  18.620  0.00  0.00    +0.000 A 
ATOM      7  C   UNL     1       3.036   7.780  17.545  0.00  0.00    +0.000 C 
ATOM      8  C   UNL     1       2.166   7.719  19.914  0.00  0.00    +0.000 A 
ATOM      9  C   UNL     1       1.339   8.220  20.918  0.00  0.00    +0.000 A 
ATOM     10  C   UNL     1       0.446   9.249  20.619  0.00  0.00    +0.000 A 
ATOM     11  O   UNL     1      -0.273   9.813  21.679  0.00  0.00    +0.000 OA
ATOM     12  C   UNL     1      -0.912  11.034  21.510  0.00  0.00    +0.000 A 
ATOM     13  O   UNL     1      -1.243  11.711  22.479  0.00  0.00    +0.000 OA
BRANCH   3  14
ATOM     14  O   UNL     1      -0.880  11.114  17.761  0.00  0.00    +0.000 OA
ATOM     15  H   UNL     1      -1.657  11.705  17.695  0.00  0.00    +0.000 HD
ENDBRANCH   3  14
ENDBRANCH   1   2
BRANCH   1  16
ATOM     16  C   UNL     1      -3.538  12.560  20.226  0.00  0.00    +0.000 A 
ATOM     17  C   UNL     1      -4.240  12.883  21.336  0.00  0.00    +0.000 A 
ATOM     18  N   UNL     1      -5.626  12.904  21.293  0.00  0.00    +0.000 N 
ATOM     19  C   UNL     1      -6.396  13.397  22.431  0.00  0.00    +0.000 C 
ATOM     20  C   UNL     1      -6.371  12.361  20.253  0.00  0.00    +0.000 A 
ATOM     21  O   UNL     1      -7.604  12.364  20.263  0.00  0.00    +0.000 OA
ATOM     22  N   UNL     1      -5.646  11.813  19.215  0.00  0.00    +0.000 N 
ATOM     23  C   UNL     1      -6.360  11.112  18.166  0.00  0.00    +0.000 C 
ATOM     24  C   UNL     1      -4.299  12.039  19.045  0.00  0.00    +0.000 A 
ATOM     25  O   UNL     1      -3.700  11.803  17.992  0.00  0.00    +0.000 OA
BRANCH  17  26
ATOM     26  N   UNL     1      -3.635  13.166  22.543  0.00  0.00    +0.000 N 
ATOM     27  H   UNL     1      -4.049  12.661  23.334  0.00  0.00    +0.000 HD
ATOM     28  H   UNL     1      -2.627  13.035  22.519  0.00  0.00    +0.000 HD
ENDBRANCH  17  26
ENDBRANCH   1  16
BRANCH   1  29
ATOM     29  C   UNL     1      -1.345  13.983  20.603  0.00  0.00    +0.000 C 
BRANCH  29  31
ATOM     30  C   UNL     1      -0.213  15.393  18.840  0.00  0.00    +0.000 C 
ATOM     31  C   UNL     1      -0.007  14.363  19.940  0.00  0.00    +0.000 C 
ENDBRANCH  29  31
ENDBRANCH   1  29
TORSDOF 6
ENDMDL
MODEL 6
REMARK VINA RESULT:      -6.6      4.516      6.550
REMARK  Name = 
REMARK  10 active torsions:
REMARK  status: ('A' for Active; 'I' for Inactive)
REMARK    1  A    between atoms: C_1  and  C_2
REMARK    2  A    between atoms: C_2  and  C_3
REMARK    3  A    between atoms: C_3  and  C_4
REMARK    4  A    between atoms: C_4  and  C_5
REMARK    5  A    between atoms: C_4  and  C_18
REMARK    6  A    between atoms: C_6  and  O_7
REMARK    7  A    between atoms: C_10  and  C_11
REMARK    8  A    between atoms: C_19  and  N_20
REMARK    9  A    between atoms: N_21  and  C_22
REMARK   10  A    between atoms: N_25  and  C_26
REMARK                            x       y       z     vdW  Elec       q    Type
REMARK                         _______ _______ _______ _____ _____    ______ ____
ROOT
ATOM      1  C   UNL     1      -2.312  13.022  21.163  0.00  0.00    +0.000 C 
ENDROOT
BRANCH   1   2
ATOM      2  C   UNL     1      -1.480  11.747  21.112  0.00  0.00    +0.000 A 
ATOM      3  C   UNL     1      -1.046  11.192  19.966  0.00  0.00    +0.000 A 
ATOM      4  C   UNL     1      -0.051  10.127  19.990  0.00  0.00    +0.000 A 
ATOM      5  C   UNL     1       0.668   9.730  18.858  0.00  0.00    +0.000 A 
ATOM      6  C   UNL     1       1.649   8.732  18.938  0.00  0.00    +0.000 A 
ATOM      7  C   UNL     1       2.448   8.367  17.724  0.00  0.00    +0.000 C 
ATOM      8  C   UNL     1       1.855   8.069  20.159  0.00  0.00    +0.000 A 
ATOM      9  C   UNL     1       1.148   8.462  21.295  0.00  0.00    +0.000 A 
ATOM     10  C   UNL     1       0.227   9.505  21.200  0.00  0.00    +0.000 A 
ATOM     11  O   UNL     1      -0.366   9.956  22.386  0.00  0.00    +0.000 OA
ATOM     12  C   UNL     1      -1.019  11.180  22.409  0.00  0.00    +0.000 A 
ATOM     13  O   UNL     1      -1.237  11.757  23.471  0.00  0.00    +0.000 OA
BRANCH   3  14
ATOM     14  O   UNL     1      -1.418  11.622  18.707  0.00  0.00    +0.000 OA
ATOM     15  H   UNL     1      -1.815  10.873  18.220  0.00  0.00    +0.000 HD
ENDBRANCH   3  14
ENDBRANCH   1   2
BRANCH   1  16
ATOM     16  C   UNL     1      -3.795  12.784  21.507  0.00  0.00    +0.000 A 
ATOM     17  C   UNL     1      -4.414  12.905  22.703  0.00  0.00    +0.000 A 
ATOM     18  N   UNL     1      -5.799  12.927  22.762  0.00  0.00    +0.000 N 
ATOM     19  C   UNL     1      -6.483  13.211  24.022  0.00  0.00    +0.000 C 
ATOM     20  C   UNL     1      -6.621  12.571  21.700  0.00  0.00    +0.000 A 
ATOM     21  O   UNL     1      -7.850  12.567  21.797  0.00  0.00    +0.000 OA
ATOM     22  N   UNL     1      -5.975  12.217  20.533  0.00  0.00    +0.000 N 
ATOM     23  C   UNL     1      -6.768  11.706  19.431  0.00  0.00    +0.000 C 
ATOM     24  C   UNL     1      -4.642  12.474  20.310  0.00  0.00    +0.000 A 
ATOM     25  O   UNL     1      -4.121  12.428  19.192  0.00  0.00    +0.000 OA
BRANCH  17  26
ATOM     26  N   UNL     1      -3.724  12.975  23.895  0.00  0.00    +0.000 N 
ATOM     27  H   UNL     1      -3.750  13.905  24.327  0.00  0.00    +0.000 HD
ATOM     28  H   UNL     1      -4.009  12.260  24.559  0.00  0.00    +0.000 HD
ENDBRANCH  17  26
ENDBRANCH   1  16
BRANCH   1  29
ATOM     29  C   UNL     1      -1.587  14.174  21.923  0.00  0.00    +0.000 C 
BRANCH  29  31
ATOM     30  C   UNL     1      -0.683  15.016  19.721  0.00  0.00    +0.000 C 
ATOM     31  C   UNL     1      -0.356  14.724  21.178  0.00  0.00    +0.000 C 
ENDBRANCH  29  31
ENDBRANCH   1  29
TORSDOF 6
ENDMDL
MODEL 7
REMARK VINA RESULT:      -6.6      2.461      4.258
REMARK  Name = 
REMARK  10 active torsions:
REMARK  status: ('A' for Active; 'I' for Inactive)
REMARK    1  A    between atoms: C_1  and  C_2
REMARK    2  A    between atoms: C_2  and  C_3
REMARK    3  A    between atoms: C_3  and  C_4
REMARK    4  A    between atoms: C_4  and  C_5
REMARK    5  A    between atoms: C_4  and  C_18
REMARK    6  A    between atoms: C_6  and  O_7
REMARK    7  A    between atoms: C_10  and  C_11
REMARK    8  A    between atoms: C_19  and  N_20
REMARK    9  A    between atoms: N_21  and  C_22
REMARK   10  A    between atoms: N_25  and  C_26
REMARK                            x       y       z     vdW  Elec       q    Type
REMARK                         _______ _______ _______ _____ _____    ______ ____
ROOT
ATOM      1  C   UNL     1       0.690  11.823  19.593  0.00  0.00    +0.000 C 
ENDROOT
BRANCH   1   2
ATOM      2  C   UNL     1       1.027  10.339  19.665  0.00  0.00    +0.000 A 
ATOM      3  C   UNL     1       1.520   9.641  18.626  0.00  0.00    +0.000 A 
ATOM      4  C   UNL     1       2.057   8.299  18.824  0.00  0.00    +0.000 A 
ATOM      5  C   UNL     1       2.859   7.652  17.879  0.00  0.00    +0.000 A 
ATOM      6  C   UNL     1       3.392   6.381  18.132  0.00  0.00    +0.000 A 
ATOM      7  C   UNL     1       4.298   5.734  17.128  0.00  0.00    +0.000 C 
ATOM      8  C   UNL     1       3.048   5.717  19.322  0.00  0.00    +0.000 A 
ATOM      9  C   UNL     1       2.255   6.357  20.273  0.00  0.00    +0.000 A 
ATOM     10  C   UNL     1       1.796   7.650  20.023  0.00  0.00    +0.000 A 
ATOM     11  O   UNL     1       1.113   8.306  21.055  0.00  0.00    +0.000 OA
ATOM     12  C   UNL     1       0.927   9.680  20.996  0.00  0.00    +0.000 A 
ATOM     13  O   UNL     1       0.658  10.322  22.007  0.00  0.00    +0.000 OA
BRANCH   3  14
ATOM     14  O   UNL     1       1.644  10.141  17.344  0.00  0.00    +0.000 OA
ATOM     15  H   UNL     1       1.744  11.112  17.390  0.00  0.00    +0.000 HD
ENDBRANCH   3  14
ENDBRANCH   1   2
BRANCH   1  16
ATOM     16  C   UNL     1      -0.823  12.117  19.565  0.00  0.00    +0.000 A 
ATOM     17  C   UNL     1      -1.731  11.780  18.621  0.00  0.00    +0.000 A 
ATOM     18  N   UNL     1      -3.085  11.879  18.902  0.00  0.00    +0.000 N 
ATOM     19  C   UNL     1      -4.077  11.377  17.955  0.00  0.00    +0.000 C 
ATOM     20  C   UNL     1      -3.595  12.552  20.006  0.00  0.00    +0.000 A 
ATOM     21  O   UNL     1      -4.807  12.653  20.207  0.00  0.00    +0.000 OA
ATOM     22  N   UNL     1      -2.660  13.105  20.857  0.00  0.00    +0.000 N 
ATOM     23  C   UNL     1      -3.126  13.934  21.952  0.00  0.00    +0.000 C 
ATOM     24  C   UNL     1      -1.324  12.779  20.812  0.00  0.00    +0.000 A 
ATOM     25  O   UNL     1      -0.533  13.034  21.725  0.00  0.00    +0.000 OA
BRANCH  17  26
ATOM     26  N   UNL     1      -1.370  11.366  17.356  0.00  0.00    +0.000 N 
ATOM     27  H   UNL     1      -1.591  12.051  16.625  0.00  0.00    +0.000 HD
ATOM     28  H   UNL     1      -0.397  11.076  17.298  0.00  0.00    +0.000 HD
ENDBRANCH  17  26
ENDBRANCH   1  16
BRANCH   1  29
ATOM     29  C   UNL     1       1.558  12.676  20.565  0.00  0.00    +0.000 C 
BRANCH  29  31
ATOM     30  C   UNL     1       2.675  13.364  18.408  0.00  0.00    +0.000 C 
ATOM     31  C   UNL     1       2.405  13.749  19.854  0.00  0.00    +0.000 C 
ENDBRANCH  29  31
ENDBRANCH   1  29
TORSDOF 6
ENDMDL
MODEL 8
REMARK VINA RESULT:      -6.5      1.774      3.121
REMARK  Name = 
REMARK  10 active torsions:
REMARK  status: ('A' for Active; 'I' for Inactive)
REMARK    1  A    between atoms: C_1  and  C_2
REMARK    2  A    between atoms: C_2  and  C_3
REMARK    3  A    between atoms: C_3  and  C_4
REMARK    4  A    between atoms: C_4  and  C_5
REMARK    5  A    between atoms: C_4  and  C_18
REMARK    6  A    between atoms: C_6  and  O_7
REMARK    7  A    between atoms: C_10  and  C_11
REMARK    8  A    between atoms: C_19  and  N_20
REMARK    9  A    between atoms: N_21  and  C_22
REMARK   10  A    between atoms: N_25  and  C_26
REMARK                            x       y       z     vdW  Elec       q    Type
REMARK                         _______ _______ _______ _____ _____    ______ ____
ROOT
ATOM      1  C   UNL     1      -0.060  10.165  19.090  0.00  0.00    +0.000 C 
ENDROOT
BRANCH   1   2
ATOM      2  C   UNL     1       0.963   9.044  19.228  0.00  0.00    +0.000 A 
ATOM      3  C   UNL     1       0.940   8.140  20.224  0.00  0.00    +0.000 A 
ATOM      4  C   UNL     1       1.783   6.951  20.165  0.00  0.00    +0.000 A 
ATOM      5  C   UNL     1       1.586   5.835  20.983  0.00  0.00    +0.000 A 
ATOM      6  C   UNL     1       2.393   4.696  20.859  0.00  0.00    +0.000 A 
ATOM      7  C   UNL     1       2.123   3.490  21.707  0.00  0.00    +0.000 C 
ATOM      8  C   UNL     1       3.464   4.710  19.950  0.00  0.00    +0.000 A 
ATOM      9  C   UNL     1       3.664   5.815  19.124  0.00  0.00    +0.000 A 
ATOM     10  C   UNL     1       2.803   6.907  19.223  0.00  0.00    +0.000 A 
ATOM     11  O   UNL     1       2.956   7.941  18.290  0.00  0.00    +0.000 OA
ATOM     12  C   UNL     1       1.945   8.876  18.122  0.00  0.00    +0.000 A 
ATOM     13  O   UNL     1       1.886   9.563  17.106  0.00  0.00    +0.000 OA
BRANCH   3  14
ATOM     14  O   UNL     1       0.086   8.202  21.308  0.00  0.00    +0.000 OA
ATOM     15  H   UNL     1      -0.216   9.124  21.423  0.00  0.00    +0.000 HD
ENDBRANCH   3  14
ENDBRANCH   1   2
BRANCH   1  16
ATOM     16  C   UNL     1       0.385  11.496  19.727  0.00  0.00    +0.000 A 
ATOM     17  C   UNL     1       1.295  12.387  19.270  0.00  0.00    +0.000 A 
ATOM     18  N   UNL     1       1.356  13.655  19.827  0.00  0.00    +0.000 N 
ATOM     19  C   UNL     1       2.222  14.678  19.247  0.00  0.00    +0.000 C 
ATOM     20  C   UNL     1       0.719  14.007  21.011  0.00  0.00    +0.000 A 
ATOM     21  O   UNL     1       0.823  15.134  21.498  0.00  0.00    +0.000 OA
ATOM     22  N   UNL     1      -0.030  13.014  21.610  0.00  0.00    +0.000 N 
ATOM     23  C   UNL     1      -0.608  13.274  22.913  0.00  0.00    +0.000 C 
ATOM     24  C   UNL     1      -0.386  11.854  20.960  0.00  0.00    +0.000 A 
ATOM     25  O   UNL     1      -1.274  11.098  21.363  0.00  0.00    +0.000 OA
BRANCH  17  26
ATOM     26  N   UNL     1       2.206  12.080  18.281  0.00  0.00    +0.000 N 
ATOM     27  H   UNL     1       3.031  11.581  18.629  0.00  0.00    +0.000 HD
ATOM     28  H   UNL     1       1.786  11.584  17.498  0.00  0.00    +0.000 HD
ENDBRANCH  17  26
ENDBRANCH   1  16
BRANCH   1  29
ATOM     29  C   UNL     1      -0.672  10.236  17.660  0.00  0.00    +0.000 C 
BRANCH  29  31
ATOM     30  C   UNL     1      -2.710   9.956  16.196  0.00  0.00    +0.000 C 
ATOM     31  C   UNL     1      -2.190   9.974  17.625  0.00  0.00    +0.000 C 
ENDBRANCH  29  31
ENDBRANCH   1  29
TORSDOF 6
ENDMDL
MODEL 9
REMARK VINA RESULT:      -6.4      2.095      4.840
REMARK  Name = 
REMARK  10 active torsions:
REMARK  status: ('A' for Active; 'I' for Inactive)
REMARK    1  A    between atoms: C_1  and  C_2
REMARK    2  A    between atoms: C_2  and  C_3
REMARK    3  A    between atoms: C_3  and  C_4
REMARK    4  A    between atoms: C_4  and  C_5
REMARK    5  A    between atoms: C_4  and  C_18
REMARK    6  A    between atoms: C_6  and  O_7
REMARK    7  A    between atoms: C_10  and  C_11
REMARK    8  A    between atoms: C_19  and  N_20
REMARK    9  A    between atoms: N_21  and  C_22
REMARK   10  A    between atoms: N_25  and  C_26
REMARK                            x       y       z     vdW  Elec       q    Type
REMARK                         _______ _______ _______ _____ _____    ______ ____
ROOT
ATOM      1  C   UNL     1       0.895  11.057  20.173  0.00  0.00    +0.000 C 
ENDROOT
BRANCH   1   2
ATOM      2  C   UNL     1      -0.241  10.720  19.216  0.00  0.00    +0.000 A 
ATOM      3  C   UNL     1      -1.490  11.200  19.352  0.00  0.00    +0.000 A 
ATOM      4  C   UNL     1      -2.462  11.050  18.275  0.00  0.00    +0.000 A 
ATOM      5  C   UNL     1      -3.651  11.783  18.214  0.00  0.00    +0.000 A 
ATOM      6  C   UNL     1      -4.535  11.639  17.136  0.00  0.00    +0.000 A 
ATOM      7  C   UNL     1      -5.773  12.480  17.064  0.00  0.00    +0.000 C 
ATOM      8  C   UNL     1      -4.255  10.687  16.142  0.00  0.00    +0.000 A 
ATOM      9  C   UNL     1      -3.068   9.956  16.190  0.00  0.00    +0.000 A 
ATOM     10  C   UNL     1      -2.175  10.170  17.240  0.00  0.00    +0.000 A 
ATOM     11  O   UNL     1      -0.939   9.514  17.184  0.00  0.00    +0.000 OA
ATOM     12  C   UNL     1       0.102   9.931  18.000  0.00  0.00    +0.000 A 
ATOM     13  O   UNL     1       1.264   9.630  17.742  0.00  0.00    +0.000 OA
BRANCH   3  14
ATOM     14  O   UNL     1      -1.926  11.929  20.441  0.00  0.00    +0.000 OA
ATOM     15  H   UNL     1      -2.861  12.178  20.303  0.00  0.00    +0.000 HD
ENDBRANCH   3  14
ENDBRANCH   1   2
BRANCH   1  16
ATOM     16  C   UNL     1       1.417  12.501  20.037  0.00  0.00    +0.000 A 
ATOM     17  C   UNL     1       2.137  13.046  19.030  0.00  0.00    +0.000 A 
ATOM     18  N   UNL     1       2.270  14.423  18.946  0.00  0.00    +0.000 N 
ATOM     19  C   UNL     1       2.911  15.037  17.786  0.00  0.00    +0.000 C 
ATOM     20  C   UNL     1       1.931  15.293  19.976  0.00  0.00    +0.000 A 
ATOM     21  O   UNL     1       2.096  16.512  19.882  0.00  0.00    +0.000 OA
ATOM     22  N   UNL     1       1.407  14.708  21.110  0.00  0.00    +0.000 N 
ATOM     23  C   UNL     1       1.159  15.543  22.269  0.00  0.00    +0.000 C 
ATOM     24  C   UNL     1       0.959  13.406  21.139  0.00  0.00    +0.000 A 
ATOM     25  O   UNL     1       0.240  12.957  22.035  0.00  0.00    +0.000 OA
BRANCH  17  26
ATOM     26  N   UNL     1       2.787  12.284  18.082  0.00  0.00    +0.000 N 
ATOM     27  H   UNL     1       2.874  12.750  17.173  0.00  0.00    +0.000 HD
ATOM     28  H   UNL     1       3.691  11.944  18.402  0.00  0.00    +0.000 HD
ENDBRANCH  17  26
ENDBRANCH   1  16
BRANCH   1  29
ATOM     29  C   UNL     1       0.629  10.536  21.617  0.00  0.00    +0.000 C 
BRANCH  29  31
ATOM     30  C   UNL     1       1.309   8.140  21.203  0.00  0.00    +0.000 C 
ATOM     31  C   UNL     1       0.190   9.060  21.668  0.00  0.00    +0.000 C 
ENDBRANCH  29  31
ENDBRANCH   1  29
TORSDOF 6
ENDMDL
