MODEL 1
REMARK VINA RESULT:      -7.8      0.000      0.000
REMARK  Name = 
REMARK  9 active torsions:
REMARK  status: ('A' for Active; 'I' for Inactive)
REMARK    1  A    between atoms: C_1  and  C_2
REMARK    2  A    between atoms: C_2  and  C_11
REMARK    3  A    between atoms: N_3  and  O_4
REMARK    4  A    between atoms: O_4  and  C_5
REMARK    5  A    between atoms: N_7  and  C_8
REMARK    6  A    between atoms: C_8  and  C_9
REMARK    7  A    between atoms: C_8  and  C_10
REMARK    8  A    between atoms: C_13  and  C_14
REMARK    9  A    between atoms: C_22  and  C_23
REMARK                            x       y       z     vdW  Elec       q    Type
REMARK                         _______ _______ _______ _____ _____    ______ ____
ROOT
ATOM      1  C   UNL     1       4.927   5.568  17.221  0.00  0.00    +0.000 A 
ATOM      2  S   UNL     1       4.568   7.210  17.564  0.00  0.00    +0.000 S 
ATOM      3  C   UNL     1       3.085   6.763  18.296  0.00  0.00    +0.000 A 
ATOM      4  N   UNL     1       2.865   5.468  18.328  0.00  0.00    +0.000 NA
ATOM      5  C   UNL     1       3.893   4.773  17.705  0.00  0.00    +0.000 A 
ATOM      6  C   UNL     1       3.760   3.291  17.637  0.00  0.00    +0.000 C 
ENDROOT
BRANCH   3   7
ATOM      7  C   UNL     1       2.187   7.777  18.872  0.00  0.00    +0.000 A 
ATOM      8  C   UNL     1       1.799   7.760  20.222  0.00  0.00    +0.000 A 
ATOM      9  C   UNL     1       0.939   8.735  20.734  0.00  0.00    +0.000 A 
ATOM     10  C   UNL     1       0.459   9.742  19.901  0.00  0.00    +0.000 A 
ATOM     11 CL   UNL     1      -0.604  10.937  20.531  0.00  0.00    +0.000 Cl
ATOM     12  C   UNL     1       0.840   9.785  18.562  0.00  0.00    +0.000 A 
ATOM     13  C   UNL     1       1.703   8.810  18.053  0.00  0.00    +0.000 A 
ENDBRANCH   3   7
BRANCH   1  15
ATOM     14  C   UNL     1       7.257   4.485  17.287  0.00  0.00    +0.000 C 
ATOM     15  C   UNL     1       6.155   5.202  16.520  0.00  0.00    +0.000 C 
ATOM     16  N   UNL     1       6.242   5.527  15.264  0.00  0.00    +0.000 NA
BRANCH  16  17
ATOM     17  O   UNL     1       7.479   5.144  14.689  0.00  0.00    +0.000 OA
BRANCH  17  18
ATOM     18  C   UNL     1       7.353   4.857  13.341  0.00  0.00    +0.000 C 
ATOM     19  O   UNL     1       7.929   5.512  12.482  0.00  0.00    +0.000 OA
ATOM     20  N   UNL     1       6.537   3.788  13.085  0.00  0.00    +0.000 N 
ATOM     21  H   UNL     1       6.072   3.447  13.917  0.00  0.00    +0.000 HD
BRANCH  20  22
ATOM     22  C   UNL     1       6.171   3.323  11.766  0.00  0.00    +0.000 C 
ATOM     23  C   UNL     1       6.813   1.966  11.504  0.00  0.00    +0.000 C 
ATOM     24  C   UNL     1       4.655   3.237  11.616  0.00  0.00    +0.000 C 
ENDBRANCH  20  22
ENDBRANCH  17  18
ENDBRANCH  16  17
ENDBRANCH   1  15
TORSDOF 5
ENDMDL
MODEL 2
REMARK VINA RESULT:      -7.7      1.033      1.080
REMARK  Name = 
REMARK  9 active torsions:
REMARK  status: ('A' for Active; 'I' for Inactive)
REMARK    1  A    between atoms: C_1  and  C_2
REMARK    2  A    between atoms: C_2  and  C_11
REMARK    3  A    between atoms: N_3  and  O_4
REMARK    4  A    between atoms: O_4  and  C_5
REMARK    5  A    between atoms: N_7  and  C_8
REMARK    6  A    between atoms: C_8  and  C_9
REMARK    7  A    between atoms: C_8  and  C_10
REMARK    8  A    between atoms: C_13  and  C_14
REMARK    9  A    between atoms: C_22  and  C_23
REMARK                            x       y       z     vdW  Elec       q    Type
REMARK                         _______ _______ _______ _____ _____    ______ ____
ROOT
ATOM      1  C   UNL     1       4.584   5.468  18.094  0.00  0.00    +0.000 A 
ATOM      2  S   UNL     1       4.058   7.066  17.758  0.00  0.00    +0.000 S 
ATOM      3  C   UNL     1       2.809   6.931  18.923  0.00  0.00    +0.000 A 
ATOM      4  N   UNL     1       2.787   5.784  19.564  0.00  0.00    +0.000 NA
ATOM      5  C   UNL     1       3.778   4.933  19.093  0.00  0.00    +0.000 A 
ATOM      6  C   UNL     1       3.849   3.578  19.710  0.00  0.00    +0.000 C 
ENDROOT
BRANCH   3   7
ATOM      7  C   UNL     1       1.892   8.052  19.184  0.00  0.00    +0.000 A 
ATOM      8  C   UNL     1       1.376   8.321  20.463  0.00  0.00    +0.000 A 
ATOM      9  C   UNL     1       0.500   9.389  20.674  0.00  0.00    +0.000 A 
ATOM     10  C   UNL     1       0.133  10.204  19.607  0.00  0.00    +0.000 A 
ATOM     11 CL   UNL     1      -0.949  11.515  19.867  0.00  0.00    +0.000 Cl
ATOM     12  C   UNL     1       0.641   9.963  18.333  0.00  0.00    +0.000 A 
ATOM     13  C   UNL     1       1.519   8.895  18.125  0.00  0.00    +0.000 A 
ENDBRANCH   3   7
BRANCH   1  15
ATOM     14  C   UNL     1       7.112   5.036  17.932  0.00  0.00    +0.000 C 
ATOM     15  C   UNL     1       5.707   4.882  17.368  0.00  0.00    +0.000 C 
ATOM     16  N   UNL     1       5.438   4.264  16.255  0.00  0.00    +0.000 NA
BRANCH  16  17
ATOM     17  O   UNL     1       6.600   3.754  15.624  0.00  0.00    +0.000 OA
BRANCH  17  18
ATOM     18  C   UNL     1       6.657   4.108  14.288  0.00  0.00    +0.000 C 
ATOM     19  O   UNL     1       7.088   5.194  13.922  0.00  0.00    +0.000 OA
ATOM     20  N   UNL     1       6.192   3.133  13.446  0.00  0.00    +0.000 N 
ATOM     21  H   UNL     1       5.781   2.354  13.944  0.00  0.00    +0.000 HD
BRANCH  20  22
ATOM     22  C   UNL     1       6.067   3.270  12.012  0.00  0.00    +0.000 C 
ATOM     23  C   UNL     1       6.852   2.161  11.321  0.00  0.00    +0.000 C 
ATOM     24  C   UNL     1       4.602   3.237  11.584  0.00  0.00    +0.000 C 
ENDBRANCH  20  22
ENDBRANCH  17  18
ENDBRANCH  16  17
ENDBRANCH   1  15
TORSDOF 5
ENDMDL
MODEL 3
REMARK VINA RESULT:      -7.6      1.077      1.512
REMARK  Name = 
REMARK  9 active torsions:
REMARK  status: ('A' for Active; 'I' for Inactive)
REMARK    1  A    between atoms: C_1  and  C_2
REMARK    2  A    between atoms: C_2  and  C_11
REMARK    3  A    between atoms: N_3  and  O_4
REMARK    4  A    between atoms: O_4  and  C_5
REMARK    5  A    between atoms: N_7  and  C_8
REMARK    6  A    between atoms: C_8  and  C_9
REMARK    7  A    between atoms: C_8  and  C_10
REMARK    8  A    between atoms: C_13  and  C_14
REMARK    9  A    between atoms: C_22  and  C_23
REMARK                            x       y       z     vdW  Elec       q    Type
REMARK                         _______ _______ _______ _____ _____    ______ ____
ROOT
ATOM      1  C   UNL     1       4.483   5.501  18.124  0.00  0.00    +0.000 A 
ATOM      2  S   UNL     1       3.984   7.102  17.759  0.00  0.00    +0.000 S 
ATOM      3  C   UNL     1       2.734   7.009  18.928  0.00  0.00    +0.000 A 
ATOM      4  N   UNL     1       2.694   5.875  19.590  0.00  0.00    +0.000 NA
ATOM      5  C   UNL     1       3.670   4.999  19.135  0.00  0.00    +0.000 A 
ATOM      6  C   UNL     1       3.720   3.655  19.776  0.00  0.00    +0.000 C 
ENDROOT
BRANCH   3   7
ATOM      7  C   UNL     1       1.836   8.150  19.168  0.00  0.00    +0.000 A 
ATOM      8  C   UNL     1       1.424   9.015  18.140  0.00  0.00    +0.000 A 
ATOM      9  C   UNL     1       0.576  10.093  18.406  0.00  0.00    +0.000 A 
ATOM     10  C   UNL     1       0.126  10.317  19.704  0.00  0.00    +0.000 A 
ATOM     11 CL   UNL     1      -0.912  11.647  20.030  0.00  0.00    +0.000 Cl
ATOM     12  C   UNL     1       0.512   9.466  20.736  0.00  0.00    +0.000 A 
ATOM     13  C   UNL     1       1.359   8.386  20.468  0.00  0.00    +0.000 A 
ENDBRANCH   3   7
BRANCH   1  15
ATOM     14  C   UNL     1       6.997   4.985  17.992  0.00  0.00    +0.000 C 
ATOM     15  C   UNL     1       5.596   4.883  17.408  0.00  0.00    +0.000 C 
ATOM     16  N   UNL     1       5.321   4.283  16.288  0.00  0.00    +0.000 NA
BRANCH  16  17
ATOM     17  O   UNL     1       6.473   3.738  15.668  0.00  0.00    +0.000 OA
BRANCH  17  18
ATOM     18  C   UNL     1       6.571   4.118  14.341  0.00  0.00    +0.000 C 
ATOM     19  O   UNL     1       7.009   5.212  14.010  0.00  0.00    +0.000 OA
ATOM     20  N   UNL     1       6.137   3.158  13.466  0.00  0.00    +0.000 N 
ATOM     21  H   UNL     1       5.714   2.368  13.936  0.00  0.00    +0.000 HD
BRANCH  20  22
ATOM     22  C   UNL     1       6.058   3.322  12.032  0.00  0.00    +0.000 C 
ATOM     23  C   UNL     1       6.947   2.290  11.347  0.00  0.00    +0.000 C 
ATOM     24  C   UNL     1       4.617   3.194  11.545  0.00  0.00    +0.000 C 
ENDBRANCH  20  22
ENDBRANCH  17  18
ENDBRANCH  16  17
ENDBRANCH   1  15
TORSDOF 5
ENDMDL
MODEL 4
REMARK VINA RESULT:      -7.3      0.381      1.304
REMARK  Name = 
REMARK  9 active torsions:
REMARK  status: ('A' for Active; 'I' for Inactive)
REMARK    1  A    between atoms: C_1  and  C_2
REMARK    2  A    between atoms: C_2  and  C_11
REMARK    3  A    between atoms: N_3  and  O_4
REMARK    4  A    between atoms: O_4  and  C_5
REMARK    5  A    between atoms: N_7  and  C_8
REMARK    6  A    between atoms: C_8  and  C_9
REMARK    7  A    between atoms: C_8  and  C_10
REMARK    8  A    between atoms: C_13  and  C_14
REMARK    9  A    between atoms: C_22  and  C_23
REMARK                            x       y       z     vdW  Elec       q    Type
REMARK                         _______ _______ _______ _____ _____    ______ ____
ROOT
ATOM      1  C   UNL     1       4.897   5.597  16.945  0.00  0.00    +0.000 A 
ATOM      2  S   UNL     1       4.534   7.238  17.291  0.00  0.00    +0.000 S 
ATOM      3  C   UNL     1       3.106   6.777  18.119  0.00  0.00    +0.000 A 
ATOM      4  N   UNL     1       2.909   5.479  18.179  0.00  0.00    +0.000 NA
ATOM      5  C   UNL     1       3.908   4.793  17.501  0.00  0.00    +0.000 A 
ATOM      6  C   UNL     1       3.794   3.308  17.459  0.00  0.00    +0.000 C 
ENDROOT
BRANCH   3   7
ATOM      7  C   UNL     1       2.230   7.785  18.738  0.00  0.00    +0.000 A 
ATOM      8  C   UNL     1       1.664   8.842  18.006  0.00  0.00    +0.000 A 
ATOM      9  C   UNL     1       0.843   9.787  18.628  0.00  0.00    +0.000 A 
ATOM     10  C   UNL     1       0.575   9.682  19.990  0.00  0.00    +0.000 A 
ATOM     11 CL   UNL     1      -0.431  10.847  20.754  0.00  0.00    +0.000 Cl
ATOM     12  C   UNL     1       1.116   8.635  20.733  0.00  0.00    +0.000 A 
ATOM     13  C   UNL     1       1.936   7.690  20.108  0.00  0.00    +0.000 A 
ENDBRANCH   3   7
BRANCH   1  15
ATOM     14  C   UNL     1       7.204   4.468  16.856  0.00  0.00    +0.000 C 
ATOM     15  C   UNL     1       6.084   5.241  16.173  0.00  0.00    +0.000 C 
ATOM     16  N   UNL     1       6.122   5.622  14.930  0.00  0.00    +0.000 NA
BRANCH  16  17
ATOM     17  O   UNL     1       7.324   5.243  14.283  0.00  0.00    +0.000 OA
BRANCH  17  18
ATOM     18  C   UNL     1       7.080   4.545  13.114  0.00  0.00    +0.000 C 
ATOM     19  O   UNL     1       7.587   4.867  12.047  0.00  0.00    +0.000 OA
ATOM     20  N   UNL     1       6.234   3.480  13.281  0.00  0.00    +0.000 N 
ATOM     21  H   UNL     1       5.839   3.442  14.212  0.00  0.00    +0.000 HD
BRANCH  20  22
ATOM     22  C   UNL     1       5.752   2.631  12.215  0.00  0.00    +0.000 C 
ATOM     23  C   UNL     1       4.712   3.382  11.392  0.00  0.00    +0.000 C 
ATOM     24  C   UNL     1       6.901   2.162  11.326  0.00  0.00    +0.000 C 
ENDBRANCH  20  22
ENDBRANCH  17  18
ENDBRANCH  16  17
ENDBRANCH   1  15
TORSDOF 5
ENDMDL
MODEL 5
REMARK VINA RESULT:      -6.9      1.606      2.136
REMARK  Name = 
REMARK  9 active torsions:
REMARK  status: ('A' for Active; 'I' for Inactive)
REMARK    1  A    between atoms: C_1  and  C_2
REMARK    2  A    between atoms: C_2  and  C_11
REMARK    3  A    between atoms: N_3  and  O_4
REMARK    4  A    between atoms: O_4  and  C_5
REMARK    5  A    between atoms: N_7  and  C_8
REMARK    6  A    between atoms: C_8  and  C_9
REMARK    7  A    between atoms: C_8  and  C_10
REMARK    8  A    between atoms: C_13  and  C_14
REMARK    9  A    between atoms: C_22  and  C_23
REMARK                            x       y       z     vdW  Elec       q    Type
REMARK                         _______ _______ _______ _____ _____    ______ ____
ROOT
ATOM      1  C   UNL     1       3.394   5.060  18.674  0.00  0.00    +0.000 A 
ATOM      2  S   UNL     1       3.071   6.721  18.388  0.00  0.00    +0.000 S 
ATOM      3  C   UNL     1       2.191   6.831  19.855  0.00  0.00    +0.000 A 
ATOM      4  N   UNL     1       2.157   5.717  20.552  0.00  0.00    +0.000 NA
ATOM      5  C   UNL     1       2.820   4.695  19.887  0.00  0.00    +0.000 A 
ATOM      6  C   UNL     1       2.833   3.360  20.549  0.00  0.00    +0.000 C 
ENDROOT
BRANCH   3   7
ATOM      7  C   UNL     1       1.583   8.102  20.280  0.00  0.00    +0.000 A 
ATOM      8  C   UNL     1       1.217   8.353  21.613  0.00  0.00    +0.000 A 
ATOM      9  C   UNL     1       0.635   9.569  21.981  0.00  0.00    +0.000 A 
ATOM     10  C   UNL     1       0.415  10.551  21.018  0.00  0.00    +0.000 A 
ATOM     11 CL   UNL     1      -0.307  12.044  21.471  0.00  0.00    +0.000 Cl
ATOM     12  C   UNL     1       0.780  10.327  19.693  0.00  0.00    +0.000 A 
ATOM     13  C   UNL     1       1.365   9.111  19.328  0.00  0.00    +0.000 A 
ENDBRANCH   3   7
BRANCH   1  15
ATOM     14  C   UNL     1       3.692   2.859  17.380  0.00  0.00    +0.000 C 
ATOM     15  C   UNL     1       4.157   4.271  17.711  0.00  0.00    +0.000 C 
ATOM     16  N   UNL     1       5.214   4.824  17.194  0.00  0.00    +0.000 NA
BRANCH  16  17
ATOM     17  O   UNL     1       5.889   3.965  16.291  0.00  0.00    +0.000 OA
BRANCH  17  18
ATOM     18  C   UNL     1       5.902   4.478  15.006  0.00  0.00    +0.000 C 
ATOM     19  O   UNL     1       5.782   5.676  14.784  0.00  0.00    +0.000 OA
ATOM     20  N   UNL     1       6.064   3.522  14.039  0.00  0.00    +0.000 N 
ATOM     21  H   UNL     1       6.039   2.582  14.415  0.00  0.00    +0.000 HD
BRANCH  20  22
ATOM     22  C   UNL     1       6.036   3.772  12.616  0.00  0.00    +0.000 C 
ATOM     23  C   UNL     1       7.403   4.267  12.155  0.00  0.00    +0.000 C 
ATOM     24  C   UNL     1       5.634   2.517  11.846  0.00  0.00    +0.000 C 
ENDBRANCH  20  22
ENDBRANCH  17  18
ENDBRANCH  16  17
ENDBRANCH   1  15
TORSDOF 5
ENDMDL
MODEL 6
REMARK VINA RESULT:      -6.9      3.125      4.650
REMARK  Name = 
REMARK  9 active torsions:
REMARK  status: ('A' for Active; 'I' for Inactive)
REMARK    1  A    between atoms: C_1  and  C_2
REMARK    2  A    between atoms: C_2  and  C_11
REMARK    3  A    between atoms: N_3  and  O_4
REMARK    4  A    between atoms: O_4  and  C_5
REMARK    5  A    between atoms: N_7  and  C_8
REMARK    6  A    between atoms: C_8  and  C_9
REMARK    7  A    between atoms: C_8  and  C_10
REMARK    8  A    between atoms: C_13  and  C_14
REMARK    9  A    between atoms: C_22  and  C_23
REMARK                            x       y       z     vdW  Elec       q    Type
REMARK                         _______ _______ _______ _____ _____    ______ ____
ROOT
ATOM      1  C   UNL     1       2.478   6.736  19.033  0.00  0.00    +0.000 A 
ATOM      2  S   UNL     1       1.973   8.376  18.986  0.00  0.00    +0.000 S 
ATOM      3  C   UNL     1       1.232   8.221  20.524  0.00  0.00    +0.000 A 
ATOM      4  N   UNL     1       1.371   7.036  21.076  0.00  0.00    +0.000 NA
ATOM      5  C   UNL     1       2.061   6.174  20.235  0.00  0.00    +0.000 A 
ATOM      6  C   UNL     1       2.264   4.780  20.720  0.00  0.00    +0.000 C 
ENDROOT
BRANCH   3   7
ATOM      7  C   UNL     1       0.551   9.362  21.155  0.00  0.00    +0.000 A 
ATOM      8  C   UNL     1       0.580  10.655  20.604  0.00  0.00    +0.000 A 
ATOM      9  C   UNL     1      -0.072  11.718  21.235  0.00  0.00    +0.000 A 
ATOM     10  C   UNL     1      -0.764  11.500  22.423  0.00  0.00    +0.000 A 
ATOM     11 CL   UNL     1      -1.561  12.810  23.200  0.00  0.00    +0.000 Cl
ATOM     12  C   UNL     1      -0.815  10.224  22.980  0.00  0.00    +0.000 A 
ATOM     13  C   UNL     1      -0.164   9.162  22.346  0.00  0.00    +0.000 A 
ENDBRANCH   3   7
BRANCH   1  15
ATOM     14  C   UNL     1       3.026   4.672  17.604  0.00  0.00    +0.000 C 
ATOM     15  C   UNL     1       3.215   6.149  17.917  0.00  0.00    +0.000 C 
ATOM     16  N   UNL     1       4.013   6.933  17.254  0.00  0.00    +0.000 NA
BRANCH  16  17
ATOM     17  O   UNL     1       4.692   6.258  16.210  0.00  0.00    +0.000 OA
BRANCH  17  18
ATOM     18  C   UNL     1       6.065   6.308  16.372  0.00  0.00    +0.000 C 
ATOM     19  O   UNL     1       6.816   5.536  15.791  0.00  0.00    +0.000 OA
ATOM     20  N   UNL     1       6.477   7.295  17.228  0.00  0.00    +0.000 N 
ATOM     21  H   UNL     1       5.703   7.757  17.688  0.00  0.00    +0.000 HD
BRANCH  20  22
ATOM     22  C   UNL     1       7.846   7.519  17.635  0.00  0.00    +0.000 C 
ATOM     23  C   UNL     1       8.099   9.015  17.781  0.00  0.00    +0.000 C 
ATOM     24  C   UNL     1       8.155   6.793  18.941  0.00  0.00    +0.000 C 
ENDBRANCH  20  22
ENDBRANCH  17  18
ENDBRANCH  16  17
ENDBRANCH   1  15
TORSDOF 5
ENDMDL
MODEL 7
REMARK VINA RESULT:      -6.9      0.729      1.248
REMARK  Name = 
REMARK  9 active torsions:
REMARK  status: ('A' for Active; 'I' for Inactive)
REMARK    1  A    between atoms: C_1  and  C_2
REMARK    2  A    between atoms: C_2  and  C_11
REMARK    3  A    between atoms: N_3  and  O_4
REMARK    4  A    between atoms: O_4  and  C_5
REMARK    5  A    between atoms: N_7  and  C_8
REMARK    6  A    between atoms: C_8  and  C_9
REMARK    7  A    between atoms: C_8  and  C_10
REMARK    8  A    between atoms: C_13  and  C_14
REMARK    9  A    between atoms: C_22  and  C_23
REMARK                            x       y       z     vdW  Elec       q    Type
REMARK                         _______ _______ _______ _____ _____    ______ ____
ROOT
ATOM      1  C   UNL     1       4.344   5.364  17.048  0.00  0.00    +0.000 A 
ATOM      2  S   UNL     1       4.345   7.049  17.374  0.00  0.00    +0.000 S 
ATOM      3  C   UNL     1       2.794   6.939  18.095  0.00  0.00    +0.000 A 
ATOM      4  N   UNL     1       2.299   5.722  18.134  0.00  0.00    +0.000 NA
ATOM      5  C   UNL     1       3.159   4.816  17.527  0.00  0.00    +0.000 A 
ATOM      6  C   UNL     1       2.709   3.397  17.469  0.00  0.00    +0.000 C 
ENDROOT
BRANCH   3   7
ATOM      7  C   UNL     1       2.131   8.128  18.653  0.00  0.00    +0.000 A 
ATOM      8  C   UNL     1       1.953   9.309  17.912  0.00  0.00    +0.000 A 
ATOM      9  C   UNL     1       1.327  10.423  18.477  0.00  0.00    +0.000 A 
ATOM     10  C   UNL     1       0.867  10.368  19.790  0.00  0.00    +0.000 A 
ATOM     11 CL   UNL     1       0.101  11.741  20.485  0.00  0.00    +0.000 Cl
ATOM     12  C   UNL     1       1.023   9.204  20.539  0.00  0.00    +0.000 A 
ATOM     13  C   UNL     1       1.648   8.090  19.971  0.00  0.00    +0.000 A 
ENDBRANCH   3   7
BRANCH   1  15
ATOM     14  C   UNL     1       5.640   3.226  16.455  0.00  0.00    +0.000 C 
ATOM     15  C   UNL     1       5.470   4.735  16.362  0.00  0.00    +0.000 C 
ATOM     16  N   UNL     1       6.282   5.516  15.713  0.00  0.00    +0.000 NA
BRANCH  16  17
ATOM     17  O   UNL     1       7.346   4.806  15.105  0.00  0.00    +0.000 OA
BRANCH  17  18
ATOM     18  C   UNL     1       7.209   4.753  13.729  0.00  0.00    +0.000 C 
ATOM     19  O   UNL     1       7.643   5.634  12.999  0.00  0.00    +0.000 OA
ATOM     20  N   UNL     1       6.555   3.633  13.290  0.00  0.00    +0.000 N 
ATOM     21  H   UNL     1       6.182   3.078  14.050  0.00  0.00    +0.000 HD
BRANCH  20  22
ATOM     22  C   UNL     1       6.209   3.364  11.912  0.00  0.00    +0.000 C 
ATOM     23  C   UNL     1       6.865   2.063  11.463  0.00  0.00    +0.000 C 
ATOM     24  C   UNL     1       4.696   3.292  11.731  0.00  0.00    +0.000 C 
ENDBRANCH  20  22
ENDBRANCH  17  18
ENDBRANCH  16  17
ENDBRANCH   1  15
TORSDOF 5
ENDMDL
MODEL 8
REMARK VINA RESULT:      -6.8      1.775      2.784
REMARK  Name = 
REMARK  9 active torsions:
REMARK  status: ('A' for Active; 'I' for Inactive)
REMARK    1  A    between atoms: C_1  and  C_2
REMARK    2  A    between atoms: C_2  and  C_11
REMARK    3  A    between atoms: N_3  and  O_4
REMARK    4  A    between atoms: O_4  and  C_5
REMARK    5  A    between atoms: N_7  and  C_8
REMARK    6  A    between atoms: C_8  and  C_9
REMARK    7  A    between atoms: C_8  and  C_10
REMARK    8  A    between atoms: C_13  and  C_14
REMARK    9  A    between atoms: C_22  and  C_23
REMARK                            x       y       z     vdW  Elec       q    Type
REMARK                         _______ _______ _______ _____ _____    ______ ____
ROOT
ATOM      1  C   UNL     1       2.910   5.387  18.812  0.00  0.00    +0.000 A 
ATOM      2  S   UNL     1       2.642   7.062  18.556  0.00  0.00    +0.000 S 
ATOM      3  C   UNL     1       1.807   7.186  20.048  0.00  0.00    +0.000 A 
ATOM      4  N   UNL     1       1.749   6.065  20.731  0.00  0.00    +0.000 NA
ATOM      5  C   UNL     1       2.356   5.027  20.037  0.00  0.00    +0.000 A 
ATOM      6  C   UNL     1       2.336   3.685  20.681  0.00  0.00    +0.000 C 
ENDROOT
BRANCH   3   7
ATOM      7  C   UNL     1       1.259   8.473  20.505  0.00  0.00    +0.000 A 
ATOM      8  C   UNL     1       1.072   9.563  19.638  0.00  0.00    +0.000 A 
ATOM      9  C   UNL     1       0.556  10.774  20.108  0.00  0.00    +0.000 A 
ATOM     10  C   UNL     1       0.218  10.908  21.452  0.00  0.00    +0.000 A 
ATOM     11 CL   UNL     1      -0.410  12.400  22.029  0.00  0.00    +0.000 Cl
ATOM     12  C   UNL     1       0.385   9.837  22.326  0.00  0.00    +0.000 A 
ATOM     13  C   UNL     1       0.899   8.626  21.854  0.00  0.00    +0.000 A 
ENDBRANCH   3   7
BRANCH   1  15
ATOM     14  C   UNL     1       2.961   3.311  17.298  0.00  0.00    +0.000 C 
ATOM     15  C   UNL     1       3.616   4.582  17.819  0.00  0.00    +0.000 C 
ATOM     16  N   UNL     1       4.789   4.999  17.442  0.00  0.00    +0.000 NA
BRANCH  16  17
ATOM     17  O   UNL     1       5.391   4.135  16.494  0.00  0.00    +0.000 OA
BRANCH  17  18
ATOM     18  C   UNL     1       5.677   4.791  15.310  0.00  0.00    +0.000 C 
ATOM     19  O   UNL     1       5.493   5.993  15.172  0.00  0.00    +0.000 OA
ATOM     20  N   UNL     1       6.178   3.966  14.338  0.00  0.00    +0.000 N 
ATOM     21  H   UNL     1       6.157   2.991  14.608  0.00  0.00    +0.000 HD
BRANCH  20  22
ATOM     22  C   UNL     1       6.487   4.374  12.986  0.00  0.00    +0.000 C 
ATOM     23  C   UNL     1       7.849   5.057  12.955  0.00  0.00    +0.000 C 
ATOM     24  C   UNL     1       6.465   3.180  12.035  0.00  0.00    +0.000 C 
ENDBRANCH  20  22
ENDBRANCH  17  18
ENDBRANCH  16  17
ENDBRANCH   1  15
TORSDOF 5
ENDMDL
MODEL 9
REMARK VINA RESULT:      -6.8      5.803      9.922
REMARK  Name = 
REMARK  9 active torsions:
REMARK  status: ('A' for Active; 'I' for Inactive)
REMARK    1  A    between atoms: C_1  and  C_2
REMARK    2  A    between atoms: C_2  and  C_11
REMARK    3  A    between atoms: N_3  and  O_4
REMARK    4  A    between atoms: O_4  and  C_5
REMARK    5  A    between atoms: N_7  and  C_8
REMARK    6  A    between atoms: C_8  and  C_9
REMARK    7  A    between atoms: C_8  and  C_10
REMARK    8  A    between atoms: C_13  and  C_14
REMARK    9  A    between atoms: C_22  and  C_23
REMARK                            x       y       z     vdW  Elec       q    Type
REMARK                         _______ _______ _______ _____ _____    ______ ____
ROOT
ATOM      1  C   UNL     1       0.824   9.527  19.304  0.00  0.00    +0.000 A 
ATOM      2  S   UNL     1       1.559   8.978  17.854  0.00  0.00    +0.000 S 
ATOM      3  C   UNL     1       2.335   7.703  18.695  0.00  0.00    +0.000 A 
ATOM      4  N   UNL     1       2.050   7.647  19.977  0.00  0.00    +0.000 NA
ATOM      5  C   UNL     1       1.206   8.687  20.345  0.00  0.00    +0.000 A 
ATOM      6  C   UNL     1       0.825   8.767  21.783  0.00  0.00    +0.000 C 
ENDROOT
BRANCH   3   7
ATOM      7  C   UNL     1       3.202   6.746  17.989  0.00  0.00    +0.000 A 
ATOM      8  C   UNL     1       4.325   7.151  17.249  0.00  0.00    +0.000 A 
ATOM      9  C   UNL     1       5.122   6.216  16.584  0.00  0.00    +0.000 A 
ATOM     10  C   UNL     1       4.806   4.862  16.655  0.00  0.00    +0.000 A 
ATOM     11 CL   UNL     1       5.784   3.713  15.832  0.00  0.00    +0.000 Cl
ATOM     12  C   UNL     1       3.704   4.437  17.392  0.00  0.00    +0.000 A 
ATOM     13  C   UNL     1       2.909   5.374  18.059  0.00  0.00    +0.000 A 
ENDBRANCH   3   7
BRANCH   1  15
ATOM     14  C   UNL     1       0.553  12.053  19.694  0.00  0.00    +0.000 C 
ATOM     15  C   UNL     1      -0.039  10.705  19.306  0.00  0.00    +0.000 C 
ATOM     16  N   UNL     1      -1.286  10.529  18.984  0.00  0.00    +0.000 NA
BRANCH  16  17
ATOM     17  O   UNL     1      -2.035  11.730  19.039  0.00  0.00    +0.000 OA
BRANCH  17  18
ATOM     18  C   UNL     1      -3.134  11.690  18.199  0.00  0.00    +0.000 C 
ATOM     19  O   UNL     1      -3.057  11.275  17.050  0.00  0.00    +0.000 OA
ATOM     20  N   UNL     1      -4.283  12.151  18.783  0.00  0.00    +0.000 N 
ATOM     21  H   UNL     1      -4.120  12.548  19.700  0.00  0.00    +0.000 HD
BRANCH  20  22
ATOM     22  C   UNL     1      -5.555  12.291  18.109  0.00  0.00    +0.000 C 
ATOM     23  C   UNL     1      -6.344  10.992  18.228  0.00  0.00    +0.000 C 
ATOM     24  C   UNL     1      -6.353  13.458  18.683  0.00  0.00    +0.000 C 
ENDBRANCH  20  22
ENDBRANCH  17  18
ENDBRANCH  16  17
ENDBRANCH   1  15
TORSDOF 5
ENDMDL
