MODEL 1
REMARK VINA RESULT:      -8.6      0.000      0.000
REMARK  Name = 
REMARK  6 active torsions:
REMARK  status: ('A' for Active; 'I' for Inactive)
REMARK    1  A    between atoms: N_1  and  C_2
REMARK    2  A    between atoms: N_10  and  C_11
REMARK    3  A    between atoms: C_13  and  C_14
REMARK    4  A    between atoms: C_14  and  N_15
REMARK    5  A    between atoms: C_27  and  O_28
REMARK    6  A    between atoms: C_29  and  O_30
REMARK                            x       y       z     vdW  Elec       q    Type
REMARK                         _______ _______ _______ _____ _____    ______ ____
ROOT
ATOM      1  C   UNL     1       4.204   4.594  16.977  0.00  0.00    +0.000 C 
ATOM      2  O   UNL     1       3.510   5.783  17.431  0.00  0.00    +0.000 OA
ATOM      3  C   UNL     1       2.575   5.377  18.467  0.00  0.00    +0.000 C 
ATOM      4  C   UNL     1       3.014   3.959  18.905  0.00  0.00    +0.000 C 
ATOM      5  C   UNL     1       4.374   3.756  18.239  0.00  0.00    +0.000 C 
ENDROOT
BRANCH   1  14
ATOM      6  C   UNL     1       7.622   5.112  13.590  0.00  0.00    +0.000 A 
ATOM      7  N   UNL     1       7.009   4.318  12.681  0.00  0.00    +0.000 NA
ATOM      8  C   UNL     1       5.834   3.746  13.020  0.00  0.00    +0.000 A 
ATOM      9  N   UNL     1       5.151   3.853  14.179  0.00  0.00    +0.000 NA
ATOM     10  C   UNL     1       5.813   4.626  15.056  0.00  0.00    +0.000 A 
ATOM     11  C   UNL     1       7.025   5.270  14.854  0.00  0.00    +0.000 A 
ATOM     12  N   UNL     1       7.407   5.962  15.987  0.00  0.00    +0.000 NA
ATOM     13  C   UNL     1       6.428   5.768  16.845  0.00  0.00    +0.000 A 
ATOM     14  N   UNL     1       5.441   4.970  16.329  0.00  0.00    +0.000 N 
BRANCH   6  15
ATOM     15  N   UNL     1       8.816   5.722  13.225  0.00  0.00    +0.000 N 
ATOM     16  H   UNL     1       8.675   6.657  12.870  0.00  0.00    +0.000 HD
ATOM     17  H   UNL     1       9.446   5.109  12.719  0.00  0.00    +0.000 HD
ENDBRANCH   6  15
ENDBRANCH   1  14
BRANCH   4  18
ATOM     18  O   UNL     1       2.130   2.932  18.407  0.00  0.00    +0.000 OA
ATOM     19  H   UNL     1       2.598   2.076  18.375  0.00  0.00    +0.000 HD
ENDBRANCH   4  18
BRANCH   5  20
ATOM     20  O   UNL     1       4.655   2.381  17.999  0.00  0.00    +0.000 OA
ATOM     21  H   UNL     1       5.492   2.171  18.463  0.00  0.00    +0.000 HD
ENDBRANCH   5  20
BRANCH   3  22
ATOM     22  C   UNL     1       2.543   6.418  19.629  0.00  0.00    +0.000 C 
BRANCH  22  23
ATOM     23  N   UNL     1       2.000   7.755  19.248  0.00  0.00    +0.000 N 
ATOM     24  C   UNL     1       1.400   8.578  20.175  0.00  0.00    +0.000 C 
ATOM     25  N   UNL     1       1.170   8.114  21.373  0.00  0.00    +0.000 NA
ATOM     26  S   UNL     1       0.332   9.167  22.282  0.00  0.00    +0.000 S 
ATOM     27  O   UNL     1      -0.998   8.658  22.528  0.00  0.00    +0.000 OA
ATOM     28  O   UNL     1       1.170   9.697  23.334  0.00  0.00    +0.000 OA
ATOM     29  C   UNL     1       0.208  10.392  21.064  0.00  0.00    +0.000 A 
ATOM     30  C   UNL     1      -0.452  11.602  21.202  0.00  0.00    +0.000 A 
ATOM     31  C   UNL     1      -0.379  12.487  20.135  0.00  0.00    +0.000 A 
ATOM     32  C   UNL     1       0.360  12.134  18.986  0.00  0.00    +0.000 A 
ATOM     33  C   UNL     1       1.000  10.873  18.872  0.00  0.00    +0.000 A 
ATOM     34  C   UNL     1       0.900   9.980  19.931  0.00  0.00    +0.000 A 
ATOM     35  H   UNL     1       2.451   8.180  18.436  0.00  0.00    +0.000 HD
ENDBRANCH  22  23
ENDBRANCH   3  22
TORSDOF 6
ENDMDL
MODEL 2
REMARK VINA RESULT:      -8.3      1.400      1.422
REMARK  Name = 
REMARK  6 active torsions:
REMARK  status: ('A' for Active; 'I' for Inactive)
REMARK    1  A    between atoms: N_1  and  C_2
REMARK    2  A    between atoms: N_10  and  C_11
REMARK    3  A    between atoms: C_13  and  C_14
REMARK    4  A    between atoms: C_14  and  N_15
REMARK    5  A    between atoms: C_27  and  O_28
REMARK    6  A    between atoms: C_29  and  O_30
REMARK                            x       y       z     vdW  Elec       q    Type
REMARK                         _______ _______ _______ _____ _____    ______ ____
ROOT
ATOM      1  C   UNL     1       4.503   5.010  17.656  0.00  0.00    +0.000 C 
ATOM      2  O   UNL     1       3.574   6.123  17.660  0.00  0.00    +0.000 OA
ATOM      3  C   UNL     1       2.732   5.988  18.837  0.00  0.00    +0.000 C 
ATOM      4  C   UNL     1       3.450   4.973  19.760  0.00  0.00    +0.000 C 
ATOM      5  C   UNL     1       4.829   4.791  19.129  0.00  0.00    +0.000 C 
ENDROOT
BRANCH   1  14
ATOM      6  C   UNL     1       7.481   5.191  13.845  0.00  0.00    +0.000 A 
ATOM      7  N   UNL     1       6.790   4.286  13.112  0.00  0.00    +0.000 NA
ATOM      8  C   UNL     1       5.682   3.737  13.653  0.00  0.00    +0.000 A 
ATOM      9  N   UNL     1       5.136   3.965  14.866  0.00  0.00    +0.000 NA
ATOM     10  C   UNL     1       5.873   4.847  15.563  0.00  0.00    +0.000 A 
ATOM     11  C   UNL     1       7.032   5.484  15.146  0.00  0.00    +0.000 A 
ATOM     12  N   UNL     1       7.523   6.310  16.138  0.00  0.00    +0.000 NA
ATOM     13  C   UNL     1       6.658   6.199  17.124  0.00  0.00    +0.000 A 
ATOM     14  N   UNL     1       5.643   5.330  16.825  0.00  0.00    +0.000 N 
BRANCH   6  15
ATOM     15  N   UNL     1       8.603   5.775  13.272  0.00  0.00    +0.000 N 
ATOM     16  H   UNL     1       8.966   6.536  13.830  0.00  0.00    +0.000 HD
ATOM     17  H   UNL     1       8.521   5.916  12.271  0.00  0.00    +0.000 HD
ENDBRANCH   6  15
ENDBRANCH   1  14
BRANCH   4  18
ATOM     18  O   UNL     1       2.802   3.684  19.767  0.00  0.00    +0.000 OA
ATOM     19  H   UNL     1       2.138   3.648  20.481  0.00  0.00    +0.000 HD
ENDBRANCH   4  18
BRANCH   5  20
ATOM     20  O   UNL     1       5.390   3.515  19.424  0.00  0.00    +0.000 OA
ATOM     21  H   UNL     1       5.343   3.397  20.395  0.00  0.00    +0.000 HD
ENDBRANCH   5  20
BRANCH   3  22
ATOM     22  C   UNL     1       2.474   7.377  19.501  0.00  0.00    +0.000 C 
BRANCH  22  23
ATOM     23  N   UNL     1       1.323   8.132  18.927  0.00  0.00    +0.000 N 
ATOM     24  C   UNL     1       0.784   9.222  19.574  0.00  0.00    +0.000 C 
ATOM     25  N   UNL     1       1.193   9.503  20.781  0.00  0.00    +0.000 NA
ATOM     26  S   UNL     1       0.352  10.726  21.440  0.00  0.00    +0.000 S 
ATOM     27  O   UNL     1      -0.466  10.234  22.525  0.00  0.00    +0.000 OA
ATOM     28  O   UNL     1       1.188  11.899  21.564  0.00  0.00    +0.000 OA
ATOM     29  C   UNL     1      -0.685  10.981  20.076  0.00  0.00    +0.000 A 
ATOM     30  C   UNL     1      -1.705  11.916  20.003  0.00  0.00    +0.000 A 
ATOM     31  C   UNL     1      -2.380  12.020  18.794  0.00  0.00    +0.000 A 
ATOM     32  C   UNL     1      -2.000  11.201  17.710  0.00  0.00    +0.000 A 
ATOM     33  C   UNL     1      -0.967  10.237  17.833  0.00  0.00    +0.000 A 
ATOM     34  C   UNL     1      -0.313  10.117  19.053  0.00  0.00    +0.000 A 
ATOM     35  H   UNL     1       1.246   8.081  17.910  0.00  0.00    +0.000 HD
ENDBRANCH  22  23
ENDBRANCH   3  22
TORSDOF 6
ENDMDL
MODEL 3
REMARK VINA RESULT:      -8.3      3.465      9.126
REMARK  Name = 
REMARK  6 active torsions:
REMARK  status: ('A' for Active; 'I' for Inactive)
REMARK    1  A    between atoms: N_1  and  C_2
REMARK    2  A    between atoms: N_10  and  C_11
REMARK    3  A    between atoms: C_13  and  C_14
REMARK    4  A    between atoms: C_14  and  N_15
REMARK    5  A    between atoms: C_27  and  O_28
REMARK    6  A    between atoms: C_29  and  O_30
REMARK                            x       y       z     vdW  Elec       q    Type
REMARK                         _______ _______ _______ _____ _____    ______ ____
ROOT
ATOM      1  C   UNL     1      -0.057  10.707  21.092  0.00  0.00    +0.000 C 
ATOM      2  O   UNL     1       0.743   9.880  20.209  0.00  0.00    +0.000 OA
ATOM      3  C   UNL     1       1.479   8.940  21.038  0.00  0.00    +0.000 C 
ATOM      4  C   UNL     1       0.790   8.962  22.423  0.00  0.00    +0.000 C 
ATOM      5  C   UNL     1      -0.497   9.755  22.198  0.00  0.00    +0.000 C 
ENDROOT
BRANCH   1  14
ATOM      6  C   UNL     1      -3.314  11.518  17.604  0.00  0.00    +0.000 A 
ATOM      7  N   UNL     1      -2.813  10.589  16.756  0.00  0.00    +0.000 NA
ATOM      8  C   UNL     1      -1.729   9.886  17.146  0.00  0.00    +0.000 A 
ATOM      9  N   UNL     1      -1.041   9.974  18.304  0.00  0.00    +0.000 NA
ATOM     10  C   UNL     1      -1.559  10.927  19.097  0.00  0.00    +0.000 A 
ATOM     11  C   UNL     1      -2.658  11.730  18.831  0.00  0.00    +0.000 A 
ATOM     12  N   UNL     1      -2.887  12.609  19.872  0.00  0.00    +0.000 NA
ATOM     13  C   UNL     1      -1.965  12.318  20.765  0.00  0.00    +0.000 A 
ATOM     14  N   UNL     1      -1.141  11.307  20.346  0.00  0.00    +0.000 N 
BRANCH   6  15
ATOM     15  N   UNL     1      -4.448  12.218  17.211  0.00  0.00    +0.000 N 
ATOM     16  H   UNL     1      -4.769  12.857  17.924  0.00  0.00    +0.000 HD
ATOM     17  H   UNL     1      -5.137  11.642  16.741  0.00  0.00    +0.000 HD
ENDBRANCH   6  15
ENDBRANCH   1  14
BRANCH   4  18
ATOM     18  O   UNL     1       1.568   9.668  23.412  0.00  0.00    +0.000 OA
ATOM     19  H   UNL     1       1.008   9.892  24.180  0.00  0.00    +0.000 HD
ENDBRANCH   4  18
BRANCH   5  20
ATOM     20  O   UNL     1      -0.943  10.401  23.386  0.00  0.00    +0.000 OA
ATOM     21  H   UNL     1      -0.419  11.224  23.483  0.00  0.00    +0.000 HD
ENDBRANCH   5  20
BRANCH   3  22
ATOM     22  C   UNL     1       1.524   7.528  20.374  0.00  0.00    +0.000 C 
BRANCH  22  23
ATOM     23  N   UNL     1       2.583   7.366  19.336  0.00  0.00    +0.000 N 
ATOM     24  C   UNL     1       2.800   6.156  18.713  0.00  0.00    +0.000 C 
ATOM     25  N   UNL     1       2.167   5.102  19.148  0.00  0.00    +0.000 NA
ATOM     26  S   UNL     1       2.650   3.747  18.394  0.00  0.00    +0.000 S 
ATOM     27  O   UNL     1       3.373   2.900  19.316  0.00  0.00    +0.000 OA
ATOM     28  O   UNL     1       1.597   3.247  17.540  0.00  0.00    +0.000 OA
ATOM     29  C   UNL     1       3.813   4.521  17.370  0.00  0.00    +0.000 A 
ATOM     30  C   UNL     1       4.635   3.881  16.457  0.00  0.00    +0.000 A 
ATOM     31  C   UNL     1       5.452   4.684  15.672  0.00  0.00    +0.000 A 
ATOM     32  C   UNL     1       5.403   6.086  15.822  0.00  0.00    +0.000 A 
ATOM     33  C   UNL     1       4.567   6.702  16.788  0.00  0.00    +0.000 A 
ATOM     34  C   UNL     1       3.771   5.893  17.589  0.00  0.00    +0.000 A 
ATOM     35  H   UNL     1       2.820   8.223  18.834  0.00  0.00    +0.000 HD
ENDBRANCH  22  23
ENDBRANCH   3  22
TORSDOF 6
ENDMDL
MODEL 4
REMARK VINA RESULT:      -8.2      4.041      9.719
REMARK  Name = 
REMARK  6 active torsions:
REMARK  status: ('A' for Active; 'I' for Inactive)
REMARK    1  A    between atoms: N_1  and  C_2
REMARK    2  A    between atoms: N_10  and  C_11
REMARK    3  A    between atoms: C_13  and  C_14
REMARK    4  A    between atoms: C_14  and  N_15
REMARK    5  A    between atoms: C_27  and  O_28
REMARK    6  A    between atoms: C_29  and  O_30
REMARK                            x       y       z     vdW  Elec       q    Type
REMARK                         _______ _______ _______ _____ _____    ______ ____
ROOT
ATOM      1  C   UNL     1      -0.551  10.832  18.949  0.00  0.00    +0.000 C 
ATOM      2  O   UNL     1       0.451  10.345  18.022  0.00  0.00    +0.000 OA
ATOM      3  C   UNL     1       1.592   9.899  18.804  0.00  0.00    +0.000 C 
ATOM      4  C   UNL     1       1.084   9.762  20.259  0.00  0.00    +0.000 C 
ATOM      5  C   UNL     1      -0.434   9.900  20.150  0.00  0.00    +0.000 C 
ENDROOT
BRANCH   1  14
ATOM      6  C   UNL     1      -5.173  11.889  17.971  0.00  0.00    +0.000 A 
ATOM      7  N   UNL     1      -5.364  12.628  19.089  0.00  0.00    +0.000 NA
ATOM      8  C   UNL     1      -4.332  12.766  19.949  0.00  0.00    +0.000 A 
ATOM      9  N   UNL     1      -3.086  12.256  19.857  0.00  0.00    +0.000 NA
ATOM     10  C   UNL     1      -2.957  11.508  18.748  0.00  0.00    +0.000 A 
ATOM     11  C   UNL     1      -3.923  11.269  17.782  0.00  0.00    +0.000 A 
ATOM     12  N   UNL     1      -3.434  10.438  16.793  0.00  0.00    +0.000 NA
ATOM     13  C   UNL     1      -2.185  10.207  17.137  0.00  0.00    +0.000 A 
ATOM     14  N   UNL     1      -1.848  10.832  18.309  0.00  0.00    +0.000 N 
BRANCH   6  15
ATOM     15  N   UNL     1      -6.228  11.774  17.075  0.00  0.00    +0.000 N 
ATOM     16  H   UNL     1      -6.027  12.218  16.189  0.00  0.00    +0.000 HD
ATOM     17  H   UNL     1      -7.136  11.937  17.495  0.00  0.00    +0.000 HD
ENDBRANCH   6  15
ENDBRANCH   1  14
BRANCH   4  18
ATOM     18  O   UNL     1       1.556  10.828  21.109  0.00  0.00    +0.000 OA
ATOM     19  H   UNL     1       1.474  10.570  22.047  0.00  0.00    +0.000 HD
ENDBRANCH   4  18
BRANCH   5  20
ATOM     20  O   UNL     1      -1.015  10.407  21.347  0.00  0.00    +0.000 OA
ATOM     21  H   UNL     1      -0.290  10.801  21.876  0.00  0.00    +0.000 HD
ENDBRANCH   5  20
BRANCH   3  22
ATOM     22  C   UNL     1       2.192   8.584  18.215  0.00  0.00    +0.000 C 
BRANCH  22  23
ATOM     23  N   UNL     1       1.841   7.349  18.975  0.00  0.00    +0.000 N 
ATOM     24  C   UNL     1       2.723   6.297  19.084  0.00  0.00    +0.000 C 
ATOM     25  N   UNL     1       3.825   6.324  18.386  0.00  0.00    +0.000 NA
ATOM     26  S   UNL     1       4.671   4.946  18.529  0.00  0.00    +0.000 S 
ATOM     27  O   UNL     1       4.653   4.223  17.277  0.00  0.00    +0.000 OA
ATOM     28  O   UNL     1       5.885   5.179  19.278  0.00  0.00    +0.000 OA
ATOM     29  C   UNL     1       3.554   4.166  19.600  0.00  0.00    +0.000 A 
ATOM     30  C   UNL     1       3.684   2.881  20.104  0.00  0.00    +0.000 A 
ATOM     31  C   UNL     1       2.721   2.458  21.009  0.00  0.00    +0.000 A 
ATOM     32  C   UNL     1       1.682   3.336  21.383  0.00  0.00    +0.000 A 
ATOM     33  C   UNL     1       1.569   4.634  20.825  0.00  0.00    +0.000 A 
ATOM     34  C   UNL     1       2.520   5.043  19.898  0.00  0.00    +0.000 A 
ATOM     35  H   UNL     1       1.152   7.489  19.716  0.00  0.00    +0.000 HD
ENDBRANCH  22  23
ENDBRANCH   3  22
TORSDOF 6
ENDMDL
MODEL 5
REMARK VINA RESULT:      -8.2      3.575      9.124
REMARK  Name = 
REMARK  6 active torsions:
REMARK  status: ('A' for Active; 'I' for Inactive)
REMARK    1  A    between atoms: N_1  and  C_2
REMARK    2  A    between atoms: N_10  and  C_11
REMARK    3  A    between atoms: C_13  and  C_14
REMARK    4  A    between atoms: C_14  and  N_15
REMARK    5  A    between atoms: C_27  and  O_28
REMARK    6  A    between atoms: C_29  and  O_30
REMARK                            x       y       z     vdW  Elec       q    Type
REMARK                         _______ _______ _______ _____ _____    ______ ____
ROOT
ATOM      1  C   UNL     1       0.070  10.390  20.182  0.00  0.00    +0.000 C 
ATOM      2  O   UNL     1       1.037  10.332  19.104  0.00  0.00    +0.000 OA
ATOM      3  C   UNL     1       1.982   9.274  19.420  0.00  0.00    +0.000 C 
ATOM      4  C   UNL     1       1.318   8.427  20.531  0.00  0.00    +0.000 C 
ATOM      5  C   UNL     1      -0.122   8.934  20.591  0.00  0.00    +0.000 C 
ENDROOT
BRANCH   1  14
ATOM      6  C   UNL     1      -3.794  11.511  17.491  0.00  0.00    +0.000 A 
ATOM      7  N   UNL     1      -3.478  10.673  16.476  0.00  0.00    +0.000 NA
ATOM      8  C   UNL     1      -2.347   9.943  16.578  0.00  0.00    +0.000 A 
ATOM      9  N   UNL     1      -1.446   9.923  17.583  0.00  0.00    +0.000 NA
ATOM     10  C   UNL     1      -1.789  10.791  18.549  0.00  0.00    +0.000 A 
ATOM     11  C   UNL     1      -2.909  11.609  18.581  0.00  0.00    +0.000 A 
ATOM     12  N   UNL     1      -2.922  12.380  19.727  0.00  0.00    +0.000 NA
ATOM     13  C   UNL     1      -1.847  12.011  20.391  0.00  0.00    +0.000 A 
ATOM     14  N   UNL     1      -1.131  11.052  19.723  0.00  0.00    +0.000 N 
BRANCH   6  15
ATOM     15  N   UNL     1      -4.975  12.237  17.396  0.00  0.00    +0.000 N 
ATOM     16  H   UNL     1      -5.558  11.920  16.634  0.00  0.00    +0.000 HD
ATOM     17  H   UNL     1      -4.847  13.236  17.514  0.00  0.00    +0.000 HD
ENDBRANCH   6  15
ENDBRANCH   1  14
BRANCH   4  18
ATOM     18  O   UNL     1       1.913   8.656  21.826  0.00  0.00    +0.000 OA
ATOM     19  H   UNL     1       2.571   7.961  22.019  0.00  0.00    +0.000 HD
ENDBRANCH   4  18
BRANCH   5  20
ATOM     20  O   UNL     1      -0.701   8.756  21.880  0.00  0.00    +0.000 OA
ATOM     21  H   UNL     1      -1.421   8.099  21.785  0.00  0.00    +0.000 HD
ENDBRANCH   5  20
BRANCH   3  22
ATOM     22  C   UNL     1       2.357   8.462  18.141  0.00  0.00    +0.000 C 
BRANCH  22  23
ATOM     23  N   UNL     1       1.919   7.036  18.164  0.00  0.00    +0.000 N 
ATOM     24  C   UNL     1       2.831   6.005  18.225  0.00  0.00    +0.000 C 
ATOM     25  N   UNL     1       4.101   6.280  18.109  0.00  0.00    +0.000 NA
ATOM     26  S   UNL     1       5.013   4.938  18.060  0.00  0.00    +0.000 S 
ATOM     27  O   UNL     1       5.586   4.777  16.743  0.00  0.00    +0.000 OA
ATOM     28  O   UNL     1       5.796   4.820  19.270  0.00  0.00    +0.000 OA
ATOM     29  C   UNL     1       3.694   3.824  18.197  0.00  0.00    +0.000 A 
ATOM     30  C   UNL     1       3.801   2.442  18.188  0.00  0.00    +0.000 A 
ATOM     31  C   UNL     1       2.633   1.717  18.384  0.00  0.00    +0.000 A 
ATOM     32  C   UNL     1       1.417   2.399  18.595  0.00  0.00    +0.000 A 
ATOM     33  C   UNL     1       1.344   3.815  18.571  0.00  0.00    +0.000 A 
ATOM     34  C   UNL     1       2.510   4.536  18.347  0.00  0.00    +0.000 A 
ATOM     35  H   UNL     1       0.985   6.885  18.548  0.00  0.00    +0.000 HD
ENDBRANCH  22  23
ENDBRANCH   3  22
TORSDOF 6
ENDMDL
MODEL 6
REMARK VINA RESULT:      -8.2      3.663      9.655
REMARK  Name = 
REMARK  6 active torsions:
REMARK  status: ('A' for Active; 'I' for Inactive)
REMARK    1  A    between atoms: N_1  and  C_2
REMARK    2  A    between atoms: N_10  and  C_11
REMARK    3  A    between atoms: C_13  and  C_14
REMARK    4  A    between atoms: C_14  and  N_15
REMARK    5  A    between atoms: C_27  and  O_28
REMARK    6  A    between atoms: C_29  and  O_30
REMARK                            x       y       z     vdW  Elec       q    Type
REMARK                         _______ _______ _______ _____ _____    ______ ____
ROOT
ATOM      1  C   UNL     1       0.578  11.226  21.558  0.00  0.00    +0.000 C 
ATOM      2  O   UNL     1       1.387  10.183  20.959  0.00  0.00    +0.000 OA
ATOM      3  C   UNL     1       1.279   9.005  21.803  0.00  0.00    +0.000 C 
ATOM      4  C   UNL     1       0.055   9.248  22.718  0.00  0.00    +0.000 C 
ATOM      5  C   UNL     1      -0.624  10.484  22.131  0.00  0.00    +0.000 C 
ENDROOT
BRANCH   1  14
ATOM      6  C   UNL     1      -0.571  15.472  19.537  0.00  0.00    +0.000 A 
ATOM      7  N   UNL     1      -0.774  16.112  20.713  0.00  0.00    +0.000 NA
ATOM      8  C   UNL     1      -0.611  15.413  21.857  0.00  0.00    +0.000 A 
ATOM      9  N   UNL     1      -0.262  14.119  22.010  0.00  0.00    +0.000 NA
ATOM     10  C   UNL     1      -0.101  13.523  20.816  0.00  0.00    +0.000 A 
ATOM     11  C   UNL     1      -0.241  14.104  19.565  0.00  0.00    +0.000 A 
ATOM     12  N   UNL     1      -0.015  13.178  18.565  0.00  0.00    +0.000 NA
ATOM     13  C   UNL     1       0.289  12.066  19.201  0.00  0.00    +0.000 A 
ATOM     14  N   UNL     1       0.253  12.223  20.561  0.00  0.00    +0.000 N 
BRANCH   6  15
ATOM     15  N   UNL     1      -0.711  16.202  18.363  0.00  0.00    +0.000 N 
ATOM     16  H   UNL     1      -1.503  16.828  18.395  0.00  0.00    +0.000 HD
ATOM     17  H   UNL     1      -0.572  15.651  17.524  0.00  0.00    +0.000 HD
ENDBRANCH   6  15
ENDBRANCH   1  14
BRANCH   4  18
ATOM     18  O   UNL     1       0.437   9.565  24.073  0.00  0.00    +0.000 OA
ATOM     19  H   UNL     1      -0.301  10.008  24.533  0.00  0.00    +0.000 HD
ENDBRANCH   4  18
BRANCH   5  20
ATOM     20  O   UNL     1      -1.353  11.213  23.112  0.00  0.00    +0.000 OA
ATOM     21  H   UNL     1      -2.303  11.137  22.883  0.00  0.00    +0.000 HD
ENDBRANCH   5  20
BRANCH   3  22
ATOM     22  C   UNL     1       1.179   7.708  20.940  0.00  0.00    +0.000 C 
BRANCH  22  23
ATOM     23  N   UNL     1       2.248   7.567  19.909  0.00  0.00    +0.000 N 
ATOM     24  C   UNL     1       2.446   6.381  19.237  0.00  0.00    +0.000 C 
ATOM     25  N   UNL     1       1.784   5.324  19.617  0.00  0.00    +0.000 NA
ATOM     26  S   UNL     1       2.245   3.993  18.810  0.00  0.00    +0.000 S 
ATOM     27  O   UNL     1       2.937   3.090  19.702  0.00  0.00    +0.000 OA
ATOM     28  O   UNL     1       1.193   3.555  17.921  0.00  0.00    +0.000 OA
ATOM     29  C   UNL     1       3.439   4.784  17.836  0.00  0.00    +0.000 A 
ATOM     30  C   UNL     1       4.259   4.165  16.905  0.00  0.00    +0.000 A 
ATOM     31  C   UNL     1       5.105   4.982  16.168  0.00  0.00    +0.000 A 
ATOM     32  C   UNL     1       5.086   6.377  16.378  0.00  0.00    +0.000 A 
ATOM     33  C   UNL     1       4.251   6.969  17.360  0.00  0.00    +0.000 A 
ATOM     34  C   UNL     1       3.426   6.145  18.115  0.00  0.00    +0.000 A 
ATOM     35  H   UNL     1       2.512   8.440  19.449  0.00  0.00    +0.000 HD
ENDBRANCH  22  23
ENDBRANCH   3  22
TORSDOF 6
ENDMDL
MODEL 7
REMARK VINA RESULT:      -8.2      3.957      9.980
REMARK  Name = 
REMARK  6 active torsions:
REMARK  status: ('A' for Active; 'I' for Inactive)
REMARK    1  A    between atoms: N_1  and  C_2
REMARK    2  A    between atoms: N_10  and  C_11
REMARK    3  A    between atoms: C_13  and  C_14
REMARK    4  A    between atoms: C_14  and  N_15
REMARK    5  A    between atoms: C_27  and  O_28
REMARK    6  A    between atoms: C_29  and  O_30
REMARK                            x       y       z     vdW  Elec       q    Type
REMARK                         _______ _______ _______ _____ _____    ______ ____
ROOT
ATOM      1  C   UNL     1      -0.797  10.990  19.279  0.00  0.00    +0.000 C 
ATOM      2  O   UNL     1       0.081  10.006  18.678  0.00  0.00    +0.000 OA
ATOM      3  C   UNL     1       1.172   9.765  19.609  0.00  0.00    +0.000 C 
ATOM      4  C   UNL     1       0.707  10.342  20.968  0.00  0.00    +0.000 C 
ATOM      5  C   UNL     1      -0.775  10.653  20.765  0.00  0.00    +0.000 C 
ENDROOT
BRANCH   1  14
ATOM      6  C   UNL     1      -5.402  11.999  18.181  0.00  0.00    +0.000 A 
ATOM      7  N   UNL     1      -5.555  12.927  19.155  0.00  0.00    +0.000 NA
ATOM      8  C   UNL     1      -4.507  13.181  19.966  0.00  0.00    +0.000 A 
ATOM      9  N   UNL     1      -3.277  12.625  19.951  0.00  0.00    +0.000 NA
ATOM     10  C   UNL     1      -3.186  11.692  18.988  0.00  0.00    +0.000 A 
ATOM     11  C   UNL     1      -4.173  11.319  18.089  0.00  0.00    +0.000 A 
ATOM     12  N   UNL     1      -3.723  10.314  17.255  0.00  0.00    +0.000 NA
ATOM     13  C   UNL     1      -2.476  10.109  17.621  0.00  0.00    +0.000 A 
ATOM     14  N   UNL     1      -2.103  10.918  18.662  0.00  0.00    +0.000 N 
BRANCH   6  15
ATOM     15  N   UNL     1      -6.474  11.762  17.330  0.00  0.00    +0.000 N 
ATOM     16  H   UNL     1      -6.359  12.216  16.434  0.00  0.00    +0.000 HD
ATOM     17  H   UNL     1      -7.377  11.830  17.786  0.00  0.00    +0.000 HD
ENDBRANCH   6  15
ENDBRANCH   1  14
BRANCH   4  18
ATOM     18  O   UNL     1       1.370  11.581  21.294  0.00  0.00    +0.000 OA
ATOM     19  H   UNL     1       2.218  11.642  20.814  0.00  0.00    +0.000 HD
ENDBRANCH   4  18
BRANCH   5  20
ATOM     20  O   UNL     1      -1.224  11.705  21.614  0.00  0.00    +0.000 OA
ATOM     21  H   UNL     1      -0.427  12.184  21.926  0.00  0.00    +0.000 HD
ENDBRANCH   5  20
BRANCH   3  22
ATOM     22  C   UNL     1       1.541   8.249  19.656  0.00  0.00    +0.000 C 
BRANCH  22  23
ATOM     23  N   UNL     1       2.655   7.855  18.745  0.00  0.00    +0.000 N 
ATOM     24  C   UNL     1       2.830   6.548  18.347  0.00  0.00    +0.000 C 
ATOM     25  N   UNL     1       2.097   5.619  18.897  0.00  0.00    +0.000 NA
ATOM     26  S   UNL     1       2.536   4.132  18.414  0.00  0.00    +0.000 S 
ATOM     27  O   UNL     1       3.134   3.412  19.516  0.00  0.00    +0.000 OA
ATOM     28  O   UNL     1       1.512   3.557  17.571  0.00  0.00    +0.000 OA
ATOM     29  C   UNL     1       3.817   4.657  17.373  0.00  0.00    +0.000 A 
ATOM     30  C   UNL     1       4.654   3.827  16.644  0.00  0.00    +0.000 A 
ATOM     31  C   UNL     1       5.577   4.439  15.807  0.00  0.00    +0.000 A 
ATOM     32  C   UNL     1       5.615   5.847  15.722  0.00  0.00    +0.000 A 
ATOM     33  C   UNL     1       4.759   6.662  16.505  0.00  0.00    +0.000 A 
ATOM     34  C   UNL     1       3.856   6.045  17.362  0.00  0.00    +0.000 A 
ATOM     35  H   UNL     1       2.985   8.602  18.131  0.00  0.00    +0.000 HD
ENDBRANCH  22  23
ENDBRANCH   3  22
TORSDOF 6
ENDMDL
MODEL 8
REMARK VINA RESULT:      -8.2      3.376      7.900
REMARK  Name = 
REMARK  6 active torsions:
REMARK  status: ('A' for Active; 'I' for Inactive)
REMARK    1  A    between atoms: N_1  and  C_2
REMARK    2  A    between atoms: N_10  and  C_11
REMARK    3  A    between atoms: C_13  and  C_14
REMARK    4  A    between atoms: C_14  and  N_15
REMARK    5  A    between atoms: C_27  and  O_28
REMARK    6  A    between atoms: C_29  and  O_30
REMARK                            x       y       z     vdW  Elec       q    Type
REMARK                         _______ _______ _______ _____ _____    ______ ____
ROOT
ATOM      1  C   UNL     1       2.310   5.278  20.347  0.00  0.00    +0.000 C 
ATOM      2  O   UNL     1       3.607   4.646  20.210  0.00  0.00    +0.000 OA
ATOM      3  C   UNL     1       3.469   3.264  20.637  0.00  0.00    +0.000 C 
ATOM      4  C   UNL     1       1.949   2.974  20.656  0.00  0.00    +0.000 C 
ATOM      5  C   UNL     1       1.319   4.183  19.967  0.00  0.00    +0.000 C 
ENDROOT
BRANCH   1  14
ATOM      6  C   UNL     1       1.545   9.840  18.923  0.00  0.00    +0.000 A 
ATOM      7  N   UNL     1       0.907  10.213  20.057  0.00  0.00    +0.000 NA
ATOM      8  C   UNL     1       0.737   9.290  21.028  0.00  0.00    +0.000 A 
ATOM      9  N   UNL     1       1.124   7.997  21.036  0.00  0.00    +0.000 NA
ATOM     10  C   UNL     1       1.725   7.670  19.880  0.00  0.00    +0.000 A 
ATOM     11  C   UNL     1       1.963   8.502  18.796  0.00  0.00    +0.000 A 
ATOM     12  N   UNL     1       2.588   7.813  17.776  0.00  0.00    +0.000 NA
ATOM     13  C   UNL     1       2.755   6.595  18.248  0.00  0.00    +0.000 A 
ATOM     14  N   UNL     1       2.253   6.459  19.515  0.00  0.00    +0.000 N 
BRANCH   6  15
ATOM     15  N   UNL     1       1.745  10.801  17.939  0.00  0.00    +0.000 N 
ATOM     16  H   UNL     1       2.561  10.608  17.376  0.00  0.00    +0.000 HD
ATOM     17  H   UNL     1       1.605  11.751  18.266  0.00  0.00    +0.000 HD
ENDBRANCH   6  15
ENDBRANCH   1  14
BRANCH   4  18
ATOM     18  O   UNL     1       1.418   2.914  21.997  0.00  0.00    +0.000 OA
ATOM     19  H   UNL     1       2.111   3.156  22.641  0.00  0.00    +0.000 HD
ENDBRANCH   4  18
BRANCH   5  20
ATOM     20  O   UNL     1      -0.015   4.418  20.407  0.00  0.00    +0.000 OA
ATOM     21  H   UNL     1      -0.512   4.777  19.643  0.00  0.00    +0.000 HD
ENDBRANCH   5  20
BRANCH   3  22
ATOM     22  C   UNL     1       4.285   2.309  19.710  0.00  0.00    +0.000 C 
BRANCH  22  23
ATOM     23  N   UNL     1       4.358   2.745  18.285  0.00  0.00    +0.000 N 
ATOM     24  C   UNL     1       5.433   3.460  17.806  0.00  0.00    +0.000 C 
ATOM     25  N   UNL     1       6.329   3.890  18.650  0.00  0.00    +0.000 NA
ATOM     26  S   UNL     1       7.442   4.829  17.932  0.00  0.00    +0.000 S 
ATOM     27  O   UNL     1       7.297   6.197  18.379  0.00  0.00    +0.000 OA
ATOM     28  O   UNL     1       8.719   4.154  17.894  0.00  0.00    +0.000 OA
ATOM     29  C   UNL     1       6.761   4.723  16.343  0.00  0.00    +0.000 A 
ATOM     30  C   UNL     1       7.249   5.361  15.212  0.00  0.00    +0.000 A 
ATOM     31  C   UNL     1       6.608   5.093  14.011  0.00  0.00    +0.000 A 
ATOM     32  C   UNL     1       5.522   4.192  13.985  0.00  0.00    +0.000 A 
ATOM     33  C   UNL     1       5.036   3.580  15.169  0.00  0.00    +0.000 A 
ATOM     34  C   UNL     1       5.663   3.873  16.373  0.00  0.00    +0.000 A 
ATOM     35  H   UNL     1       3.832   2.158  17.634  0.00  0.00    +0.000 HD
ENDBRANCH  22  23
ENDBRANCH   3  22
TORSDOF 6
ENDMDL
MODEL 9
REMARK VINA RESULT:      -8.2      4.011     10.163
REMARK  Name = 
REMARK  6 active torsions:
REMARK  status: ('A' for Active; 'I' for Inactive)
REMARK    1  A    between atoms: N_1  and  C_2
REMARK    2  A    between atoms: N_10  and  C_11
REMARK    3  A    between atoms: C_13  and  C_14
REMARK    4  A    between atoms: C_14  and  N_15
REMARK    5  A    between atoms: C_27  and  O_28
REMARK    6  A    between atoms: C_29  and  O_30
REMARK                            x       y       z     vdW  Elec       q    Type
REMARK                         _______ _______ _______ _____ _____    ______ ____
ROOT
ATOM      1  C   UNL     1      -0.131  11.413  20.300  0.00  0.00    +0.000 C 
ATOM      2  O   UNL     1      -0.023  10.169  21.036  0.00  0.00    +0.000 OA
ATOM      3  C   UNL     1       0.469   9.157  20.116  0.00  0.00    +0.000 C 
ATOM      4  C   UNL     1       1.037   9.927  18.900  0.00  0.00    +0.000 C 
ATOM      5  C   UNL     1       1.059  11.387  19.347  0.00  0.00    +0.000 C 
ENDROOT
BRANCH   1  14
ATOM      6  C   UNL     1      -1.507  14.400  23.852  0.00  0.00    +0.000 A 
ATOM      7  N   UNL     1      -2.710  13.809  24.044  0.00  0.00    +0.000 NA
ATOM      8  C   UNL     1      -3.035  12.753  23.268  0.00  0.00    +0.000 A 
ATOM      9  N   UNL     1      -2.310  12.175  22.287  0.00  0.00    +0.000 NA
ATOM     10  C   UNL     1      -1.140  12.815  22.116  0.00  0.00    +0.000 A 
ATOM     11  C   UNL     1      -0.675  13.911  22.828  0.00  0.00    +0.000 A 
ATOM     12  N   UNL     1       0.563  14.309  22.361  0.00  0.00    +0.000 NA
ATOM     13  C   UNL     1       0.855  13.448  21.409  0.00  0.00    +0.000 A 
ATOM     14  N   UNL     1      -0.140  12.525  21.225  0.00  0.00    +0.000 N 
BRANCH   6  15
ATOM     15  N   UNL     1      -1.165  15.467  24.673  0.00  0.00    +0.000 N 
ATOM     16  H   UNL     1      -0.515  16.099  24.227  0.00  0.00    +0.000 HD
ATOM     17  H   UNL     1      -0.985  15.197  25.634  0.00  0.00    +0.000 HD
ENDBRANCH   6  15
ENDBRANCH   1  14
BRANCH   4  18
ATOM     18  O   UNL     1       0.177   9.839  17.744  0.00  0.00    +0.000 OA
ATOM     19  H   UNL     1       0.310   8.984  17.293  0.00  0.00    +0.000 HD
ENDBRANCH   4  18
BRANCH   5  20
ATOM     20  O   UNL     1       0.951  12.287  18.248  0.00  0.00    +0.000 OA
ATOM     21  H   UNL     1       1.862  12.522  17.976  0.00  0.00    +0.000 HD
ENDBRANCH   5  20
BRANCH   3  22
ATOM     22  C   UNL     1       1.506   8.223  20.816  0.00  0.00    +0.000 C 
BRANCH  22  23
ATOM     23  N   UNL     1       2.321   7.393  19.881  0.00  0.00    +0.000 N 
ATOM     24  C   UNL     1       2.237   6.019  19.881  0.00  0.00    +0.000 C 
ATOM     25  N   UNL     1       1.543   5.431  20.817  0.00  0.00    +0.000 NA
ATOM     26  S   UNL     1       1.671   3.813  20.745  0.00  0.00    +0.000 S 
ATOM     27  O   UNL     1       2.416   3.326  21.884  0.00  0.00    +0.000 OA
ATOM     28  O   UNL     1       0.417   3.230  20.327  0.00  0.00    +0.000 OA
ATOM     29  C   UNL     1       2.730   3.782  19.374  0.00  0.00    +0.000 A 
ATOM     30  C   UNL     1       3.265   2.643  18.795  0.00  0.00    +0.000 A 
ATOM     31  C   UNL     1       4.036   2.817  17.654  0.00  0.00    +0.000 A 
ATOM     32  C   UNL     1       4.226   4.115  17.133  0.00  0.00    +0.000 A 
ATOM     33  C   UNL     1       3.682   5.259  17.770  0.00  0.00    +0.000 A 
ATOM     34  C   UNL     1       2.935   5.082  18.928  0.00  0.00    +0.000 A 
ATOM     35  H   UNL     1       2.588   7.867  19.017  0.00  0.00    +0.000 HD
ENDBRANCH  22  23
ENDBRANCH   3  22
TORSDOF 6
ENDMDL
