MODEL 1
REMARK VINA RESULT:      -8.3      0.000      0.000
REMARK  Name = 
REMARK  2 active torsions:
REMARK  status: ('A' for Active; 'I' for Inactive)
REMARK    1  A    between atoms: N_7  and  C_8
REMARK    2  A    between atoms: C_18  and  C_19
REMARK                            x       y       z     vdW  Elec       q    Type
REMARK                         _______ _______ _______ _____ _____    ______ ____
ROOT
ATOM      1  C   UNL     1       3.443   2.370  18.206  0.00  0.00    +0.000 A 
ATOM      2  C   UNL     1       2.695   2.676  17.078  0.00  0.00    +0.000 A 
ATOM      3  C   UNL     1       2.830   3.992  16.646  0.00  0.00    +0.000 A 
ATOM      4  C   UNL     1       3.952   4.634  17.117  0.00  0.00    +0.000 A 
ATOM      5  C   UNL     1       5.037   3.770  17.152  0.00  0.00    +0.000 A 
ATOM      6  C   UNL     1       4.791   2.655  17.953  0.00  0.00    +0.000 A 
ATOM      7  C   UNL     1       6.329   4.203  16.475  0.00  0.00    +0.000 C 
ATOM      8  N   UNL     1       6.807   5.595  16.689  0.00  0.00    +0.000 NA
ATOM      9  C   UNL     1       6.073   6.651  15.973  0.00  0.00    +0.000 C 
ATOM     10  C   UNL     1       4.605   6.775  16.312  0.00  0.00    +0.000 C 
ATOM     11  C   UNL     1       4.257   6.049  17.620  0.00  0.00    +0.000 C 
ATOM     12  C   UNL     1       5.449   5.823  18.705  0.00  0.00    +0.000 C 
ATOM     13  C   UNL     1       6.836   5.922  18.107  0.00  0.00    +0.000 C 
ENDROOT
BRANCH   1  20
ATOM     14  O   UNL     1       4.603   2.159  20.861  0.00  0.00    +0.000 OA
ATOM     15  C   UNL     1       3.421   2.448  20.701  0.00  0.00    +0.000 A 
ATOM     16  C   UNL     1       2.544   2.292  21.896  0.00  0.00    +0.000 A 
ATOM     17  C   UNL     1       1.270   2.678  21.849  0.00  0.00    +0.000 A 
ATOM     18  C   UNL     1       0.761   3.293  20.634  0.00  0.00    +0.000 A 
ATOM     19  C   UNL     1       1.511   3.352  19.529  0.00  0.00    +0.000 A 
ATOM     20  N   UNL     1       2.803   2.846  19.475  0.00  0.00    +0.000 N 
ENDBRANCH   1  20
BRANCH  11  21
ATOM     21  C   UNL     1       3.322   7.021  18.358  0.00  0.00    +0.000 A 
ATOM     22  C   UNL     1       2.731   6.846  19.606  0.00  0.00    +0.000 A 
ATOM     23  C   UNL     1       1.754   7.771  20.041  0.00  0.00    +0.000 A 
ATOM     24  C   UNL     1       1.379   8.873  19.257  0.00  0.00    +0.000 A 
ATOM     25 CL   UNL     1       0.127   9.936  19.764  0.00  0.00    +0.000 Cl
ATOM     26  C   UNL     1       1.972   9.093  18.037  0.00  0.00    +0.000 A 
ATOM     27  C   UNL     1       2.902   8.162  17.599  0.00  0.00    +0.000 A 
ENDBRANCH  11  21
TORSDOF 2
ENDMDL
MODEL 2
REMARK VINA RESULT:      -8.0      1.186      1.508
REMARK  Name = 
REMARK  2 active torsions:
REMARK  status: ('A' for Active; 'I' for Inactive)
REMARK    1  A    between atoms: N_7  and  C_8
REMARK    2  A    between atoms: C_18  and  C_19
REMARK                            x       y       z     vdW  Elec       q    Type
REMARK                         _______ _______ _______ _____ _____    ______ ____
ROOT
ATOM      1  C   UNL     1       3.228   2.063  17.944  0.00  0.00    +0.000 A 
ATOM      2  C   UNL     1       2.501   2.599  16.891  0.00  0.00    +0.000 A 
ATOM      3  C   UNL     1       2.651   3.973  16.738  0.00  0.00    +0.000 A 
ATOM      4  C   UNL     1       3.768   4.496  17.347  0.00  0.00    +0.000 A 
ATOM      5  C   UNL     1       4.848   3.633  17.223  0.00  0.00    +0.000 A 
ATOM      6  C   UNL     1       4.582   2.381  17.776  0.00  0.00    +0.000 A 
ATOM      7  C   UNL     1       6.154   4.184  16.668  0.00  0.00    +0.000 C 
ATOM      8  N   UNL     1       6.636   5.499  17.169  0.00  0.00    +0.000 NA
ATOM      9  C   UNL     1       5.920   6.685  16.671  0.00  0.00    +0.000 C 
ATOM     10  C   UNL     1       4.447   6.751  17.005  0.00  0.00    +0.000 C 
ATOM     11  C   UNL     1       4.073   5.777  18.133  0.00  0.00    +0.000 C 
ATOM     12  C   UNL     1       5.245   5.324  19.168  0.00  0.00    +0.000 C 
ATOM     13  C   UNL     1       6.643   5.530  18.623  0.00  0.00    +0.000 C 
ENDROOT
BRANCH   1  20
ATOM     14  O   UNL     1       0.362   2.074  18.423  0.00  0.00    +0.000 OA
ATOM     15  C   UNL     1       1.153   2.477  19.269  0.00  0.00    +0.000 A 
ATOM     16  C   UNL     1       0.573   3.320  20.354  0.00  0.00    +0.000 A 
ATOM     17  C   UNL     1       1.333   3.718  21.373  0.00  0.00    +0.000 A 
ATOM     18  C   UNL     1       2.719   3.284  21.436  0.00  0.00    +0.000 A 
ATOM     19  C   UNL     1       3.272   2.608  20.424  0.00  0.00    +0.000 A 
ATOM     20  N   UNL     1       2.569   2.277  19.273  0.00  0.00    +0.000 N 
ENDBRANCH   1  20
BRANCH  11  21
ATOM     21  C   UNL     1       3.130   6.587  19.038  0.00  0.00    +0.000 A 
ATOM     22  C   UNL     1       2.610   6.210  20.272  0.00  0.00    +0.000 A 
ATOM     23  C   UNL     1       1.613   7.013  20.874  0.00  0.00    +0.000 A 
ATOM     24  C   UNL     1       1.150   8.192  20.269  0.00  0.00    +0.000 A 
ATOM     25 CL   UNL     1      -0.124   9.107  20.972  0.00  0.00    +0.000 Cl
ATOM     26  C   UNL     1       1.672   8.609  19.068  0.00  0.00    +0.000 A 
ATOM     27  C   UNL     1       2.622   7.797  18.465  0.00  0.00    +0.000 A 
ENDBRANCH  11  21
TORSDOF 2
ENDMDL
MODEL 3
REMARK VINA RESULT:      -7.5      1.187      1.733
REMARK  Name = 
REMARK  2 active torsions:
REMARK  status: ('A' for Active; 'I' for Inactive)
REMARK    1  A    between atoms: N_7  and  C_8
REMARK    2  A    between atoms: C_18  and  C_19
REMARK                            x       y       z     vdW  Elec       q    Type
REMARK                         _______ _______ _______ _____ _____    ______ ____
ROOT
ATOM      1  C   UNL     1       3.417   2.131  18.306  0.00  0.00    +0.000 A 
ATOM      2  C   UNL     1       2.863   2.417  17.067  0.00  0.00    +0.000 A 
ATOM      3  C   UNL     1       3.004   3.744  16.673  0.00  0.00    +0.000 A 
ATOM      4  C   UNL     1       3.992   4.433  17.338  0.00  0.00    +0.000 A 
ATOM      5  C   UNL     1       5.097   3.623  17.558  0.00  0.00    +0.000 A 
ATOM      6  C   UNL     1       4.772   2.485  18.296  0.00  0.00    +0.000 A 
ATOM      7  C   UNL     1       6.464   4.130  17.120  0.00  0.00    +0.000 C 
ATOM      8  N   UNL     1       6.825   5.541  17.424  0.00  0.00    +0.000 NA
ATOM      9  C   UNL     1       6.174   6.570  16.597  0.00  0.00    +0.000 C 
ATOM     10  C   UNL     1       4.665   6.616  16.674  0.00  0.00    +0.000 C 
ATOM     11  C   UNL     1       4.131   5.854  17.896  0.00  0.00    +0.000 C 
ATOM     12  C   UNL     1       5.125   5.671  19.172  0.00  0.00    +0.000 C 
ATOM     13  C   UNL     1       6.589   5.847  18.827  0.00  0.00    +0.000 C 
ENDROOT
BRANCH   1  20
ATOM     14  O   UNL     1       0.511   2.143  18.286  0.00  0.00    +0.000 OA
ATOM     15  C   UNL     1       1.146   2.711  19.168  0.00  0.00    +0.000 A 
ATOM     16  C   UNL     1       0.392   3.714  19.972  0.00  0.00    +0.000 A 
ATOM     17  C   UNL     1       0.967   4.306  21.018  0.00  0.00    +0.000 A 
ATOM     18  C   UNL     1       2.321   3.930  21.389  0.00  0.00    +0.000 A 
ATOM     19  C   UNL     1       3.038   3.103  20.620  0.00  0.00    +0.000 A 
ATOM     20  N   UNL     1       2.541   2.555  19.446  0.00  0.00    +0.000 N 
ENDBRANCH   1  20
BRANCH  11  21
ATOM     21  C   UNL     1       3.033   6.767  18.464  0.00  0.00    +0.000 A 
ATOM     22  C   UNL     1       2.319   7.754  17.792  0.00  0.00    +0.000 A 
ATOM     23  C   UNL     1       1.474   8.617  18.529  0.00  0.00    +0.000 A 
ATOM     24  C   UNL     1       1.320   8.490  19.918  0.00  0.00    +0.000 A 
ATOM     25 CL   UNL     1       0.359   9.603  20.808  0.00  0.00    +0.000 Cl
ATOM     26  C   UNL     1       1.984   7.502  20.605  0.00  0.00    +0.000 A 
ATOM     27  C   UNL     1       2.840   6.683  19.882  0.00  0.00    +0.000 A 
ENDBRANCH  11  21
TORSDOF 2
ENDMDL
MODEL 4
REMARK VINA RESULT:      -7.4      9.708     11.966
REMARK  Name = 
REMARK  2 active torsions:
REMARK  status: ('A' for Active; 'I' for Inactive)
REMARK    1  A    between atoms: N_7  and  C_8
REMARK    2  A    between atoms: C_18  and  C_19
REMARK                            x       y       z     vdW  Elec       q    Type
REMARK                         _______ _______ _______ _____ _____    ______ ____
ROOT
ATOM      1  C   UNL     1       9.645  16.297  17.776  0.00  0.00    +0.000 A 
ATOM      2  C   UNL     1      10.703  16.691  18.582  0.00  0.00    +0.000 A 
ATOM      3  C   UNL     1      11.145  15.708  19.462  0.00  0.00    +0.000 A 
ATOM      4  C   UNL     1      10.774  14.429  19.120  0.00  0.00    +0.000 A 
ATOM      5  C   UNL     1      10.834  14.248  17.745  0.00  0.00    +0.000 A 
ATOM      6  C   UNL     1      10.015  15.148  17.064  0.00  0.00    +0.000 A 
ATOM      7  C   UNL     1      11.622  13.063  17.205  0.00  0.00    +0.000 C 
ATOM      8  N   UNL     1      11.450  11.741  17.863  0.00  0.00    +0.000 NA
ATOM      9  C   UNL     1      12.099  11.579  19.175  0.00  0.00    +0.000 C 
ATOM     10  C   UNL     1      11.632  12.524  20.258  0.00  0.00    +0.000 C 
ATOM     11  C   UNL     1      10.298  13.195  19.897  0.00  0.00    +0.000 C 
ATOM     12  C   UNL     1       9.322  12.430  18.843  0.00  0.00    +0.000 C 
ATOM     13  C   UNL     1      10.040  11.404  17.991  0.00  0.00    +0.000 C 
ENDROOT
BRANCH   1  20
ATOM     14  O   UNL     1       8.530  18.627  19.106  0.00  0.00    +0.000 OA
ATOM     15  C   UNL     1       8.055  17.508  19.271  0.00  0.00    +0.000 A 
ATOM     16  C   UNL     1       7.167  17.346  20.457  0.00  0.00    +0.000 A 
ATOM     17  C   UNL     1       6.523  16.198  20.662  0.00  0.00    +0.000 A 
ATOM     18  C   UNL     1       6.662  15.125  19.691  0.00  0.00    +0.000 A 
ATOM     19  C   UNL     1       7.527  15.226  18.676  0.00  0.00    +0.000 A 
ATOM     20  N   UNL     1       8.325  16.345  18.483  0.00  0.00    +0.000 N 
ENDBRANCH   1  20
BRANCH  11  21
ATOM     21  C   UNL     1       9.481  13.145  21.198  0.00  0.00    +0.000 A 
ATOM     22  C   UNL     1       9.329  14.155  22.142  0.00  0.00    +0.000 A 
ATOM     23  C   UNL     1       8.686  13.861  23.367  0.00  0.00    +0.000 A 
ATOM     24  C   UNL     1       8.177  12.583  23.646  0.00  0.00    +0.000 A 
ATOM     25 CL   UNL     1       7.478  12.222  25.174  0.00  0.00    +0.000 Cl
ATOM     26  C   UNL     1       8.280  11.575  22.718  0.00  0.00    +0.000 A 
ATOM     27  C   UNL     1       8.945  11.859  21.534  0.00  0.00    +0.000 A 
ENDBRANCH  11  21
TORSDOF 2
ENDMDL
MODEL 5
REMARK VINA RESULT:      -6.9      9.839     11.893
REMARK  Name = 
REMARK  2 active torsions:
REMARK  status: ('A' for Active; 'I' for Inactive)
REMARK    1  A    between atoms: N_7  and  C_8
REMARK    2  A    between atoms: C_18  and  C_19
REMARK                            x       y       z     vdW  Elec       q    Type
REMARK                         _______ _______ _______ _____ _____    ______ ____
ROOT
ATOM      1  C   UNL     1       8.702  16.658  18.337  0.00  0.00    +0.000 A 
ATOM      2  C   UNL     1       9.799  17.106  19.056  0.00  0.00    +0.000 A 
ATOM      3  C   UNL     1      10.491  16.100  19.724  0.00  0.00    +0.000 A 
ATOM      4  C   UNL     1      10.252  14.832  19.248  0.00  0.00    +0.000 A 
ATOM      5  C   UNL     1      10.141  14.836  17.864  0.00  0.00    +0.000 A 
ATOM      6  C   UNL     1       9.119  15.678  17.426  0.00  0.00    +0.000 A 
ATOM      7  C   UNL     1      10.998  13.864  17.067  0.00  0.00    +0.000 C 
ATOM      8  N   UNL     1      11.102  12.458  17.543  0.00  0.00    +0.000 NA
ATOM      9  C   UNL     1      11.946  12.236  18.728  0.00  0.00    +0.000 C 
ATOM     10  C   UNL     1      11.514  12.954  19.986  0.00  0.00    +0.000 C 
ATOM     11  C   UNL     1      10.064  13.453  19.891  0.00  0.00    +0.000 C 
ATOM     12  C   UNL     1       9.061  12.684  18.865  0.00  0.00    +0.000 C 
ATOM     13  C   UNL     1       9.784  11.896  17.792  0.00  0.00    +0.000 C 
ENDROOT
BRANCH   1  20
ATOM     14  O   UNL     1       7.441  18.623  20.065  0.00  0.00    +0.000 OA
ATOM     15  C   UNL     1       7.169  17.430  20.150  0.00  0.00    +0.000 A 
ATOM     16  C   UNL     1       6.490  17.003  21.406  0.00  0.00    +0.000 A 
ATOM     17  C   UNL     1       6.063  15.749  21.546  0.00  0.00    +0.000 A 
ATOM     18  C   UNL     1       6.228  14.817  20.443  0.00  0.00    +0.000 A 
ATOM     19  C   UNL     1       6.917  15.163  19.350  0.00  0.00    +0.000 A 
ATOM     20  N   UNL     1       7.501  16.414  19.200  0.00  0.00    +0.000 N 
ENDBRANCH   1  20
BRANCH  11  21
ATOM     21  C   UNL     1       9.454  13.115  21.261  0.00  0.00    +0.000 A 
ATOM     22  C   UNL     1       8.843  11.926  21.646  0.00  0.00    +0.000 A 
ATOM     23  C   UNL     1       8.178  11.865  22.893  0.00  0.00    +0.000 A 
ATOM     24  C   UNL     1       8.136  12.967  23.761  0.00  0.00    +0.000 A 
ATOM     25 CL   UNL     1       7.248  12.902  25.232  0.00  0.00    +0.000 Cl
ATOM     26  C   UNL     1       8.762  14.143  23.425  0.00  0.00    +0.000 A 
ATOM     27  C   UNL     1       9.380  14.208  22.184  0.00  0.00    +0.000 A 
ENDBRANCH  11  21
TORSDOF 2
ENDMDL
MODEL 6
REMARK VINA RESULT:      -6.8      9.377     11.691
REMARK  Name = 
REMARK  2 active torsions:
REMARK  status: ('A' for Active; 'I' for Inactive)
REMARK    1  A    between atoms: N_7  and  C_8
REMARK    2  A    between atoms: C_18  and  C_19
REMARK                            x       y       z     vdW  Elec       q    Type
REMARK                         _______ _______ _______ _____ _____    ______ ____
ROOT
ATOM      1  C   UNL     1      11.653  13.360  18.447  0.00  0.00    +0.000 A 
ATOM      2  C   UNL     1      11.592  13.873  17.160  0.00  0.00    +0.000 A 
ATOM      3  C   UNL     1      10.743  14.968  17.025  0.00  0.00    +0.000 A 
ATOM      4  C   UNL     1      10.445  15.607  18.206  0.00  0.00    +0.000 A 
ATOM      5  C   UNL     1      11.556  15.652  19.038  0.00  0.00    +0.000 A 
ATOM      6  C   UNL     1      12.041  14.377  19.329  0.00  0.00    +0.000 A 
ATOM      7  C   UNL     1      11.978  16.997  19.609  0.00  0.00    +0.000 C 
ATOM      8  N   UNL     1      10.925  17.896  20.153  0.00  0.00    +0.000 NA
ATOM      9  C   UNL     1      10.079  18.579  19.161  0.00  0.00    +0.000 C 
ATOM     10  C   UNL     1       9.273  17.677  18.254  0.00  0.00    +0.000 C 
ATOM     11  C   UNL     1       9.185  16.245  18.803  0.00  0.00    +0.000 C 
ATOM     12  C   UNL     1       9.369  16.032  20.406  0.00  0.00    +0.000 C 
ATOM     13  C   UNL     1      10.070  17.186  21.091  0.00  0.00    +0.000 C 
ENDROOT
BRANCH   1  20
ATOM     14  O   UNL     1      10.968  12.402  21.103  0.00  0.00    +0.000 OA
ATOM     15  C   UNL     1      10.442  11.932  20.099  0.00  0.00    +0.000 A 
ATOM     16  C   UNL     1       9.762  10.617  20.273  0.00  0.00    +0.000 A 
ATOM     17  C   UNL     1       9.076  10.078  19.267  0.00  0.00    +0.000 A 
ATOM     18  C   UNL     1       8.962  10.808  18.015  0.00  0.00    +0.000 A 
ATOM     19  C   UNL     1       9.644  11.941  17.817  0.00  0.00    +0.000 A 
ATOM     20  N   UNL     1      10.482  12.486  18.781  0.00  0.00    +0.000 N 
ENDBRANCH   1  20
BRANCH  11  21
ATOM     21  C   UNL     1       7.718  15.842  18.584  0.00  0.00    +0.000 A 
ATOM     22  C   UNL     1       7.238  14.670  18.010  0.00  0.00    +0.000 A 
ATOM     23  C   UNL     1       5.856  14.557  17.728  0.00  0.00    +0.000 A 
ATOM     24  C   UNL     1       4.954  15.587  18.031  0.00  0.00    +0.000 A 
ATOM     25 CL   UNL     1       3.294  15.467  17.600  0.00  0.00    +0.000 Cl
ATOM     26  C   UNL     1       5.393  16.743  18.633  0.00  0.00    +0.000 A 
ATOM     27  C   UNL     1       6.754  16.863  18.872  0.00  0.00    +0.000 A 
ENDBRANCH  11  21
TORSDOF 2
ENDMDL
MODEL 7
REMARK VINA RESULT:      -6.7     10.116     12.711
REMARK  Name = 
REMARK  2 active torsions:
REMARK  status: ('A' for Active; 'I' for Inactive)
REMARK    1  A    between atoms: N_7  and  C_8
REMARK    2  A    between atoms: C_18  and  C_19
REMARK                            x       y       z     vdW  Elec       q    Type
REMARK                         _______ _______ _______ _____ _____    ______ ____
ROOT
ATOM      1  C   UNL     1      11.264  15.788  16.996  0.00  0.00    +0.000 A 
ATOM      2  C   UNL     1      12.325  15.828  17.889  0.00  0.00    +0.000 A 
ATOM      3  C   UNL     1      12.134  15.058  19.032  0.00  0.00    +0.000 A 
ATOM      4  C   UNL     1      11.167  14.088  18.912  0.00  0.00    +0.000 A 
ATOM      5  C   UNL     1      11.199  13.512  17.650  0.00  0.00    +0.000 A 
ATOM      6  C   UNL     1      11.014  14.457  16.640  0.00  0.00    +0.000 A 
ATOM      7  C   UNL     1      11.276  11.996  17.548  0.00  0.00    +0.000 C 
ATOM      8  N   UNL     1      10.398  11.183  18.433  0.00  0.00    +0.000 NA
ATOM      9  C   UNL     1      10.792  11.112  19.849  0.00  0.00    +0.000 C 
ATOM     10  C   UNL     1      10.832  12.431  20.586  0.00  0.00    +0.000 C 
ATOM     11  C   UNL     1      10.072  13.532  19.830  0.00  0.00    +0.000 C 
ATOM     12  C   UNL     1       8.899  13.075  18.798  0.00  0.00    +0.000 C 
ATOM     13  C   UNL     1       9.017  11.634  18.350  0.00  0.00    +0.000 C 
ENDROOT
BRANCH   1  20
ATOM     14  O   UNL     1      11.472  18.631  17.562  0.00  0.00    +0.000 OA
ATOM     15  C   UNL     1      10.468  17.992  17.859  0.00  0.00    +0.000 A 
ATOM     16  C   UNL     1       9.559  18.631  18.852  0.00  0.00    +0.000 A 
ATOM     17  C   UNL     1       8.394  18.062  19.159  0.00  0.00    +0.000 A 
ATOM     18  C   UNL     1       8.003  16.838  18.481  0.00  0.00    +0.000 A 
ATOM     19  C   UNL     1       8.850  16.208  17.660  0.00  0.00    +0.000 A 
ATOM     20  N   UNL     1      10.129  16.680  17.401  0.00  0.00    +0.000 N 
ENDBRANCH   1  20
BRANCH  11  21
ATOM     21  C   UNL     1       9.279  14.267  20.923  0.00  0.00    +0.000 A 
ATOM     22  C   UNL     1       7.903  14.257  21.123  0.00  0.00    +0.000 A 
ATOM     23  C   UNL     1       7.338  15.143  22.070  0.00  0.00    +0.000 A 
ATOM     24  C   UNL     1       8.132  16.016  22.830  0.00  0.00    +0.000 A 
ATOM     25 CL   UNL     1       7.420  17.146  23.912  0.00  0.00    +0.000 Cl
ATOM     26  C   UNL     1       9.498  16.023  22.681  0.00  0.00    +0.000 A 
ATOM     27  C   UNL     1      10.042  15.179  21.723  0.00  0.00    +0.000 A 
ENDBRANCH  11  21
TORSDOF 2
ENDMDL
MODEL 8
REMARK VINA RESULT:      -6.5      9.793     12.064
REMARK  Name = 
REMARK  2 active torsions:
REMARK  status: ('A' for Active; 'I' for Inactive)
REMARK    1  A    between atoms: N_7  and  C_8
REMARK    2  A    between atoms: C_18  and  C_19
REMARK                            x       y       z     vdW  Elec       q    Type
REMARK                         _______ _______ _______ _____ _____    ______ ____
ROOT
ATOM      1  C   UNL     1       7.513  15.118  17.853  0.00  0.00    +0.000 A 
ATOM      2  C   UNL     1       8.670  15.810  17.528  0.00  0.00    +0.000 A 
ATOM      3  C   UNL     1       9.765  15.493  18.326  0.00  0.00    +0.000 A 
ATOM      4  C   UNL     1       9.656  14.297  18.995  0.00  0.00    +0.000 A 
ATOM      5  C   UNL     1       9.040  13.340  18.200  0.00  0.00    +0.000 A 
ATOM      6  C   UNL     1       7.769  13.742  17.790  0.00  0.00    +0.000 A 
ATOM      7  C   UNL     1       9.732  11.998  18.017  0.00  0.00    +0.000 C 
ATOM      8  N   UNL     1      10.316  11.334  19.214  0.00  0.00    +0.000 NA
ATOM      9  C   UNL     1      11.567  11.912  19.731  0.00  0.00    +0.000 C 
ATOM     10  C   UNL     1      11.485  13.351  20.187  0.00  0.00    +0.000 C 
ATOM     11  C   UNL     1      10.031  13.803  20.397  0.00  0.00    +0.000 C 
ATOM     12  C   UNL     1       8.917  12.660  20.714  0.00  0.00    +0.000 C 
ATOM     13  C   UNL     1       9.345  11.268  20.296  0.00  0.00    +0.000 C 
ENDROOT
BRANCH   1  20
ATOM     14  O   UNL     1       7.246  17.949  18.448  0.00  0.00    +0.000 OA
ATOM     15  C   UNL     1       6.979  17.093  19.285  0.00  0.00    +0.000 A 
ATOM     16  C   UNL     1       6.904  17.561  20.698  0.00  0.00    +0.000 A 
ATOM     17  C   UNL     1       6.520  16.727  21.663  0.00  0.00    +0.000 A 
ATOM     18  C   UNL     1       6.133  15.371  21.313  0.00  0.00    +0.000 A 
ATOM     19  C   UNL     1       6.285  14.913  20.066  0.00  0.00    +0.000 A 
ATOM     20  N   UNL     1       6.806  15.694  19.043  0.00  0.00    +0.000 N 
ENDBRANCH   1  20
BRANCH  11  21
ATOM     21  C   UNL     1      10.066  14.600  21.711  0.00  0.00    +0.000 A 
ATOM     22  C   UNL     1       9.272  14.411  22.838  0.00  0.00    +0.000 A 
ATOM     23  C   UNL     1       9.323  15.361  23.884  0.00  0.00    +0.000 A 
ATOM     24  C   UNL     1      10.170  16.479  23.826  0.00  0.00    +0.000 A 
ATOM     25 CL   UNL     1      10.154  17.669  25.066  0.00  0.00    +0.000 Cl
ATOM     26  C   UNL     1      10.993  16.673  22.742  0.00  0.00    +0.000 A 
ATOM     27  C   UNL     1      10.910  15.758  21.702  0.00  0.00    +0.000 A 
ENDBRANCH  11  21
TORSDOF 2
ENDMDL
MODEL 9
REMARK VINA RESULT:      -6.5      9.833     11.882
REMARK  Name = 
REMARK  2 active torsions:
REMARK  status: ('A' for Active; 'I' for Inactive)
REMARK    1  A    between atoms: N_7  and  C_8
REMARK    2  A    between atoms: C_18  and  C_19
REMARK                            x       y       z     vdW  Elec       q    Type
REMARK                         _______ _______ _______ _____ _____    ______ ____
ROOT
ATOM      1  C   UNL     1       8.121  16.656  18.302  0.00  0.00    +0.000 A 
ATOM      2  C   UNL     1       9.160  17.276  18.981  0.00  0.00    +0.000 A 
ATOM      3  C   UNL     1       9.918  16.416  19.769  0.00  0.00    +0.000 A 
ATOM      4  C   UNL     1       9.800  15.086  19.438  0.00  0.00    +0.000 A 
ATOM      5  C   UNL     1       9.721  14.925  18.061  0.00  0.00    +0.000 A 
ATOM      6  C   UNL     1       8.642  15.620  17.515  0.00  0.00    +0.000 A 
ATOM      7  C   UNL     1      10.677  13.948  17.392  0.00  0.00    +0.000 C 
ATOM      8  N   UNL     1      10.889  12.619  18.027  0.00  0.00    +0.000 NA
ATOM      9  C   UNL     1      11.721  12.606  19.241  0.00  0.00    +0.000 C 
ATOM     10  C   UNL     1      11.199  13.421  20.403  0.00  0.00    +0.000 C 
ATOM     11  C   UNL     1       9.715  13.777  20.231  0.00  0.00    +0.000 C 
ATOM     12  C   UNL     1       8.805  12.813  19.286  0.00  0.00    +0.000 C 
ATOM     13  C   UNL     1       9.618  11.975  18.321  0.00  0.00    +0.000 C 
ENDROOT
BRANCH   1  20
ATOM     14  O   UNL     1       6.837  18.626  20.008  0.00  0.00    +0.000 OA
ATOM     15  C   UNL     1       6.582  17.430  20.109  0.00  0.00    +0.000 A 
ATOM     16  C   UNL     1       5.912  17.010  21.372  0.00  0.00    +0.000 A 
ATOM     17  C   UNL     1       5.502  15.752  21.529  0.00  0.00    +0.000 A 
ATOM     18  C   UNL     1       5.677  14.809  20.437  0.00  0.00    +0.000 A 
ATOM     19  C   UNL     1       6.359  15.150  19.338  0.00  0.00    +0.000 A 
ATOM     20  N   UNL     1       6.926  16.406  19.171  0.00  0.00    +0.000 N 
ENDBRANCH   1  20
BRANCH  11  21
ATOM     21  C   UNL     1       9.103  13.543  21.622  0.00  0.00    +0.000 A 
ATOM     22  C   UNL     1       9.032  14.446  22.679  0.00  0.00    +0.000 A 
ATOM     23  C   UNL     1       8.596  13.990  23.945  0.00  0.00    +0.000 A 
ATOM     24  C   UNL     1       8.213  12.657  24.159  0.00  0.00    +0.000 A 
ATOM     25 CL   UNL     1       7.770  12.103  25.724  0.00  0.00    +0.000 Cl
ATOM     26  C   UNL     1       8.237  11.752  23.125  0.00  0.00    +0.000 A 
ATOM     27  C   UNL     1       8.702  12.195  21.895  0.00  0.00    +0.000 A 
ENDBRANCH  11  21
TORSDOF 2
ENDMDL
