MODEL 1
REMARK VINA RESULT:      -7.6      0.000      0.000
REMARK  Name = 
REMARK  7 active torsions:
REMARK  status: ('A' for Active; 'I' for Inactive)
REMARK    1  A    between atoms: C_1  and  C_2
REMARK    2  A    between atoms: C_2  and  C_3
REMARK    3  A    between atoms: C_7  and  O_8
REMARK    4  A    between atoms: C_13  and  C_14
REMARK    5  A    between atoms: C_18  and  C_20
REMARK    6  A    between atoms: N_23  and  S_24
REMARK    7  A    between atoms: S_24  and  C_27
REMARK                            x       y       z     vdW  Elec       q    Type
REMARK                         _______ _______ _______ _____ _____    ______ ____
ROOT
ATOM      1  C   UNL     1      11.960  11.947  20.098  0.00  0.00    +0.000 C 
ATOM      2  C   UNL     1      10.659  12.409  19.389  0.00  0.00    +0.000 C 
ATOM      3  C   UNL     1       9.895  11.040  19.235  0.00  0.00    +0.000 C 
ATOM      4  C   UNL     1       9.701  13.356  20.175  0.00  0.00    +0.000 C 
ATOM      5  C   UNL     1      10.573  14.512  20.729  0.00  0.00    +0.000 C 
ATOM      6  C   UNL     1      10.941  15.423  19.591  0.00  0.00    +0.000 A 
ATOM      7  C   UNL     1      10.973  16.819  19.757  0.00  0.00    +0.000 A 
ATOM      8  C   UNL     1      10.974  17.669  18.659  0.00  0.00    +0.000 A 
ATOM      9  C   UNL     1      10.979  17.134  17.377  0.00  0.00    +0.000 A 
ATOM     10  C   UNL     1      11.059  15.750  17.199  0.00  0.00    +0.000 A 
ATOM     11  C   UNL     1      11.050  14.857  18.297  0.00  0.00    +0.000 A 
ATOM     12  C   UNL     1      10.972  13.288  18.068  0.00  0.00    +0.000 C 
ATOM     13  C   UNL     1      12.319  12.934  17.405  0.00  0.00    +0.000 C 
ATOM     14  C   UNL     1       9.765  13.019  17.144  0.00  0.00    +0.000 C 
ATOM     15  C   UNL     1       8.434  13.219  17.898  0.00  0.00    +0.000 C 
ATOM     16  N   UNL     1       8.570  13.858  19.234  0.00  0.00    +0.000 N 
ATOM     17  C   UNL     1       7.738  14.910  19.653  0.00  0.00    +0.000 C 
ATOM     18  O   UNL     1       7.764  15.310  20.820  0.00  0.00    +0.000 OA
ENDROOT
BRANCH  17  19
ATOM     19  C   UNL     1       6.750  15.515  18.633  0.00  0.00    +0.000 C 
ATOM     20  C   UNL     1       6.447  17.003  18.801  0.00  0.00    +0.000 C 
ATOM     21  C   UNL     1       5.196  17.051  19.649  0.00  0.00    +0.000 C 
ATOM     22  N   UNL     1       4.390  15.927  19.157  0.00  0.00    +0.000 NA
ATOM     23  C   UNL     1       5.345  14.884  18.648  0.00  0.00    +0.000 C 
BRANCH  22  24
ATOM     24  S   UNL     1       3.057  16.324  18.185  0.00  0.00    +0.000 S 
ATOM     25  O   UNL     1       2.628  17.664  18.549  0.00  0.00    +0.000 OA
ATOM     26  O   UNL     1       3.371  15.959  16.819  0.00  0.00    +0.000 OA
BRANCH  24  27
ATOM     27  C   UNL     1       1.814  15.170  18.737  0.00  0.00    +0.000 A 
ATOM     28  C   UNL     1       0.676  15.612  19.413  0.00  0.00    +0.000 A 
ATOM     29  C   UNL     1      -0.342  14.703  19.707  0.00  0.00    +0.000 A 
ATOM     30  C   UNL     1      -0.213  13.363  19.331  0.00  0.00    +0.000 A 
ATOM     31  C   UNL     1       0.932  12.935  18.663  0.00  0.00    +0.000 A 
ATOM     32  C   UNL     1       1.953  13.829  18.365  0.00  0.00    +0.000 A 
ENDBRANCH  24  27
ENDBRANCH  22  24
ENDBRANCH  17  19
BRANCH   7  33
ATOM     33  O   UNL     1      10.923  17.438  20.973  0.00  0.00    +0.000 OA
ATOM     34  H   UNL     1      10.050  17.306  21.372  0.00  0.00    +0.000 HD
ENDBRANCH   7  33
TORSDOF 4
ENDMDL
MODEL 2
REMARK VINA RESULT:      -7.3      0.905      1.148
REMARK  Name = 
REMARK  7 active torsions:
REMARK  status: ('A' for Active; 'I' for Inactive)
REMARK    1  A    between atoms: C_1  and  C_2
REMARK    2  A    between atoms: C_2  and  C_3
REMARK    3  A    between atoms: C_7  and  O_8
REMARK    4  A    between atoms: C_13  and  C_14
REMARK    5  A    between atoms: C_18  and  C_20
REMARK    6  A    between atoms: N_23  and  S_24
REMARK    7  A    between atoms: S_24  and  C_27
REMARK                            x       y       z     vdW  Elec       q    Type
REMARK                         _______ _______ _______ _____ _____    ______ ____
ROOT
ATOM      1  C   UNL     1      12.333  12.069  19.905  0.00  0.00    +0.000 C 
ATOM      2  C   UNL     1      10.937  12.528  19.405  0.00  0.00    +0.000 C 
ATOM      3  C   UNL     1      10.141  11.170  19.438  0.00  0.00    +0.000 C 
ATOM      4  C   UNL     1      10.137  13.523  20.302  0.00  0.00    +0.000 C 
ATOM      5  C   UNL     1      11.104  14.683  20.654  0.00  0.00    +0.000 C 
ATOM      6  C   UNL     1      11.287  15.542  19.433  0.00  0.00    +0.000 A 
ATOM      7  C   UNL     1      11.363  16.943  19.535  0.00  0.00    +0.000 A 
ATOM      8  C   UNL     1      11.191  17.750  18.418  0.00  0.00    +0.000 A 
ATOM      9  C   UNL     1      10.973  17.166  17.177  0.00  0.00    +0.000 A 
ATOM     10  C   UNL     1      11.004  15.775  17.045  0.00  0.00    +0.000 A 
ATOM     11  C   UNL     1      11.169  14.925  18.164  0.00  0.00    +0.000 A 
ATOM     12  C   UNL     1      11.034  13.350  18.016  0.00  0.00    +0.000 C 
ATOM     13  C   UNL     1      12.246  12.946  17.151  0.00  0.00    +0.000 C 
ATOM     14  C   UNL     1       9.685  13.069  17.320  0.00  0.00    +0.000 C 
ATOM     15  C   UNL     1       8.503  13.324  18.277  0.00  0.00    +0.000 C 
ATOM     16  N   UNL     1       8.870  14.011  19.544  0.00  0.00    +0.000 N 
ATOM     17  C   UNL     1       8.134  15.093  20.053  0.00  0.00    +0.000 C 
ATOM     18  O   UNL     1       8.361  15.538  21.182  0.00  0.00    +0.000 OA
ENDROOT
BRANCH  17  19
ATOM     19  C   UNL     1       6.996  15.678  19.189  0.00  0.00    +0.000 C 
ATOM     20  C   UNL     1       6.844  17.198  19.227  0.00  0.00    +0.000 C 
ATOM     21  C   UNL     1       5.811  17.459  20.300  0.00  0.00    +0.000 C 
ATOM     22  N   UNL     1       4.840  16.372  20.129  0.00  0.00    +0.000 NA
ATOM     23  C   UNL     1       5.585  15.192  19.571  0.00  0.00    +0.000 C 
BRANCH  22  24
ATOM     24  S   UNL     1       3.361  16.789  19.409  0.00  0.00    +0.000 S 
ATOM     25  O   UNL     1       2.709  17.762  20.270  0.00  0.00    +0.000 OA
ATOM     26  O   UNL     1       3.600  17.041  18.003  0.00  0.00    +0.000 OA
BRANCH  24  27
ATOM     27  C   UNL     1       2.442  15.263  19.495  0.00  0.00    +0.000 A 
ATOM     28  C   UNL     1       2.282  14.458  18.366  0.00  0.00    +0.000 A 
ATOM     29  C   UNL     1       1.679  13.206  18.497  0.00  0.00    +0.000 A 
ATOM     30  C   UNL     1       1.235  12.771  19.749  0.00  0.00    +0.000 A 
ATOM     31  C   UNL     1       1.395  13.589  20.866  0.00  0.00    +0.000 A 
ATOM     32  C   UNL     1       1.993  14.838  20.749  0.00  0.00    +0.000 A 
ENDBRANCH  24  27
ENDBRANCH  22  24
ENDBRANCH  17  19
BRANCH   7  33
ATOM     33  O   UNL     1      11.527  17.609  20.716  0.00  0.00    +0.000 OA
ATOM     34  H   UNL     1      11.775  16.983  21.413  0.00  0.00    +0.000 HD
ENDBRANCH   7  33
TORSDOF 4
ENDMDL
MODEL 3
REMARK VINA RESULT:      -7.3      3.358     10.632
REMARK  Name = 
REMARK  7 active torsions:
REMARK  status: ('A' for Active; 'I' for Inactive)
REMARK    1  A    between atoms: C_1  and  C_2
REMARK    2  A    between atoms: C_2  and  C_3
REMARK    3  A    between atoms: C_7  and  O_8
REMARK    4  A    between atoms: C_13  and  C_14
REMARK    5  A    between atoms: C_18  and  C_20
REMARK    6  A    between atoms: N_23  and  S_24
REMARK    7  A    between atoms: S_24  and  C_27
REMARK                            x       y       z     vdW  Elec       q    Type
REMARK                         _______ _______ _______ _____ _____    ______ ____
ROOT
ATOM      1  C   UNL     1      -3.913  12.685  24.156  0.00  0.00    +0.000 C 
ATOM      2  C   UNL     1      -3.242  13.709  23.203  0.00  0.00    +0.000 C 
ATOM      3  C   UNL     1      -3.704  15.070  23.846  0.00  0.00    +0.000 C 
ATOM      4  C   UNL     1      -1.683  13.752  23.165  0.00  0.00    +0.000 C 
ATOM      5  C   UNL     1      -1.201  12.290  22.976  0.00  0.00    +0.000 C 
ATOM      6  C   UNL     1      -1.471  11.876  21.556  0.00  0.00    +0.000 A 
ATOM      7  C   UNL     1      -0.554  11.085  20.843  0.00  0.00    +0.000 A 
ATOM      8  C   UNL     1      -0.623  10.984  19.459  0.00  0.00    +0.000 A 
ATOM      9  C   UNL     1      -1.632  11.647  18.772  0.00  0.00    +0.000 A 
ATOM     10  C   UNL     1      -2.614  12.347  19.479  0.00  0.00    +0.000 A 
ATOM     11  C   UNL     1      -2.567  12.475  20.888  0.00  0.00    +0.000 A 
ATOM     12  C   UNL     1      -3.595  13.411  21.653  0.00  0.00    +0.000 C 
ATOM     13  C   UNL     1      -4.958  12.715  21.461  0.00  0.00    +0.000 C 
ATOM     14  C   UNL     1      -3.537  14.801  20.982  0.00  0.00    +0.000 C 
ATOM     15  C   UNL     1      -2.229  15.535  21.340  0.00  0.00    +0.000 C 
ATOM     16  N   UNL     1      -1.211  14.690  22.020  0.00  0.00    +0.000 N 
ATOM     17  C   UNL     1       0.141  14.690  21.639  0.00  0.00    +0.000 C 
ATOM     18  O   UNL     1       0.990  14.107  22.320  0.00  0.00    +0.000 OA
ENDROOT
BRANCH  17  19
ATOM     19  C   UNL     1       0.550  15.485  20.381  0.00  0.00    +0.000 C 
ATOM     20  C   UNL     1       0.431  14.737  19.053  0.00  0.00    +0.000 C 
ATOM     21  C   UNL     1       1.805  14.153  18.812  0.00  0.00    +0.000 C 
ATOM     22  N   UNL     1       2.723  15.200  19.279  0.00  0.00    +0.000 NA
ATOM     23  C   UNL     1       2.016  15.959  20.367  0.00  0.00    +0.000 C 
BRANCH  22  24
ATOM     24  S   UNL     1       3.520  16.095  18.078  0.00  0.00    +0.000 S 
ATOM     25  O   UNL     1       3.286  15.433  16.805  0.00  0.00    +0.000 OA
ATOM     26  O   UNL     1       3.218  17.496  18.285  0.00  0.00    +0.000 OA
BRANCH  24  27
ATOM     27  C   UNL     1       5.237  15.884  18.510  0.00  0.00    +0.000 A 
ATOM     28  C   UNL     1       5.999  14.862  17.943  0.00  0.00    +0.000 A 
ATOM     29  C   UNL     1       7.371  14.810  18.194  0.00  0.00    +0.000 A 
ATOM     30  C   UNL     1       7.970  15.773  19.012  0.00  0.00    +0.000 A 
ATOM     31  C   UNL     1       7.195  16.785  19.577  0.00  0.00    +0.000 A 
ATOM     32  C   UNL     1       5.828  16.847  19.336  0.00  0.00    +0.000 A 
ENDBRANCH  24  27
ENDBRANCH  22  24
ENDBRANCH  17  19
BRANCH   7  33
ATOM     33  O   UNL     1       0.498  10.435  21.423  0.00  0.00    +0.000 OA
ATOM     34  H   UNL     1       0.173   9.679  21.936  0.00  0.00    +0.000 HD
ENDBRANCH   7  33
TORSDOF 4
ENDMDL
MODEL 4
REMARK VINA RESULT:      -7.0      4.551      7.721
REMARK  Name = 
REMARK  7 active torsions:
REMARK  status: ('A' for Active; 'I' for Inactive)
REMARK    1  A    between atoms: C_1  and  C_2
REMARK    2  A    between atoms: C_2  and  C_3
REMARK    3  A    between atoms: C_7  and  O_8
REMARK    4  A    between atoms: C_13  and  C_14
REMARK    5  A    between atoms: C_18  and  C_20
REMARK    6  A    between atoms: N_23  and  S_24
REMARK    7  A    between atoms: S_24  and  C_27
REMARK                            x       y       z     vdW  Elec       q    Type
REMARK                         _______ _______ _______ _____ _____    ______ ____
ROOT
ATOM      1  C   UNL     1       4.995  12.956  26.871  0.00  0.00    +0.000 C 
ATOM      2  C   UNL     1       6.042  12.722  25.750  0.00  0.00    +0.000 C 
ATOM      3  C   UNL     1       5.878  11.176  25.499  0.00  0.00    +0.000 C 
ATOM      4  C   UNL     1       5.799  13.414  24.373  0.00  0.00    +0.000 C 
ATOM      5  C   UNL     1       5.503  14.908  24.672  0.00  0.00    +0.000 C 
ATOM      6  C   UNL     1       6.789  15.582  25.063  0.00  0.00    +0.000 A 
ATOM      7  C   UNL     1       7.085  16.887  24.634  0.00  0.00    +0.000 A 
ATOM      8  C   UNL     1       8.381  17.383  24.698  0.00  0.00    +0.000 A 
ATOM      9  C   UNL     1       9.394  16.591  25.223  0.00  0.00    +0.000 A 
ATOM     10  C   UNL     1       9.092  15.333  25.753  0.00  0.00    +0.000 A 
ATOM     11  C   UNL     1       7.783  14.797  25.696  0.00  0.00    +0.000 A 
ATOM     12  C   UNL     1       7.497  13.303  26.152  0.00  0.00    +0.000 C 
ATOM     13  C   UNL     1       7.749  13.316  27.674  0.00  0.00    +0.000 C 
ATOM     14  C   UNL     1       8.486  12.394  25.392  0.00  0.00    +0.000 C 
ATOM     15  C   UNL     1       8.097  12.272  23.904  0.00  0.00    +0.000 C 
ATOM     16  N   UNL     1       7.042  13.222  23.461  0.00  0.00    +0.000 N 
ATOM     17  C   UNL     1       7.150  13.965  22.274  0.00  0.00    +0.000 C 
ATOM     18  O   UNL     1       6.194  14.620  21.848  0.00  0.00    +0.000 OA
ENDROOT
BRANCH  17  19
ATOM     19  C   UNL     1       8.475  13.898  21.484  0.00  0.00    +0.000 C 
ATOM     20  C   UNL     1       9.607  14.781  22.005  0.00  0.00    +0.000 C 
ATOM     21  C   UNL     1       9.499  16.062  21.208  0.00  0.00    +0.000 C 
ATOM     22  N   UNL     1       9.138  15.611  19.859  0.00  0.00    +0.000 NA
ATOM     23  C   UNL     1       8.367  14.330  20.009  0.00  0.00    +0.000 C 
BRANCH  22  24
ATOM     24  S   UNL     1      10.369  15.663  18.693  0.00  0.00    +0.000 S 
ATOM     25  O   UNL     1       9.749  15.947  17.408  0.00  0.00    +0.000 OA
ATOM     26  O   UNL     1      11.455  16.463  19.219  0.00  0.00    +0.000 OA
BRANCH  24  27
ATOM     27  C   UNL     1      10.955  13.979  18.669  0.00  0.00    +0.000 A 
ATOM     28  C   UNL     1      11.792  13.496  19.676  0.00  0.00    +0.000 A 
ATOM     29  C   UNL     1      12.119  12.140  19.704  0.00  0.00    +0.000 A 
ATOM     30  C   UNL     1      11.614  11.278  18.726  0.00  0.00    +0.000 A 
ATOM     31  C   UNL     1      10.785  11.775  17.722  0.00  0.00    +0.000 A 
ATOM     32  C   UNL     1      10.453  13.123  17.682  0.00  0.00    +0.000 A 
ENDBRANCH  24  27
ENDBRANCH  22  24
ENDBRANCH  17  19
BRANCH   7  33
ATOM     33  O   UNL     1       6.169  17.723  24.061  0.00  0.00    +0.000 OA
ATOM     34  H   UNL     1       5.510  17.987  24.721  0.00  0.00    +0.000 HD
ENDBRANCH   7  33
TORSDOF 4
ENDMDL
MODEL 5
REMARK VINA RESULT:      -6.8      8.463     12.170
REMARK  Name = 
REMARK  7 active torsions:
REMARK  status: ('A' for Active; 'I' for Inactive)
REMARK    1  A    between atoms: C_1  and  C_2
REMARK    2  A    between atoms: C_2  and  C_3
REMARK    3  A    between atoms: C_7  and  O_8
REMARK    4  A    between atoms: C_13  and  C_14
REMARK    5  A    between atoms: C_18  and  C_20
REMARK    6  A    between atoms: N_23  and  S_24
REMARK    7  A    between atoms: S_24  and  C_27
REMARK                            x       y       z     vdW  Elec       q    Type
REMARK                         _______ _______ _______ _____ _____    ______ ____
ROOT
ATOM      1  C   UNL     1      -3.875  17.584  25.430  0.00  0.00    +0.000 C 
ATOM      2  C   UNL     1      -3.019  17.236  24.183  0.00  0.00    +0.000 C 
ATOM      3  C   UNL     1      -1.994  18.431  24.176  0.00  0.00    +0.000 C 
ATOM      4  C   UNL     1      -2.166  15.931  24.229  0.00  0.00    +0.000 C 
ATOM      5  C   UNL     1      -3.115  14.795  24.691  0.00  0.00    +0.000 C 
ATOM      6  C   UNL     1      -4.036  14.447  23.555  0.00  0.00    +0.000 A 
ATOM      7  C   UNL     1      -4.394  13.114  23.291  0.00  0.00    +0.000 A 
ATOM      8  C   UNL     1      -4.952  12.752  22.071  0.00  0.00    +0.000 A 
ATOM      9  C   UNL     1      -5.190  13.726  21.110  0.00  0.00    +0.000 A 
ATOM     10  C   UNL     1      -4.939  15.070  21.402  0.00  0.00    +0.000 A 
ATOM     11  C   UNL     1      -4.365  15.469  22.632  0.00  0.00    +0.000 A 
ATOM     12  C   UNL     1      -3.935  16.979  22.875  0.00  0.00    +0.000 C 
ATOM     13  C   UNL     1      -5.269  17.753  22.903  0.00  0.00    +0.000 C 
ATOM     14  C   UNL     1      -3.029  17.394  21.696  0.00  0.00    +0.000 C 
ATOM     15  C   UNL     1      -1.642  16.728  21.800  0.00  0.00    +0.000 C 
ATOM     16  N   UNL     1      -1.545  15.660  22.831  0.00  0.00    +0.000 N 
ATOM     17  C   UNL     1      -0.945  14.416  22.570  0.00  0.00    +0.000 C 
ATOM     18  O   UNL     1      -0.732  13.613  23.483  0.00  0.00    +0.000 OA
ENDROOT
BRANCH  17  19
ATOM     19  C   UNL     1      -0.506  14.102  21.124  0.00  0.00    +0.000 C 
ATOM     20  C   UNL     1      -1.635  13.876  20.120  0.00  0.00    +0.000 C 
ATOM     21  C   UNL     1      -1.847  12.378  20.104  0.00  0.00    +0.000 C 
ATOM     22  N   UNL     1      -0.491  11.827  20.208  0.00  0.00    +0.000 NA
ATOM     23  C   UNL     1       0.337  12.821  20.972  0.00  0.00    +0.000 C 
BRANCH  22  24
ATOM     24  S   UNL     1       0.168  11.172  18.788  0.00  0.00    +0.000 S 
ATOM     25  O   UNL     1      -0.929  10.919  17.868  0.00  0.00    +0.000 OA
ATOM     26  O   UNL     1       1.318  11.969  18.416  0.00  0.00    +0.000 OA
BRANCH  24  27
ATOM     27  C   UNL     1       0.806   9.602  19.342  0.00  0.00    +0.000 A 
ATOM     28  C   UNL     1       1.648   8.843  18.528  0.00  0.00    +0.000 A 
ATOM     29  C   UNL     1       2.241   7.689  19.043  0.00  0.00    +0.000 A 
ATOM     30  C   UNL     1       1.986   7.299  20.360  0.00  0.00    +0.000 A 
ATOM     31  C   UNL     1       1.137   8.063  21.160  0.00  0.00    +0.000 A 
ATOM     32  C   UNL     1       0.539   9.213  20.659  0.00  0.00    +0.000 A 
ENDBRANCH  24  27
ENDBRANCH  22  24
ENDBRANCH  17  19
BRANCH   7  33
ATOM     33  O   UNL     1      -4.158  12.081  24.153  0.00  0.00    +0.000 OA
ATOM     34  H   UNL     1      -4.942  11.926  24.701  0.00  0.00    +0.000 HD
ENDBRANCH   7  33
TORSDOF 4
ENDMDL
MODEL 6
REMARK VINA RESULT:      -6.6      4.232      6.817
REMARK  Name = 
REMARK  7 active torsions:
REMARK  status: ('A' for Active; 'I' for Inactive)
REMARK    1  A    between atoms: C_1  and  C_2
REMARK    2  A    between atoms: C_2  and  C_3
REMARK    3  A    between atoms: C_7  and  O_8
REMARK    4  A    between atoms: C_13  and  C_14
REMARK    5  A    between atoms: C_18  and  C_20
REMARK    6  A    between atoms: N_23  and  S_24
REMARK    7  A    between atoms: S_24  and  C_27
REMARK                            x       y       z     vdW  Elec       q    Type
REMARK                         _______ _______ _______ _____ _____    ______ ____
ROOT
ATOM      1  C   UNL     1       9.971  16.894  17.081  0.00  0.00    +0.000 C 
ATOM      2  C   UNL     1       9.802  16.629  18.601  0.00  0.00    +0.000 C 
ATOM      3  C   UNL     1       9.598  18.092  19.144  0.00  0.00    +0.000 C 
ATOM      4  C   UNL     1       8.553  15.815  19.062  0.00  0.00    +0.000 C 
ATOM      5  C   UNL     1       8.502  14.540  18.179  0.00  0.00    +0.000 C 
ATOM      6  C   UNL     1       9.588  13.602  18.629  0.00  0.00    +0.000 A 
ATOM      7  C   UNL     1       9.372  12.213  18.681  0.00  0.00    +0.000 A 
ATOM      8  C   UNL     1      10.225  11.386  19.401  0.00  0.00    +0.000 A 
ATOM      9  C   UNL     1      11.325  11.932  20.050  0.00  0.00    +0.000 A 
ATOM     10  C   UNL     1      11.611  13.293  19.914  0.00  0.00    +0.000 A 
ATOM     11  C   UNL     1      10.758  14.164  19.195  0.00  0.00    +0.000 A 
ATOM     12  C   UNL     1      11.010  15.731  19.194  0.00  0.00    +0.000 C 
ATOM     13  C   UNL     1      12.333  15.901  18.419  0.00  0.00    +0.000 C 
ATOM     14  C   UNL     1      11.121  16.179  20.667  0.00  0.00    +0.000 C 
ATOM     15  C   UNL     1       9.743  16.157  21.359  0.00  0.00    +0.000 C 
ATOM     16  N   UNL     1       8.669  15.489  20.577  0.00  0.00    +0.000 N 
ATOM     17  C   UNL     1       7.788  14.558  21.153  0.00  0.00    +0.000 C 
ATOM     18  O   UNL     1       6.808  14.143  20.527  0.00  0.00    +0.000 OA
ENDROOT
BRANCH  17  19
ATOM     19  C   UNL     1       8.041  14.111  22.608  0.00  0.00    +0.000 C 
ATOM     20  C   UNL     1       8.373  12.633  22.802  0.00  0.00    +0.000 C 
ATOM     21  C   UNL     1       7.047  11.972  23.106  0.00  0.00    +0.000 C 
ATOM     22  N   UNL     1       6.350  12.948  23.952  0.00  0.00    +0.000 NA
ATOM     23  C   UNL     1       6.846  14.312  23.560  0.00  0.00    +0.000 C 
BRANCH  22  24
ATOM     24  S   UNL     1       6.259  12.584  25.606  0.00  0.00    +0.000 S 
ATOM     25  O   UNL     1       4.886  12.800  26.032  0.00  0.00    +0.000 OA
ATOM     26  O   UNL     1       6.947  11.329  25.829  0.00  0.00    +0.000 OA
BRANCH  24  27
ATOM     27  C   UNL     1       7.278  13.849  26.341  0.00  0.00    +0.000 A 
ATOM     28  C   UNL     1       6.705  14.962  26.960  0.00  0.00    +0.000 A 
ATOM     29  C   UNL     1       7.523  15.861  27.646  0.00  0.00    +0.000 A 
ATOM     30  C   UNL     1       8.903  15.647  27.705  0.00  0.00    +0.000 A 
ATOM     31  C   UNL     1       9.462  14.535  27.077  0.00  0.00    +0.000 A 
ATOM     32  C   UNL     1       8.659  13.633  26.389  0.00  0.00    +0.000 A 
ENDBRANCH  24  27
ENDBRANCH  22  24
ENDBRANCH  17  19
BRANCH   7  33
ATOM     33  O   UNL     1       8.296  11.591  18.116  0.00  0.00    +0.000 OA
ATOM     34  H   UNL     1       8.244  11.818  17.175  0.00  0.00    +0.000 HD
ENDBRANCH   7  33
TORSDOF 4
ENDMDL
MODEL 7
REMARK VINA RESULT:      -6.6      1.051      1.376
REMARK  Name = 
REMARK  7 active torsions:
REMARK  status: ('A' for Active; 'I' for Inactive)
REMARK    1  A    between atoms: C_1  and  C_2
REMARK    2  A    between atoms: C_2  and  C_3
REMARK    3  A    between atoms: C_7  and  O_8
REMARK    4  A    between atoms: C_13  and  C_14
REMARK    5  A    between atoms: C_18  and  C_20
REMARK    6  A    between atoms: N_23  and  S_24
REMARK    7  A    between atoms: S_24  and  C_27
REMARK                            x       y       z     vdW  Elec       q    Type
REMARK                         _______ _______ _______ _____ _____    ______ ____
ROOT
ATOM      1  C   UNL     1      11.413  11.234  19.654  0.00  0.00    +0.000 C 
ATOM      2  C   UNL     1      10.205  12.043  19.112  0.00  0.00    +0.000 C 
ATOM      3  C   UNL     1       9.347  10.901  18.449  0.00  0.00    +0.000 C 
ATOM      4  C   UNL     1       9.273  12.740  20.151  0.00  0.00    +0.000 C 
ATOM      5  C   UNL     1      10.194  13.532  21.115  0.00  0.00    +0.000 C 
ATOM      6  C   UNL     1      10.710  14.747  20.394  0.00  0.00    +0.000 A 
ATOM      7  C   UNL     1      10.841  15.982  21.052  0.00  0.00    +0.000 A 
ATOM      8  C   UNL     1      10.985  17.162  20.333  0.00  0.00    +0.000 A 
ATOM      9  C   UNL     1      11.036  17.119  18.946  0.00  0.00    +0.000 A 
ATOM     10  C   UNL     1      11.017  15.887  18.285  0.00  0.00    +0.000 A 
ATOM     11  C   UNL     1      10.863  14.668  18.988  0.00  0.00    +0.000 A 
ATOM     12  C   UNL     1      10.677  13.298  18.208  0.00  0.00    +0.000 C 
ATOM     13  C   UNL     1      12.034  13.072  17.511  0.00  0.00    +0.000 C 
ATOM     14  C   UNL     1       9.518  13.494  17.206  0.00  0.00    +0.000 C 
ATOM     15  C   UNL     1       8.159  13.545  17.933  0.00  0.00    +0.000 C 
ATOM     16  N   UNL     1       8.253  13.651  19.414  0.00  0.00    +0.000 N 
ATOM     17  C   UNL     1       7.480  14.563  20.153  0.00  0.00    +0.000 C 
ATOM     18  O   UNL     1       7.457  14.519  21.386  0.00  0.00    +0.000 OA
ENDROOT
BRANCH  17  19
ATOM     19  C   UNL     1       6.616  15.585  19.383  0.00  0.00    +0.000 C 
ATOM     20  C   UNL     1       6.591  17.001  19.956  0.00  0.00    +0.000 C 
ATOM     21  C   UNL     1       5.373  17.037  20.852  0.00  0.00    +0.000 C 
ATOM     22  N   UNL     1       4.373  16.248  20.123  0.00  0.00    +0.000 NA
ATOM     23  C   UNL     1       5.119  15.230  19.305  0.00  0.00    +0.000 C 
BRANCH  22  24
ATOM     24  S   UNL     1       3.132  17.119  19.363  0.00  0.00    +0.000 S 
ATOM     25  O   UNL     1       2.976  18.378  20.074  0.00  0.00    +0.000 OA
ATOM     26  O   UNL     1       3.353  17.064  17.933  0.00  0.00    +0.000 OA
BRANCH  24  27
ATOM     27  C   UNL     1       1.695  16.114  19.686  0.00  0.00    +0.000 A 
ATOM     28  C   UNL     1       1.047  15.436  18.652  0.00  0.00    +0.000 A 
ATOM     29  C   UNL     1       0.013  14.549  18.956  0.00  0.00    +0.000 A 
ATOM     30  C   UNL     1      -0.369  14.350  20.286  0.00  0.00    +0.000 A 
ATOM     31  C   UNL     1       0.283  15.038  21.308  0.00  0.00    +0.000 A 
ATOM     32  C   UNL     1       1.312  15.925  21.018  0.00  0.00    +0.000 A 
ENDBRANCH  24  27
ENDBRANCH  22  24
ENDBRANCH  17  19
BRANCH   7  33
ATOM     33  O   UNL     1      10.757  16.132  22.407  0.00  0.00    +0.000 OA
ATOM     34  H   UNL     1      11.065  15.323  22.845  0.00  0.00    +0.000 HD
ENDBRANCH   7  33
TORSDOF 4
ENDMDL
MODEL 8
REMARK VINA RESULT:      -6.6      2.556      8.769
REMARK  Name = 
REMARK  7 active torsions:
REMARK  status: ('A' for Active; 'I' for Inactive)
REMARK    1  A    between atoms: C_1  and  C_2
REMARK    2  A    between atoms: C_2  and  C_3
REMARK    3  A    between atoms: C_7  and  O_8
REMARK    4  A    between atoms: C_13  and  C_14
REMARK    5  A    between atoms: C_18  and  C_20
REMARK    6  A    between atoms: N_23  and  S_24
REMARK    7  A    between atoms: S_24  and  C_27
REMARK                            x       y       z     vdW  Elec       q    Type
REMARK                         _______ _______ _______ _____ _____    ______ ____
ROOT
ATOM      1  C   UNL     1      -1.534  15.152  20.769  0.00  0.00    +0.000 C 
ATOM      2  C   UNL     1      -0.160  15.612  21.325  0.00  0.00    +0.000 C 
ATOM      3  C   UNL     1      -0.543  15.992  22.804  0.00  0.00    +0.000 C 
ATOM      4  C   UNL     1       0.974  14.546  21.429  0.00  0.00    +0.000 C 
ATOM      5  C   UNL     1       1.046  13.835  20.052  0.00  0.00    +0.000 C 
ATOM      6  C   UNL     1       1.678  14.773  19.061  0.00  0.00    +0.000 A 
ATOM      7  C   UNL     1       2.581  14.304  18.091  0.00  0.00    +0.000 A 
ATOM      8  C   UNL     1       3.415  15.181  17.409  0.00  0.00    +0.000 A 
ATOM      9  C   UNL     1       3.333  16.544  17.663  0.00  0.00    +0.000 A 
ATOM     10  C   UNL     1       2.364  17.032  18.545  0.00  0.00    +0.000 A 
ATOM     11  C   UNL     1       1.506  16.164  19.261  0.00  0.00    +0.000 A 
ATOM     12  C   UNL     1       0.530  16.728  20.380  0.00  0.00    +0.000 C 
ATOM     13  C   UNL     1      -0.491  17.580  19.597  0.00  0.00    +0.000 C 
ATOM     14  C   UNL     1       1.384  17.567  21.354  0.00  0.00    +0.000 C 
ATOM     15  C   UNL     1       2.267  16.663  22.238  0.00  0.00    +0.000 C 
ATOM     16  N   UNL     1       2.311  15.238  21.815  0.00  0.00    +0.000 N 
ATOM     17  C   UNL     1       3.514  14.517  21.724  0.00  0.00    +0.000 C 
ATOM     18  O   UNL     1       3.508  13.298  21.530  0.00  0.00    +0.000 OA
ENDROOT
BRANCH  17  19
ATOM     19  C   UNL     1       4.842  15.277  21.929  0.00  0.00    +0.000 C 
ATOM     20  C   UNL     1       5.255  16.214  20.796  0.00  0.00    +0.000 C 
ATOM     21  C   UNL     1       6.167  15.385  19.919  0.00  0.00    +0.000 C 
ATOM     22  N   UNL     1       6.943  14.584  20.872  0.00  0.00    +0.000 NA
ATOM     23  C   UNL     1       6.081  14.375  22.085  0.00  0.00    +0.000 C 
BRANCH  22  24
ATOM     24  S   UNL     1       8.554  15.055  21.117  0.00  0.00    +0.000 S 
ATOM     25  O   UNL     1       8.769  16.293  20.384  0.00  0.00    +0.000 OA
ATOM     26  O   UNL     1       8.849  14.935  22.530  0.00  0.00    +0.000 OA
BRANCH  24  27
ATOM     27  C   UNL     1       9.469  13.759  20.303  0.00  0.00    +0.000 A 
ATOM     28  C   UNL     1      10.404  12.993  21.002  0.00  0.00    +0.000 A 
ATOM     29  C   UNL     1      10.999  11.898  20.375  0.00  0.00    +0.000 A 
ATOM     30  C   UNL     1      10.663  11.579  19.056  0.00  0.00    +0.000 A 
ATOM     31  C   UNL     1       9.732  12.356  18.368  0.00  0.00    +0.000 A 
ATOM     32  C   UNL     1       9.133  13.450  18.981  0.00  0.00    +0.000 A 
ENDBRANCH  24  27
ENDBRANCH  22  24
ENDBRANCH  17  19
BRANCH   7  33
ATOM     33  O   UNL     1       2.767  12.982  17.804  0.00  0.00    +0.000 OA
ATOM     34  H   UNL     1       3.608  12.681  18.180  0.00  0.00    +0.000 HD
ENDBRANCH   7  33
TORSDOF 4
ENDMDL
MODEL 9
REMARK VINA RESULT:      -6.5      4.168     11.083
REMARK  Name = 
REMARK  7 active torsions:
REMARK  status: ('A' for Active; 'I' for Inactive)
REMARK    1  A    between atoms: C_1  and  C_2
REMARK    2  A    between atoms: C_2  and  C_3
REMARK    3  A    between atoms: C_7  and  O_8
REMARK    4  A    between atoms: C_13  and  C_14
REMARK    5  A    between atoms: C_18  and  C_20
REMARK    6  A    between atoms: N_23  and  S_24
REMARK    7  A    between atoms: S_24  and  C_27
REMARK                            x       y       z     vdW  Elec       q    Type
REMARK                         _______ _______ _______ _____ _____    ______ ____
ROOT
ATOM      1  C   UNL     1      -5.040  13.041  24.081  0.00  0.00    +0.000 C 
ATOM      2  C   UNL     1      -4.287  14.020  23.140  0.00  0.00    +0.000 C 
ATOM      3  C   UNL     1      -4.980  15.385  23.505  0.00  0.00    +0.000 C 
ATOM      4  C   UNL     1      -2.760  14.228  23.382  0.00  0.00    +0.000 C 
ATOM      5  C   UNL     1      -2.127  12.815  23.476  0.00  0.00    +0.000 C 
ATOM      6  C   UNL     1      -2.079  12.218  22.097  0.00  0.00    +0.000 A 
ATOM      7  C   UNL     1      -0.977  11.457  21.672  0.00  0.00    +0.000 A 
ATOM      8  C   UNL     1      -0.767  11.194  20.324  0.00  0.00    +0.000 A 
ATOM      9  C   UNL     1      -1.677  11.662  19.384  0.00  0.00    +0.000 A 
ATOM     10  C   UNL     1      -2.834  12.325  19.804  0.00  0.00    +0.000 A 
ATOM     11  C   UNL     1      -3.072  12.614  21.168  0.00  0.00    +0.000 A 
ATOM     12  C   UNL     1      -4.306  13.513  21.604  0.00  0.00    +0.000 C 
ATOM     13  C   UNL     1      -5.541  12.655  21.260  0.00  0.00    +0.000 C 
ATOM     14  C   UNL     1      -4.239  14.817  20.780  0.00  0.00    +0.000 C 
ATOM     15  C   UNL     1      -3.093  15.725  21.270  0.00  0.00    +0.000 C 
ATOM     16  N   UNL     1      -2.157  15.077  22.228  0.00  0.00    +0.000 N 
ATOM     17  C   UNL     1      -0.762  15.183  22.104  0.00  0.00    +0.000 C 
ATOM     18  O   UNL     1      -0.014  14.776  22.998  0.00  0.00    +0.000 OA
ENDROOT
BRANCH  17  19
ATOM     19  C   UNL     1      -0.187  15.871  20.847  0.00  0.00    +0.000 C 
ATOM     20  C   UNL     1      -0.256  15.061  19.554  0.00  0.00    +0.000 C 
ATOM     21  C   UNL     1       1.081  14.360  19.462  0.00  0.00    +0.000 C 
ATOM     22  N   UNL     1       2.039  15.357  19.955  0.00  0.00    +0.000 NA
ATOM     23  C   UNL     1       1.309  16.229  20.938  0.00  0.00    +0.000 C 
BRANCH  22  24
ATOM     24  S   UNL     1       3.003  16.119  18.785  0.00  0.00    +0.000 S 
ATOM     25  O   UNL     1       2.995  15.285  17.594  0.00  0.00    +0.000 OA
ATOM     26  O   UNL     1       2.643  17.521  18.747  0.00  0.00    +0.000 OA
BRANCH  24  27
ATOM     27  C   UNL     1       4.631  16.040  19.510  0.00  0.00    +0.000 A 
ATOM     28  C   UNL     1       5.510  17.120  19.416  0.00  0.00    +0.000 A 
ATOM     29  C   UNL     1       6.720  17.080  20.111  0.00  0.00    +0.000 A 
ATOM     30  C   UNL     1       7.044  15.965  20.888  0.00  0.00    +0.000 A 
ATOM     31  C   UNL     1       6.159  14.891  20.967  0.00  0.00    +0.000 A 
ATOM     32  C   UNL     1       4.953  14.917  20.278  0.00  0.00    +0.000 A 
ENDBRANCH  24  27
ENDBRANCH  22  24
ENDBRANCH  17  19
BRANCH   7  33
ATOM     33  O   UNL     1      -0.005  10.995  22.513  0.00  0.00    +0.000 OA
ATOM     34  H   UNL     1       0.825  11.465  22.343  0.00  0.00    +0.000 HD
ENDBRANCH   7  33
TORSDOF 4
ENDMDL
