MODEL 1
REMARK VINA RESULT:      -5.8      0.000      0.000
REMARK  Name = 
REMARK  3 active torsions:
REMARK  status: ('A' for Active; 'I' for Inactive)
REMARK    1  A    between atoms: C_2  and  C_3
REMARK    2  A    between atoms: N_14  and  C_15
REMARK    3  A    between atoms: C_15  and  C_16
REMARK                            x       y       z     vdW  Elec       q    Type
REMARK                         _______ _______ _______ _____ _____    ______ ____
ROOT
ATOM      1  O   UNL     1       1.937   5.715  21.059  0.00  0.00    +0.000 OA
ATOM      2  C   UNL     1       2.210   6.386  20.065  0.00  0.00    +0.000 C 
ATOM      3  N   UNL     1       1.824   7.727  19.955  0.00  0.00    +0.000 N 
ATOM      4  C   UNL     1       1.999   8.546  18.756  0.00  0.00    +0.000 C 
ATOM      5  C   UNL     1       0.713   9.274  18.401  0.00  0.00    +0.000 C 
ATOM      6  C   UNL     1       0.161  10.127  19.565  0.00  0.00    +0.000 C 
ATOM      7  C   UNL     1       1.105  11.307  19.911  0.00  0.00    +0.000 C 
ATOM      8  C   UNL     1       1.147  12.374  18.808  0.00  0.00    +0.000 C 
ATOM      9  N   UNL     1      -0.177  12.891  18.434  0.00  0.00    +0.000 NA
ATOM     10  C   UNL     1      -1.080  11.787  18.070  0.00  0.00    +0.000 C 
ATOM     11  C   UNL     1      -1.213  10.710  19.156  0.00  0.00    +0.000 C 
ATOM     12  C   UNL     1      -0.009   9.186  20.784  0.00  0.00    +0.000 C 
ATOM     13  C   UNL     1       1.271   8.412  21.124  0.00  0.00    +0.000 C 
ENDROOT
BRANCH   2  14
ATOM     14  C   UNL     1       2.904   5.757  18.938  0.00  0.00    +0.000 A 
ATOM     15  C   UNL     1       4.251   5.947  18.673  0.00  0.00    +0.000 A 
ATOM     16  S   UNL     1       4.662   4.970  17.329  0.00  0.00    +0.000 S 
ATOM     17  N   UNL     1       3.095   4.428  17.122  0.00  0.00    +0.000 NA
ATOM     18  N   UNL     1       2.255   4.946  18.002  0.00  0.00    +0.000 NA
ENDBRANCH   2  14
BRANCH   9  19
ATOM     19  C   UNL     1      -0.719  13.765  19.500  0.00  0.00    +0.000 C 
BRANCH  19  20
ATOM     20  C   UNL     1      -0.131  15.153  19.521  0.00  0.00    +0.000 A 
ATOM     21  N   UNL     1      -0.264  16.023  18.537  0.00  0.00    +0.000 NA
ATOM     22  C   UNL     1       0.414  17.182  18.845  0.00  0.00    +0.000 A 
ATOM     23  C   UNL     1       1.030  17.199  20.078  0.00  0.00    +0.000 A 
ATOM     24  S   UNL     1       0.777  15.704  20.875  0.00  0.00    +0.000 S 
ENDBRANCH  19  20
ENDBRANCH   9  19
TORSDOF 3
ENDMDL
MODEL 2
REMARK VINA RESULT:      -5.7      3.506      8.535
REMARK  Name = 
REMARK  3 active torsions:
REMARK  status: ('A' for Active; 'I' for Inactive)
REMARK    1  A    between atoms: C_2  and  C_3
REMARK    2  A    between atoms: N_14  and  C_15
REMARK    3  A    between atoms: C_15  and  C_16
REMARK                            x       y       z     vdW  Elec       q    Type
REMARK                         _______ _______ _______ _____ _____    ______ ____
ROOT
ATOM      1  O   UNL     1       0.444  11.015  18.889  0.00  0.00    +0.000 OA
ATOM      2  C   UNL     1       0.711  10.209  19.778  0.00  0.00    +0.000 C 
ATOM      3  N   UNL     1       1.470   9.060  19.525  0.00  0.00    +0.000 N 
ATOM      4  C   UNL     1       1.717   7.997  20.498  0.00  0.00    +0.000 C 
ATOM      5  C   UNL     1       1.438   6.630  19.894  0.00  0.00    +0.000 C 
ATOM      6  C   UNL     1       2.231   6.371  18.594  0.00  0.00    +0.000 C 
ATOM      7  C   UNL     1       3.756   6.293  18.857  0.00  0.00    +0.000 C 
ATOM      8  C   UNL     1       4.155   5.043  19.655  0.00  0.00    +0.000 C 
ATOM      9  N   UNL     1       3.690   3.784  19.055  0.00  0.00    +0.000 NA
ATOM     10  C   UNL     1       2.237   3.826  18.826  0.00  0.00    +0.000 C 
ATOM     11  C   UNL     1       1.775   5.024  17.984  0.00  0.00    +0.000 C 
ATOM     12  C   UNL     1       1.903   7.528  17.617  0.00  0.00    +0.000 C 
ATOM     13  C   UNL     1       2.138   8.913  18.231  0.00  0.00    +0.000 C 
ENDROOT
BRANCH   2  14
ATOM     14  C   UNL     1       0.177  10.418  21.127  0.00  0.00    +0.000 A 
ATOM     15  C   UNL     1      -0.967  11.155  21.387  0.00  0.00    +0.000 A 
ATOM     16  S   UNL     1      -1.272  11.071  23.069  0.00  0.00    +0.000 S 
ATOM     17  N   UNL     1       0.103  10.172  23.371  0.00  0.00    +0.000 NA
ATOM     18  N   UNL     1       0.805   9.929  22.277  0.00  0.00    +0.000 NA
ENDBRANCH   2  14
BRANCH   9  19
ATOM     19  C   UNL     1       4.467   3.467  17.834  0.00  0.00    +0.000 C 
BRANCH  19  20
ATOM     20  C   UNL     1       5.671   4.350  17.621  0.00  0.00    +0.000 A 
ATOM     21  N   UNL     1       6.716   4.376  18.426  0.00  0.00    +0.000 NA
ATOM     22  C   UNL     1       7.628   5.306  17.977  0.00  0.00    +0.000 A 
ATOM     23  C   UNL     1       7.285   5.957  16.811  0.00  0.00    +0.000 A 
ATOM     24  S   UNL     1       5.756   5.408  16.266  0.00  0.00    +0.000 S 
ENDBRANCH  19  20
ENDBRANCH   9  19
TORSDOF 3
ENDMDL
MODEL 3
REMARK VINA RESULT:      -5.6      1.133      1.246
REMARK  Name = 
REMARK  3 active torsions:
REMARK  status: ('A' for Active; 'I' for Inactive)
REMARK    1  A    between atoms: C_2  and  C_3
REMARK    2  A    between atoms: N_14  and  C_15
REMARK    3  A    between atoms: C_15  and  C_16
REMARK                            x       y       z     vdW  Elec       q    Type
REMARK                         _______ _______ _______ _____ _____    ______ ____
ROOT
ATOM      1  O   UNL     1       1.816   5.550  21.106  0.00  0.00    +0.000 OA
ATOM      2  C   UNL     1       2.209   6.292  20.208  0.00  0.00    +0.000 C 
ATOM      3  N   UNL     1       1.804   7.630  20.129  0.00  0.00    +0.000 N 
ATOM      4  C   UNL     1       2.126   8.531  19.024  0.00  0.00    +0.000 C 
ATOM      5  C   UNL     1       0.883   9.255  18.532  0.00  0.00    +0.000 C 
ATOM      6  C   UNL     1       0.144  10.015  19.654  0.00  0.00    +0.000 C 
ATOM      7  C   UNL     1       0.991  11.188  20.210  0.00  0.00    +0.000 C 
ATOM      8  C   UNL     1       1.160  12.328  19.196  0.00  0.00    +0.000 C 
ATOM      9  N   UNL     1      -0.111  12.843  18.666  0.00  0.00    +0.000 NA
ATOM     10  C   UNL     1      -0.918  11.748  18.104  0.00  0.00    +0.000 C 
ATOM     11  C   UNL     1      -1.174  10.597  19.088  0.00  0.00    +0.000 C 
ATOM     12  C   UNL     1      -0.172   8.991  20.773  0.00  0.00    +0.000 C 
ATOM     13  C   UNL     1       1.067   8.222  21.246  0.00  0.00    +0.000 C 
ENDROOT
BRANCH   2  14
ATOM     14  C   UNL     1       3.078   5.756  19.157  0.00  0.00    +0.000 A 
ATOM     15  C   UNL     1       2.598   5.122  18.022  0.00  0.00    +0.000 A 
ATOM     16  S   UNL     1       3.940   4.735  17.032  0.00  0.00    +0.000 S 
ATOM     17  N   UNL     1       5.047   5.324  18.136  0.00  0.00    +0.000 NA
ATOM     18  N   UNL     1       4.474   5.795  19.231  0.00  0.00    +0.000 NA
ENDBRANCH   2  14
BRANCH   9  19
ATOM     19  C   UNL     1      -0.827  13.631  19.696  0.00  0.00    +0.000 C 
BRANCH  19  20
ATOM     20  C   UNL     1      -0.225  14.987  19.966  0.00  0.00    +0.000 A 
ATOM     21  N   UNL     1       0.307  15.338  21.122  0.00  0.00    +0.000 NA
ATOM     22  C   UNL     1       0.738  16.645  21.059  0.00  0.00    +0.000 A 
ATOM     23  C   UNL     1       0.561  17.269  19.842  0.00  0.00    +0.000 A 
ATOM     24  S   UNL     1      -0.193  16.195  18.741  0.00  0.00    +0.000 S 
ENDBRANCH  19  20
ENDBRANCH   9  19
TORSDOF 3
ENDMDL
MODEL 4
REMARK VINA RESULT:      -5.3      5.065      7.462
REMARK  Name = 
REMARK  3 active torsions:
REMARK  status: ('A' for Active; 'I' for Inactive)
REMARK    1  A    between atoms: C_2  and  C_3
REMARK    2  A    between atoms: N_14  and  C_15
REMARK    3  A    between atoms: C_15  and  C_16
REMARK                            x       y       z     vdW  Elec       q    Type
REMARK                         _______ _______ _______ _____ _____    ______ ____
ROOT
ATOM      1  O   UNL     1      -5.500  10.598  18.089  0.00  0.00    +0.000 OA
ATOM      2  C   UNL     1      -5.096  11.475  18.851  0.00  0.00    +0.000 C 
ATOM      3  N   UNL     1      -3.771  11.927  18.814  0.00  0.00    +0.000 N 
ATOM      4  C   UNL     1      -3.187  12.869  19.769  0.00  0.00    +0.000 C 
ATOM      5  C   UNL     1      -1.857  12.356  20.295  0.00  0.00    +0.000 C 
ATOM      6  C   UNL     1      -0.849  12.028  19.172  0.00  0.00    +0.000 C 
ATOM      7  C   UNL     1      -0.413  13.301  18.401  0.00  0.00    +0.000 C 
ATOM      8  C   UNL     1       0.450  14.242  19.254  0.00  0.00    +0.000 C 
ATOM      9  N   UNL     1       1.628  13.592  19.845  0.00  0.00    +0.000 NA
ATOM     10  C   UNL     1       1.232  12.398  20.608  0.00  0.00    +0.000 C 
ATOM     11  C   UNL     1       0.412  11.385  19.796  0.00  0.00    +0.000 C 
ATOM     12  C   UNL     1      -1.536  11.019  18.217  0.00  0.00    +0.000 C 
ATOM     13  C   UNL     1      -2.900  11.506  17.715  0.00  0.00    +0.000 C 
ENDROOT
BRANCH   2  14
ATOM     14  C   UNL     1      -6.000  12.024  19.865  0.00  0.00    +0.000 A 
ATOM     15  C   UNL     1      -6.832  13.108  19.635  0.00  0.00    +0.000 A 
ATOM     16  S   UNL     1      -7.767  13.357  21.048  0.00  0.00    +0.000 S 
ATOM     17  N   UNL     1      -7.006  12.128  21.885  0.00  0.00    +0.000 NA
ATOM     18  N   UNL     1      -6.066  11.531  21.172  0.00  0.00    +0.000 NA
ENDBRANCH   2  14
BRANCH   9  19
ATOM     19  C   UNL     1       2.648  13.313  18.807  0.00  0.00    +0.000 C 
BRANCH  19  20
ATOM     20  C   UNL     1       3.808  14.276  18.806  0.00  0.00    +0.000 A 
ATOM     21  N   UNL     1       4.727  14.320  17.859  0.00  0.00    +0.000 NA
ATOM     22  C   UNL     1       5.666  15.281  18.164  0.00  0.00    +0.000 A 
ATOM     23  C   UNL     1       5.435  15.987  19.326  0.00  0.00    +0.000 A 
ATOM     24  S   UNL     1       4.007  15.416  20.080  0.00  0.00    +0.000 S 
ENDBRANCH  19  20
ENDBRANCH   9  19
TORSDOF 3
ENDMDL
MODEL 5
REMARK VINA RESULT:      -5.2      1.150      1.171
REMARK  Name = 
REMARK  3 active torsions:
REMARK  status: ('A' for Active; 'I' for Inactive)
REMARK    1  A    between atoms: C_2  and  C_3
REMARK    2  A    between atoms: N_14  and  C_15
REMARK    3  A    between atoms: C_15  and  C_16
REMARK                            x       y       z     vdW  Elec       q    Type
REMARK                         _______ _______ _______ _____ _____    ______ ____
ROOT
ATOM      1  O   UNL     1       2.614   5.731  20.244  0.00  0.00    +0.000 OA
ATOM      2  C   UNL     1       2.788   6.538  19.333  0.00  0.00    +0.000 C 
ATOM      3  N   UNL     1       2.217   7.816  19.365  0.00  0.00    +0.000 N 
ATOM      4  C   UNL     1       2.273   8.779  18.266  0.00  0.00    +0.000 C 
ATOM      5  C   UNL     1       0.897   9.353  17.974  0.00  0.00    +0.000 C 
ATOM      6  C   UNL     1       0.232   9.986  19.215  0.00  0.00    +0.000 C 
ATOM      7  C   UNL     1       0.999  11.242  19.703  0.00  0.00    +0.000 C 
ATOM      8  C   UNL     1       0.889  12.419  18.723  0.00  0.00    +0.000 C 
ATOM      9  N   UNL     1      -0.495  12.784  18.389  0.00  0.00    +0.000 NA
ATOM     10  C   UNL     1      -1.234  11.610  17.894  0.00  0.00    +0.000 C 
ATOM     11  C   UNL     1      -1.211  10.412  18.854  0.00  0.00    +0.000 C 
ATOM     12  C   UNL     1       0.198   8.902  20.322  0.00  0.00    +0.000 C 
ATOM     13  C   UNL     1       1.574   8.283  20.594  0.00  0.00    +0.000 C 
ENDROOT
BRANCH   2  14
ATOM     14  C   UNL     1       3.563   6.142  18.155  0.00  0.00    +0.000 A 
ATOM     15  C   UNL     1       3.560   4.856  17.638  0.00  0.00    +0.000 A 
ATOM     16  S   UNL     1       4.526   4.858  16.225  0.00  0.00    +0.000 S 
ATOM     17  N   UNL     1       4.947   6.465  16.399  0.00  0.00    +0.000 NA
ATOM     18  N   UNL     1       4.414   7.019  17.474  0.00  0.00    +0.000 NA
ENDBRANCH   2  14
BRANCH   9  19
ATOM     19  C   UNL     1      -1.154  13.449  19.537  0.00  0.00    +0.000 C 
BRANCH  19  20
ATOM     20  C   UNL     1      -0.702  14.869  19.770  0.00  0.00    +0.000 A 
ATOM     21  N   UNL     1      -0.216  15.651  18.824  0.00  0.00    +0.000 NA
ATOM     22  C   UNL     1       0.133  16.871  19.362  0.00  0.00    +0.000 A 
ATOM     23  C   UNL     1      -0.123  17.020  20.708  0.00  0.00    +0.000 A 
ATOM     24  S   UNL     1      -0.802  15.578  21.335  0.00  0.00    +0.000 S 
ENDBRANCH  19  20
ENDBRANCH   9  19
TORSDOF 3
ENDMDL
MODEL 6
REMARK VINA RESULT:      -5.2      4.559      6.353
REMARK  Name = 
REMARK  3 active torsions:
REMARK  status: ('A' for Active; 'I' for Inactive)
REMARK    1  A    between atoms: C_2  and  C_3
REMARK    2  A    between atoms: N_14  and  C_15
REMARK    3  A    between atoms: C_15  and  C_16
REMARK                            x       y       z     vdW  Elec       q    Type
REMARK                         _______ _______ _______ _____ _____    ______ ____
ROOT
ATOM      1  O   UNL     1      -0.907  10.657  20.685  0.00  0.00    +0.000 OA
ATOM      2  C   UNL     1      -0.673  11.288  19.656  0.00  0.00    +0.000 C 
ATOM      3  N   UNL     1       0.334  12.260  19.603  0.00  0.00    +0.000 N 
ATOM      4  C   UNL     1       0.584  13.136  18.459  0.00  0.00    +0.000 C 
ATOM      5  C   UNL     1       0.710  14.585  18.901  0.00  0.00    +0.000 C 
ATOM      6  C   UNL     1       1.787  14.792  19.988  0.00  0.00    +0.000 C 
ATOM      7  C   UNL     1       3.212  14.502  19.450  0.00  0.00    +0.000 C 
ATOM      8  C   UNL     1       3.679  15.544  18.423  0.00  0.00    +0.000 C 
ATOM      9  N   UNL     1       3.606  16.929  18.908  0.00  0.00    +0.000 NA
ATOM     10  C   UNL     1       2.250  17.235  19.396  0.00  0.00    +0.000 C 
ATOM     11  C   UNL     1       1.743  16.262  20.469  0.00  0.00    +0.000 C 
ATOM     12  C   UNL     1       1.443  13.844  21.164  0.00  0.00    +0.000 C 
ATOM     13  C   UNL     1       1.269  12.386  20.723  0.00  0.00    +0.000 C 
ENDROOT
BRANCH   2  14
ATOM     14  C   UNL     1      -1.501  11.067  18.468  0.00  0.00    +0.000 A 
ATOM     15  C   UNL     1      -1.224  10.098  17.517  0.00  0.00    +0.000 A 
ATOM     16  S   UNL     1      -2.483  10.130  16.357  0.00  0.00    +0.000 S 
ATOM     17  N   UNL     1      -3.257  11.416  17.090  0.00  0.00    +0.000 NA
ATOM     18  N   UNL     1      -2.622  11.848  18.166  0.00  0.00    +0.000 NA
ENDBRANCH   2  14
BRANCH   9  19
ATOM     19  C   UNL     1       4.663  17.189  19.913  0.00  0.00    +0.000 C 
BRANCH  19  20
ATOM     20  C   UNL     1       6.053  16.829  19.454  0.00  0.00    +0.000 A 
ATOM     21  N   UNL     1       6.756  17.551  18.602  0.00  0.00    +0.000 NA
ATOM     22  C   UNL     1       7.968  16.941  18.362  0.00  0.00    +0.000 A 
ATOM     23  C   UNL     1       8.193  15.775  19.062  0.00  0.00    +0.000 A 
ATOM     24  S   UNL     1       6.833  15.411  20.038  0.00  0.00    +0.000 S 
ENDBRANCH  19  20
ENDBRANCH   9  19
TORSDOF 3
ENDMDL
MODEL 7
REMARK VINA RESULT:      -5.0      5.500      8.022
REMARK  Name = 
REMARK  3 active torsions:
REMARK  status: ('A' for Active; 'I' for Inactive)
REMARK    1  A    between atoms: C_2  and  C_3
REMARK    2  A    between atoms: N_14  and  C_15
REMARK    3  A    between atoms: C_15  and  C_16
REMARK                            x       y       z     vdW  Elec       q    Type
REMARK                         _______ _______ _______ _____ _____    ______ ____
ROOT
ATOM      1  O   UNL     1      -4.355  12.045  24.635  0.00  0.00    +0.000 OA
ATOM      2  C   UNL     1      -4.492  12.512  23.505  0.00  0.00    +0.000 C 
ATOM      3  N   UNL     1      -3.419  12.594  22.609  0.00  0.00    +0.000 N 
ATOM      4  C   UNL     1      -3.475  13.251  21.304  0.00  0.00    +0.000 C 
ATOM      5  C   UNL     1      -2.296  14.191  21.116  0.00  0.00    +0.000 C 
ATOM      6  C   UNL     1      -0.932  13.494  21.314  0.00  0.00    +0.000 C 
ATOM      7  C   UNL     1      -0.665  12.430  20.218  0.00  0.00    +0.000 C 
ATOM      8  C   UNL     1      -0.436  13.053  18.833  0.00  0.00    +0.000 C 
ATOM      9  N   UNL     1       0.626  14.068  18.808  0.00  0.00    +0.000 NA
ATOM     10  C   UNL     1       0.374  15.106  19.822  0.00  0.00    +0.000 C 
ATOM     11  C   UNL     1       0.193  14.554  21.243  0.00  0.00    +0.000 C 
ATOM     12  C   UNL     1      -0.949  12.840  22.718  0.00  0.00    +0.000 C 
ATOM     13  C   UNL     1      -2.159  11.924  22.936  0.00  0.00    +0.000 C 
ENDROOT
BRANCH   2  14
ATOM     14  C   UNL     1      -5.792  13.052  23.099  0.00  0.00    +0.000 A 
ATOM     15  C   UNL     1      -6.226  14.325  23.433  0.00  0.00    +0.000 A 
ATOM     16  S   UNL     1      -7.748  14.570  22.689  0.00  0.00    +0.000 S 
ATOM     17  N   UNL     1      -7.796  13.024  22.056  0.00  0.00    +0.000 NA
ATOM     18  N   UNL     1      -6.731  12.308  22.377  0.00  0.00    +0.000 NA
ENDBRANCH   2  14
BRANCH   9  19
ATOM     19  C   UNL     1       1.959  13.435  18.936  0.00  0.00    +0.000 C 
BRANCH  19  20
ATOM     20  C   UNL     1       3.102  14.414  19.034  0.00  0.00    +0.000 A 
ATOM     21  N   UNL     1       3.837  14.580  20.117  0.00  0.00    +0.000 NA
ATOM     22  C   UNL     1       4.774  15.566  19.898  0.00  0.00    +0.000 A 
ATOM     23  C   UNL     1       4.768  16.120  18.636  0.00  0.00    +0.000 A 
ATOM     24  S   UNL     1       3.531  15.402  17.692  0.00  0.00    +0.000 S 
ENDBRANCH  19  20
ENDBRANCH   9  19
TORSDOF 3
ENDMDL
MODEL 8
REMARK VINA RESULT:      -5.0      7.452      8.849
REMARK  Name = 
REMARK  3 active torsions:
REMARK  status: ('A' for Active; 'I' for Inactive)
REMARK    1  A    between atoms: C_2  and  C_3
REMARK    2  A    between atoms: N_14  and  C_15
REMARK    3  A    between atoms: C_15  and  C_16
REMARK                            x       y       z     vdW  Elec       q    Type
REMARK                         _______ _______ _______ _____ _____    ______ ____
ROOT
ATOM      1  O   UNL     1      11.149  16.489  19.546  0.00  0.00    +0.000 OA
ATOM      2  C   UNL     1      10.363  15.718  19.000  0.00  0.00    +0.000 C 
ATOM      3  N   UNL     1       8.986  15.970  18.971  0.00  0.00    +0.000 N 
ATOM      4  C   UNL     1       7.982  15.042  18.456  0.00  0.00    +0.000 C 
ATOM      5  C   UNL     1       6.834  14.880  19.439  0.00  0.00    +0.000 C 
ATOM      6  C   UNL     1       6.180  16.224  19.829  0.00  0.00    +0.000 C 
ATOM      7  C   UNL     1       5.470  16.890  18.623  0.00  0.00    +0.000 C 
ATOM      8  C   UNL     1       4.221  16.117  18.172  0.00  0.00    +0.000 C 
ATOM      9  N   UNL     1       3.250  15.880  19.250  0.00  0.00    +0.000 NA
ATOM     10  C   UNL     1       3.899  15.219  20.394  0.00  0.00    +0.000 C 
ATOM     11  C   UNL     1       5.125  15.971  20.932  0.00  0.00    +0.000 C 
ATOM     12  C   UNL     1       7.303  17.140  20.376  0.00  0.00    +0.000 C 
ATOM     13  C   UNL     1       8.487  17.274  19.411  0.00  0.00    +0.000 C 
ENDROOT
BRANCH   2  14
ATOM     14  C   UNL     1      10.863  14.472  18.412  0.00  0.00    +0.000 A 
ATOM     15  C   UNL     1      11.075  13.316  19.146  0.00  0.00    +0.000 A 
ATOM     16  S   UNL     1      11.576  12.092  18.059  0.00  0.00    +0.000 S 
ATOM     17  N   UNL     1      11.566  13.122  16.744  0.00  0.00    +0.000 NA
ATOM     18  N   UNL     1      11.217  14.356  17.064  0.00  0.00    +0.000 NA
ENDBRANCH   2  14
BRANCH   9  19
ATOM     19  C   UNL     1       2.556  17.137  19.615  0.00  0.00    +0.000 C 
BRANCH  19  20
ATOM     20  C   UNL     1       1.458  17.536  18.662  0.00  0.00    +0.000 A 
ATOM     21  N   UNL     1       1.641  18.318  17.615  0.00  0.00    +0.000 NA
ATOM     22  C   UNL     1       0.442  18.519  16.967  0.00  0.00    +0.000 A 
ATOM     23  C   UNL     1      -0.641  17.858  17.507  0.00  0.00    +0.000 A 
ATOM     24  S   UNL     1      -0.152  16.972  18.889  0.00  0.00    +0.000 S 
ENDBRANCH  19  20
ENDBRANCH   9  19
TORSDOF 3
ENDMDL
MODEL 9
REMARK VINA RESULT:      -5.0      2.600      8.691
REMARK  Name = 
REMARK  3 active torsions:
REMARK  status: ('A' for Active; 'I' for Inactive)
REMARK    1  A    between atoms: C_2  and  C_3
REMARK    2  A    between atoms: N_14  and  C_15
REMARK    3  A    between atoms: C_15  and  C_16
REMARK                            x       y       z     vdW  Elec       q    Type
REMARK                         _______ _______ _______ _____ _____    ______ ____
ROOT
ATOM      1  O   UNL     1      -1.782  13.943  20.477  0.00  0.00    +0.000 OA
ATOM      2  C   UNL     1      -0.578  13.699  20.435  0.00  0.00    +0.000 C 
ATOM      3  N   UNL     1      -0.089  12.500  19.902  0.00  0.00    +0.000 N 
ATOM      4  C   UNL     1       1.313  12.087  19.935  0.00  0.00    +0.000 C 
ATOM      5  C   UNL     1       1.448  10.658  20.436  0.00  0.00    +0.000 C 
ATOM      6  C   UNL     1       0.605   9.651  19.623  0.00  0.00    +0.000 C 
ATOM      7  C   UNL     1       1.112   9.522  18.164  0.00  0.00    +0.000 C 
ATOM      8  C   UNL     1       2.485   8.840  18.074  0.00  0.00    +0.000 C 
ATOM      9  N   UNL     1       2.539   7.528  18.736  0.00  0.00    +0.000 NA
ATOM     10  C   UNL     1       2.091   7.636  20.134  0.00  0.00    +0.000 C 
ATOM     11  C   UNL     1       0.697   8.259  20.292  0.00  0.00    +0.000 C 
ATOM     12  C   UNL     1      -0.861  10.152  19.650  0.00  0.00    +0.000 C 
ATOM     13  C   UNL     1      -1.004  11.607  19.189  0.00  0.00    +0.000 C 
ENDROOT
BRANCH   2  14
ATOM     14  C   UNL     1       0.374  14.655  21.007  0.00  0.00    +0.000 A 
ATOM     15  C   UNL     1       0.869  15.746  20.311  0.00  0.00    +0.000 A 
ATOM     16  S   UNL     1       1.873  16.634  21.375  0.00  0.00    +0.000 S 
ATOM     17  N   UNL     1       1.678  15.542  22.625  0.00  0.00    +0.000 NA
ATOM     18  N   UNL     1       0.903  14.523  22.295  0.00  0.00    +0.000 NA
ENDBRANCH   2  14
BRANCH   9  19
ATOM     19  C   UNL     1       1.790   6.516  17.955  0.00  0.00    +0.000 C 
BRANCH  19  20
ATOM     20  C   UNL     1       2.400   5.137  17.984  0.00  0.00    +0.000 A 
ATOM     21  N   UNL     1       1.742   4.050  18.340  0.00  0.00    +0.000 NA
ATOM     22  C   UNL     1       2.584   2.960  18.293  0.00  0.00    +0.000 A 
ATOM     23  C   UNL     1       3.869   3.221  17.867  0.00  0.00    +0.000 A 
ATOM     24  S   UNL     1       4.043   4.893  17.536  0.00  0.00    +0.000 S 
ENDBRANCH  19  20
ENDBRANCH   9  19
TORSDOF 3
ENDMDL
