MODEL 1
REMARK VINA RESULT:      -7.2      0.000      0.000
REMARK  Name = 
REMARK  6 active torsions:
REMARK  status: ('A' for Active; 'I' for Inactive)
REMARK    1  A    between atoms: C_1  and  C_2
REMARK    2  A    between atoms: C_2  and  C_3
REMARK    3  A    between atoms: CA_4  and  C_5
REMARK    4  A    between atoms: CA_11  and  N_12
REMARK    5  A    between atoms: C_13  and  C_15
REMARK    6  A    between atoms: C_15  and  C_16
REMARK                            x       y       z     vdW  Elec       q    Type
REMARK                         _______ _______ _______ _____ _____    ______ ____
ROOT
ATOM      1  C   UNL     1       4.603   2.365  19.023  0.00  0.00    +0.000 C 
ATOM      2  C   UNL     1       3.219   3.057  19.128  0.00  0.00    +0.000 C 
ATOM      3  C   UNL     1       2.222   1.943  19.450  0.00  0.00    +0.000 C 
ATOM      4  CA  UNL     1       3.267   4.224  20.124  0.00  0.00    +0.000 C 
ATOM      5  N   UNL     1       3.893   5.354  19.416  0.00  0.00    +0.000 N 
ATOM      6  C   UNL     1       5.231   5.471  19.251  0.00  0.00    +0.000 C 
ATOM      7  O   UNL     1       6.111   5.111  20.011  0.00  0.00    +0.000 OA
ATOM      8  CA  UNL     1       5.077   5.817  17.743  0.00  0.00    +0.000 C 
ATOM      9  C   UNL     1       3.566   5.517  17.960  0.00  0.00    +0.000 C 
ATOM     10  S   UNL     1       2.838   3.901  17.559  0.00  0.00    +0.000 S 
ATOM     11  O   UNL     1       3.616   3.238  16.518  0.00  0.00    +0.000 OA
ATOM     12  O   UNL     1       1.398   3.995  17.398  0.00  0.00    +0.000 OA
ENDROOT
BRANCH   8  13
ATOM     13  N   UNL     1       5.886   4.950  16.848  0.00  0.00    +0.000 N 
ATOM     14  C   UNL     1       6.146   5.304  15.542  0.00  0.00    +0.000 C 
ATOM     15  O   UNL     1       5.789   6.383  15.078  0.00  0.00    +0.000 OA
ATOM     16  H   UNL     1       6.307   4.092  17.186  0.00  0.00    +0.000 HD
BRANCH  14  17
ATOM     17  C   UNL     1       6.912   4.257  14.748  0.00  0.00    +0.000 C 
BRANCH  17  18
ATOM     18  C   UNL     1       6.218   3.833  13.475  0.00  0.00    +0.000 A 
ATOM     19  C   UNL     1       6.949   3.342  12.382  0.00  0.00    +0.000 A 
ATOM     20  C   UNL     1       6.294   2.896  11.231  0.00  0.00    +0.000 A 
ATOM     21  C   UNL     1       4.903   2.935  11.158  0.00  0.00    +0.000 A 
ATOM     22  C   UNL     1       4.166   3.421  12.235  0.00  0.00    +0.000 A 
ATOM     23  C   UNL     1       4.819   3.866  13.387  0.00  0.00    +0.000 A 
ENDBRANCH  17  18
ENDBRANCH  14  17
ENDBRANCH   8  13
BRANCH   4  24
ATOM     24  C   UNL     1       1.923   4.603  20.782  0.00  0.00    +0.000 C 
ATOM     25  O   UNL     1       1.553   3.743  21.632  0.00  0.00    +0.000 OA
ATOM     26  OXT UNL     1       1.471   5.728  20.479  0.00  0.00    +0.000 OA
ENDBRANCH   4  24
TORSDOF 4
ENDMDL
MODEL 2
REMARK VINA RESULT:      -7.1      0.328      1.173
REMARK  Name = 
REMARK  6 active torsions:
REMARK  status: ('A' for Active; 'I' for Inactive)
REMARK    1  A    between atoms: C_1  and  C_2
REMARK    2  A    between atoms: C_2  and  C_3
REMARK    3  A    between atoms: CA_4  and  C_5
REMARK    4  A    between atoms: CA_11  and  N_12
REMARK    5  A    between atoms: C_13  and  C_15
REMARK    6  A    between atoms: C_15  and  C_16
REMARK                            x       y       z     vdW  Elec       q    Type
REMARK                         _______ _______ _______ _____ _____    ______ ____
ROOT
ATOM      1  C   UNL     1       4.467   2.515  19.037  0.00  0.00    +0.000 C 
ATOM      2  C   UNL     1       3.065   3.174  19.104  0.00  0.00    +0.000 C 
ATOM      3  C   UNL     1       2.099   2.057  19.497  0.00  0.00    +0.000 C 
ATOM      4  CA  UNL     1       3.083   4.402  20.025  0.00  0.00    +0.000 C 
ATOM      5  N   UNL     1       3.677   5.503  19.247  0.00  0.00    +0.000 N 
ATOM      6  C   UNL     1       5.011   5.644  19.071  0.00  0.00    +0.000 C 
ATOM      7  O   UNL     1       5.902   5.356  19.850  0.00  0.00    +0.000 OA
ATOM      8  CA  UNL     1       4.846   5.893  17.545  0.00  0.00    +0.000 C 
ATOM      9  C   UNL     1       3.344   5.567  17.784  0.00  0.00    +0.000 C 
ATOM     10  S   UNL     1       2.660   3.909  17.486  0.00  0.00    +0.000 S 
ATOM     11  O   UNL     1       3.453   3.204  16.486  0.00  0.00    +0.000 OA
ATOM     12  O   UNL     1       1.217   3.955  17.325  0.00  0.00    +0.000 OA
ENDROOT
BRANCH   8  13
ATOM     13  N   UNL     1       5.676   4.993  16.703  0.00  0.00    +0.000 N 
ATOM     14  C   UNL     1       6.006   5.320  15.405  0.00  0.00    +0.000 C 
ATOM     15  O   UNL     1       5.695   6.399  14.909  0.00  0.00    +0.000 OA
ATOM     16  H   UNL     1       6.063   4.133  17.073  0.00  0.00    +0.000 HD
BRANCH  14  17
ATOM     17  C   UNL     1       6.785   4.245  14.664  0.00  0.00    +0.000 C 
BRANCH  17  18
ATOM     18  C   UNL     1       6.065   3.698  13.455  0.00  0.00    +0.000 A 
ATOM     19  C   UNL     1       4.713   3.996  13.222  0.00  0.00    +0.000 A 
ATOM     20  C   UNL     1       4.071   3.535  12.070  0.00  0.00    +0.000 A 
ATOM     21  C   UNL     1       4.771   2.772  11.137  0.00  0.00    +0.000 A 
ATOM     22  C   UNL     1       6.113   2.468  11.356  0.00  0.00    +0.000 A 
ATOM     23  C   UNL     1       6.756   2.929  12.507  0.00  0.00    +0.000 A 
ENDBRANCH  17  18
ENDBRANCH  14  17
ENDBRANCH   8  13
BRANCH   4  24
ATOM     24  C   UNL     1       1.730   4.785  20.663  0.00  0.00    +0.000 C 
ATOM     25  O   UNL     1       1.559   6.038  20.691  0.00  0.00    +0.000 OA
ATOM     26  OXT UNL     1       0.971   3.831  20.938  0.00  0.00    +0.000 OA
ENDBRANCH   4  24
TORSDOF 4
ENDMDL
MODEL 3
REMARK VINA RESULT:      -7.1      3.737      6.789
REMARK  Name = 
REMARK  6 active torsions:
REMARK  status: ('A' for Active; 'I' for Inactive)
REMARK    1  A    between atoms: C_1  and  C_2
REMARK    2  A    between atoms: C_2  and  C_3
REMARK    3  A    between atoms: CA_4  and  C_5
REMARK    4  A    between atoms: CA_11  and  N_12
REMARK    5  A    between atoms: C_13  and  C_15
REMARK    6  A    between atoms: C_15  and  C_16
REMARK                            x       y       z     vdW  Elec       q    Type
REMARK                         _______ _______ _______ _____ _____    ______ ____
ROOT
ATOM      1  C   UNL     1       1.211   3.972  17.847  0.00  0.00    +0.000 C 
ATOM      2  C   UNL     1       1.983   3.255  18.984  0.00  0.00    +0.000 C 
ATOM      3  C   UNL     1       1.179   1.994  19.301  0.00  0.00    +0.000 C 
ATOM      4  CA  UNL     1       3.451   3.036  18.592  0.00  0.00    +0.000 C 
ATOM      5  N   UNL     1       4.138   4.323  18.797  0.00  0.00    +0.000 N 
ATOM      6  C   UNL     1       4.077   5.341  17.908  0.00  0.00    +0.000 C 
ATOM      7  O   UNL     1       4.000   5.269  16.694  0.00  0.00    +0.000 OA
ATOM      8  CA  UNL     1       3.779   6.381  19.024  0.00  0.00    +0.000 C 
ATOM      9  C   UNL     1       3.707   5.150  19.974  0.00  0.00    +0.000 C 
ATOM     10  S   UNL     1       2.128   4.369  20.419  0.00  0.00    +0.000 S 
ATOM     11  O   UNL     1       1.039   5.333  20.322  0.00  0.00    +0.000 OA
ATOM     12  O   UNL     1       2.253   3.579  21.632  0.00  0.00    +0.000 OA
ENDROOT
BRANCH   8  13
ATOM     13  N   UNL     1       2.562   7.194  18.770  0.00  0.00    +0.000 N 
ATOM     14  C   UNL     1       2.589   8.294  17.940  0.00  0.00    +0.000 C 
ATOM     15  O   UNL     1       3.598   8.610  17.314  0.00  0.00    +0.000 OA
ATOM     16  H   UNL     1       1.664   6.937  19.163  0.00  0.00    +0.000 HD
BRANCH  14  17
ATOM     17  C   UNL     1       1.276   9.058  17.865  0.00  0.00    +0.000 C 
BRANCH  17  18
ATOM     18  C   UNL     1       1.133  10.125  18.925  0.00  0.00    +0.000 A 
ATOM     19  C   UNL     1       1.530  11.448  18.676  0.00  0.00    +0.000 A 
ATOM     20  C   UNL     1       1.339  12.441  19.641  0.00  0.00    +0.000 A 
ATOM     21  C   UNL     1       0.750  12.124  20.864  0.00  0.00    +0.000 A 
ATOM     22  C   UNL     1       0.354  10.814  21.124  0.00  0.00    +0.000 A 
ATOM     23  C   UNL     1       0.543   9.821  20.160  0.00  0.00    +0.000 A 
ENDBRANCH  17  18
ENDBRANCH  14  17
ENDBRANCH   8  13
BRANCH   4  24
ATOM     24  C   UNL     1       4.167   1.860  19.292  0.00  0.00    +0.000 C 
ATOM     25  O   UNL     1       3.976   0.764  18.689  0.00  0.00    +0.000 OA
ATOM     26  OXT UNL     1       4.905   2.170  20.251  0.00  0.00    +0.000 OA
ENDBRANCH   4  24
TORSDOF 4
ENDMDL
MODEL 4
REMARK VINA RESULT:      -6.9      3.681      6.957
REMARK  Name = 
REMARK  6 active torsions:
REMARK  status: ('A' for Active; 'I' for Inactive)
REMARK    1  A    between atoms: C_1  and  C_2
REMARK    2  A    between atoms: C_2  and  C_3
REMARK    3  A    between atoms: CA_4  and  C_5
REMARK    4  A    between atoms: CA_11  and  N_12
REMARK    5  A    between atoms: C_13  and  C_15
REMARK    6  A    between atoms: C_15  and  C_16
REMARK                            x       y       z     vdW  Elec       q    Type
REMARK                         _______ _______ _______ _____ _____    ______ ____
ROOT
ATOM      1  C   UNL     1       1.158   3.902  17.891  0.00  0.00    +0.000 C 
ATOM      2  C   UNL     1       1.955   3.185  19.011  0.00  0.00    +0.000 C 
ATOM      3  C   UNL     1       1.205   1.882  19.285  0.00  0.00    +0.000 C 
ATOM      4  CA  UNL     1       3.433   3.041  18.621  0.00  0.00    +0.000 C 
ATOM      5  N   UNL     1       4.063   4.349  18.868  0.00  0.00    +0.000 N 
ATOM      6  C   UNL     1       3.962   5.390  18.010  0.00  0.00    +0.000 C 
ATOM      7  O   UNL     1       3.895   5.351  16.794  0.00  0.00    +0.000 OA
ATOM      8  CA  UNL     1       3.614   6.382  19.154  0.00  0.00    +0.000 C 
ATOM      9  C   UNL     1       3.592   5.122  20.066  0.00  0.00    +0.000 C 
ATOM     10  S   UNL     1       2.045   4.261  20.479  0.00  0.00    +0.000 S 
ATOM     11  O   UNL     1       0.916   5.180  20.405  0.00  0.00    +0.000 OA
ATOM     12  O   UNL     1       2.199   3.441  21.669  0.00  0.00    +0.000 OA
ENDROOT
BRANCH   8  13
ATOM     13  N   UNL     1       2.365   7.149  18.917  0.00  0.00    +0.000 N 
ATOM     14  C   UNL     1       2.371   8.346  18.232  0.00  0.00    +0.000 C 
ATOM     15  O   UNL     1       3.394   8.796  17.722  0.00  0.00    +0.000 OA
ATOM     16  H   UNL     1       1.463   6.794  19.212  0.00  0.00    +0.000 HD
BRANCH  14  17
ATOM     17  C   UNL     1       1.018   9.036  18.159  0.00  0.00    +0.000 C 
BRANCH  17  18
ATOM     18  C   UNL     1       0.552   9.599  19.481  0.00  0.00    +0.000 A 
ATOM     19  C   UNL     1       0.991   9.048  20.696  0.00  0.00    +0.000 A 
ATOM     20  C   UNL     1       0.602   9.613  21.914  0.00  0.00    +0.000 A 
ATOM     21  C   UNL     1      -0.228  10.732  21.933  0.00  0.00    +0.000 A 
ATOM     22  C   UNL     1      -0.672  11.286  20.735  0.00  0.00    +0.000 A 
ATOM     23  C   UNL     1      -0.283  10.725  19.516  0.00  0.00    +0.000 A 
ENDBRANCH  17  18
ENDBRANCH  14  17
ENDBRANCH   8  13
BRANCH   4  24
ATOM     24  C   UNL     1       4.195   1.876  19.290  0.00  0.00    +0.000 C 
ATOM     25  O   UNL     1       4.047   0.790  18.660  0.00  0.00    +0.000 OA
ATOM     26  OXT UNL     1       4.923   2.190  20.256  0.00  0.00    +0.000 OA
ENDBRANCH   4  24
TORSDOF 4
ENDMDL
MODEL 5
REMARK VINA RESULT:      -6.8      5.431      7.572
REMARK  Name = 
REMARK  6 active torsions:
REMARK  status: ('A' for Active; 'I' for Inactive)
REMARK    1  A    between atoms: C_1  and  C_2
REMARK    2  A    between atoms: C_2  and  C_3
REMARK    3  A    between atoms: CA_4  and  C_5
REMARK    4  A    between atoms: CA_11  and  N_12
REMARK    5  A    between atoms: C_13  and  C_15
REMARK    6  A    between atoms: C_15  and  C_16
REMARK                            x       y       z     vdW  Elec       q    Type
REMARK                         _______ _______ _______ _____ _____    ______ ____
ROOT
ATOM      1  C   UNL     1      -1.240  10.155  18.947  0.00  0.00    +0.000 C 
ATOM      2  C   UNL     1      -0.863  11.316  19.904  0.00  0.00    +0.000 C 
ATOM      3  C   UNL     1      -1.547  12.559  19.337  0.00  0.00    +0.000 C 
ATOM      4  CA  UNL     1      -1.211  10.959  21.356  0.00  0.00    +0.000 C 
ATOM      5  N   UNL     1      -0.137  10.074  21.840  0.00  0.00    +0.000 N 
ATOM      6  C   UNL     1      -0.085   8.753  21.554  0.00  0.00    +0.000 C 
ATOM      7  O   UNL     1      -1.018   7.985  21.404  0.00  0.00    +0.000 OA
ATOM      8  CA  UNL     1       1.420   8.831  21.173  0.00  0.00    +0.000 C 
ATOM      9  C   UNL     1       1.258  10.366  21.368  0.00  0.00    +0.000 C 
ATOM     10  S   UNL     1       0.950  11.486  19.970  0.00  0.00    +0.000 S 
ATOM     11  O   UNL     1       1.478  10.916  18.736  0.00  0.00    +0.000 OA
ATOM     12  O   UNL     1       1.294  12.857  20.306  0.00  0.00    +0.000 OA
ENDROOT
BRANCH   8  13
ATOM     13  N   UNL     1       1.722   8.281  19.826  0.00  0.00    +0.000 N 
ATOM     14  C   UNL     1       2.192   6.996  19.661  0.00  0.00    +0.000 C 
ATOM     15  O   UNL     1       2.313   6.222  20.606  0.00  0.00    +0.000 OA
ATOM     16  H   UNL     1       1.547   8.820  18.986  0.00  0.00    +0.000 HD
BRANCH  14  17
ATOM     17  C   UNL     1       2.531   6.631  18.223  0.00  0.00    +0.000 C 
BRANCH  17  18
ATOM     18  C   UNL     1       2.716   5.148  18.001  0.00  0.00    +0.000 A 
ATOM     19  C   UNL     1       3.992   4.604  17.787  0.00  0.00    +0.000 A 
ATOM     20  C   UNL     1       4.160   3.224  17.643  0.00  0.00    +0.000 A 
ATOM     21  C   UNL     1       3.059   2.374  17.711  0.00  0.00    +0.000 A 
ATOM     22  C   UNL     1       1.787   2.902  17.921  0.00  0.00    +0.000 A 
ATOM     23  C   UNL     1       1.616   4.280  18.067  0.00  0.00    +0.000 A 
ENDBRANCH  17  18
ENDBRANCH  14  17
ENDBRANCH   8  13
BRANCH   4  24
ATOM     24  C   UNL     1      -1.469  12.155  22.299  0.00  0.00    +0.000 C 
ATOM     25  O   UNL     1      -2.647  12.600  22.186  0.00  0.00    +0.000 OA
ATOM     26  OXT UNL     1      -0.546  12.423  23.097  0.00  0.00    +0.000 OA
ENDBRANCH   4  24
TORSDOF 4
ENDMDL
MODEL 6
REMARK VINA RESULT:      -6.7      1.729      2.670
REMARK  Name = 
REMARK  6 active torsions:
REMARK  status: ('A' for Active; 'I' for Inactive)
REMARK    1  A    between atoms: C_1  and  C_2
REMARK    2  A    between atoms: C_2  and  C_3
REMARK    3  A    between atoms: CA_4  and  C_5
REMARK    4  A    between atoms: CA_11  and  N_12
REMARK    5  A    between atoms: C_13  and  C_15
REMARK    6  A    between atoms: C_15  and  C_16
REMARK                            x       y       z     vdW  Elec       q    Type
REMARK                         _______ _______ _______ _____ _____    ______ ____
ROOT
ATOM      1  C   UNL     1       1.356   3.617  18.016  0.00  0.00    +0.000 C 
ATOM      2  C   UNL     1       1.604   4.039  19.487  0.00  0.00    +0.000 C 
ATOM      3  C   UNL     1       0.256   4.538  20.008  0.00  0.00    +0.000 C 
ATOM      4  CA  UNL     1       2.249   2.895  20.281  0.00  0.00    +0.000 C 
ATOM      5  N   UNL     1       3.681   2.897  19.932  0.00  0.00    +0.000 N 
ATOM      6  C   UNL     1       4.162   2.347  18.794  0.00  0.00    +0.000 C 
ATOM      7  O   UNL     1       3.743   1.368  18.202  0.00  0.00    +0.000 OA
ATOM      8  CA  UNL     1       5.038   3.594  18.488  0.00  0.00    +0.000 C 
ATOM      9  C   UNL     1       4.333   4.232  19.719  0.00  0.00    +0.000 C 
ATOM     10  S   UNL     1       2.892   5.326  19.543  0.00  0.00    +0.000 S 
ATOM     11  O   UNL     1       2.904   5.976  18.238  0.00  0.00    +0.000 OA
ATOM     12  O   UNL     1       2.705   6.146  20.728  0.00  0.00    +0.000 OA
ENDROOT
BRANCH   8  13
ATOM     13  N   UNL     1       4.817   4.157  17.131  0.00  0.00    +0.000 N 
ATOM     14  C   UNL     1       5.798   4.873  16.478  0.00  0.00    +0.000 C 
ATOM     15  O   UNL     1       6.922   5.015  16.952  0.00  0.00    +0.000 OA
ATOM     16  H   UNL     1       3.954   3.994  16.626  0.00  0.00    +0.000 HD
BRANCH  14  17
ATOM     17  C   UNL     1       5.368   5.450  15.138  0.00  0.00    +0.000 C 
BRANCH  17  18
ATOM     18  C   UNL     1       5.928   4.703  13.949  0.00  0.00    +0.000 A 
ATOM     19  C   UNL     1       5.173   3.718  13.294  0.00  0.00    +0.000 A 
ATOM     20  C   UNL     1       5.675   3.075  12.159  0.00  0.00    +0.000 A 
ATOM     21  C   UNL     1       6.935   3.409  11.666  0.00  0.00    +0.000 A 
ATOM     22  C   UNL     1       7.695   4.383  12.309  0.00  0.00    +0.000 A 
ATOM     23  C   UNL     1       7.194   5.028  13.442  0.00  0.00    +0.000 A 
ENDBRANCH  17  18
ENDBRANCH  14  17
ENDBRANCH   8  13
BRANCH   4  24
ATOM     24  C   UNL     1       2.008   2.915  21.807  0.00  0.00    +0.000 C 
ATOM     25  O   UNL     1       1.149   2.056  22.160  0.00  0.00    +0.000 OA
ATOM     26  OXT UNL     1       2.759   3.666  22.464  0.00  0.00    +0.000 OA
ENDBRANCH   4  24
TORSDOF 4
ENDMDL
MODEL 7
REMARK VINA RESULT:      -6.6      1.804      2.620
REMARK  Name = 
REMARK  6 active torsions:
REMARK  status: ('A' for Active; 'I' for Inactive)
REMARK    1  A    between atoms: C_1  and  C_2
REMARK    2  A    between atoms: C_2  and  C_3
REMARK    3  A    between atoms: CA_4  and  C_5
REMARK    4  A    between atoms: CA_11  and  N_12
REMARK    5  A    between atoms: C_13  and  C_15
REMARK    6  A    between atoms: C_15  and  C_16
REMARK                            x       y       z     vdW  Elec       q    Type
REMARK                         _______ _______ _______ _____ _____    ______ ____
ROOT
ATOM      1  C   UNL     1       1.500   3.645  17.845  0.00  0.00    +0.000 C 
ATOM      2  C   UNL     1       1.729   3.872  19.362  0.00  0.00    +0.000 C 
ATOM      3  C   UNL     1       0.391   4.363  19.914  0.00  0.00    +0.000 C 
ATOM      4  CA  UNL     1       2.306   2.611  20.020  0.00  0.00    +0.000 C 
ATOM      5  N   UNL     1       3.744   2.592  19.701  0.00  0.00    +0.000 N 
ATOM      6  C   UNL     1       4.230   2.166  18.513  0.00  0.00    +0.000 C 
ATOM      7  O   UNL     1       3.786   1.286  17.797  0.00  0.00    +0.000 OA
ATOM      8  CA  UNL     1       5.165   3.401  18.381  0.00  0.00    +0.000 C 
ATOM      9  C   UNL     1       4.457   3.913  19.668  0.00  0.00    +0.000 C 
ATOM     10  S   UNL     1       3.068   5.084  19.602  0.00  0.00    +0.000 S 
ATOM     11  O   UNL     1       3.139   5.887  18.387  0.00  0.00    +0.000 OA
ATOM     12  O   UNL     1       2.886   5.759  20.875  0.00  0.00    +0.000 OA
ENDROOT
BRANCH   8  13
ATOM     13  N   UNL     1       5.001   4.136  17.101  0.00  0.00    +0.000 N 
ATOM     14  C   UNL     1       6.084   4.652  16.421  0.00  0.00    +0.000 C 
ATOM     15  O   UNL     1       7.237   4.465  16.800  0.00  0.00    +0.000 OA
ATOM     16  H   UNL     1       4.092   4.241  16.666  0.00  0.00    +0.000 HD
BRANCH  14  17
ATOM     17  C   UNL     1       5.723   5.449  15.177  0.00  0.00    +0.000 C 
BRANCH  17  18
ATOM     18  C   UNL     1       6.071   4.747  13.885  0.00  0.00    +0.000 A 
ATOM     19  C   UNL     1       7.273   5.022  13.215  0.00  0.00    +0.000 A 
ATOM     20  C   UNL     1       7.614   4.324  12.052  0.00  0.00    +0.000 A 
ATOM     21  C   UNL     1       6.759   3.347  11.547  0.00  0.00    +0.000 A 
ATOM     22  C   UNL     1       5.562   3.066  12.202  0.00  0.00    +0.000 A 
ATOM     23  C   UNL     1       5.221   3.761  13.365  0.00  0.00    +0.000 A 
ENDBRANCH  17  18
ENDBRANCH  14  17
ENDBRANCH   8  13
BRANCH   4  24
ATOM     24  C   UNL     1       2.028   2.454  21.531  0.00  0.00    +0.000 C 
ATOM     25  O   UNL     1       3.096   2.319  22.196  0.00  0.00    +0.000 OA
ATOM     26  OXT UNL     1       0.838   2.600  21.881  0.00  0.00    +0.000 OA
ENDBRANCH   4  24
TORSDOF 4
ENDMDL
MODEL 8
REMARK VINA RESULT:      -6.6      2.927      7.274
REMARK  Name = 
REMARK  6 active torsions:
REMARK  status: ('A' for Active; 'I' for Inactive)
REMARK    1  A    between atoms: C_1  and  C_2
REMARK    2  A    between atoms: C_2  and  C_3
REMARK    3  A    between atoms: CA_4  and  C_5
REMARK    4  A    between atoms: CA_11  and  N_12
REMARK    5  A    between atoms: C_13  and  C_15
REMARK    6  A    between atoms: C_15  and  C_16
REMARK                            x       y       z     vdW  Elec       q    Type
REMARK                         _______ _______ _______ _____ _____    ______ ____
ROOT
ATOM      1  C   UNL     1       6.583   6.066  19.019  0.00  0.00    +0.000 C 
ATOM      2  C   UNL     1       6.433   5.916  17.483  0.00  0.00    +0.000 C 
ATOM      3  C   UNL     1       7.583   6.716  16.874  0.00  0.00    +0.000 C 
ATOM      4  CA  UNL     1       6.359   4.435  17.085  0.00  0.00    +0.000 C 
ATOM      5  N   UNL     1       4.982   3.993  17.367  0.00  0.00    +0.000 N 
ATOM      6  C   UNL     1       4.554   3.657  18.605  0.00  0.00    +0.000 C 
ATOM      7  O   UNL     1       5.193   3.128  19.498  0.00  0.00    +0.000 OA
ATOM      8  CA  UNL     1       3.261   4.507  18.458  0.00  0.00    +0.000 C 
ATOM      9  C   UNL     1       3.879   4.978  17.110  0.00  0.00    +0.000 C 
ATOM     10  S   UNL     1       4.800   6.539  16.967  0.00  0.00    +0.000 S 
ATOM     11  O   UNL     1       4.361   7.483  17.988  0.00  0.00    +0.000 OA
ATOM     12  O   UNL     1       4.868   6.987  15.587  0.00  0.00    +0.000 OA
ENDROOT
BRANCH   8  13
ATOM     13  N   UNL     1       3.060   5.479  19.563  0.00  0.00    +0.000 N 
ATOM     14  C   UNL     1       1.868   5.552  20.252  0.00  0.00    +0.000 C 
ATOM     15  O   UNL     1       0.946   4.770  20.038  0.00  0.00    +0.000 OA
ATOM     16  H   UNL     1       3.809   6.087  19.873  0.00  0.00    +0.000 HD
BRANCH  14  17
ATOM     17  C   UNL     1       1.809   6.662  21.290  0.00  0.00    +0.000 C 
BRANCH  17  18
ATOM     18  C   UNL     1       1.165   7.932  20.783  0.00  0.00    +0.000 A 
ATOM     19  C   UNL     1       0.208   8.613  21.552  0.00  0.00    +0.000 A 
ATOM     20  C   UNL     1      -0.338   9.818  21.102  0.00  0.00    +0.000 A 
ATOM     21  C   UNL     1       0.064  10.356  19.882  0.00  0.00    +0.000 A 
ATOM     22  C   UNL     1       1.011   9.689  19.108  0.00  0.00    +0.000 A 
ATOM     23  C   UNL     1       1.559   8.485  19.557  0.00  0.00    +0.000 A 
ENDBRANCH  17  18
ENDBRANCH  14  17
ENDBRANCH   8  13
BRANCH   4  24
ATOM     24  C   UNL     1       6.809   4.102  15.646  0.00  0.00    +0.000 C 
ATOM     25  O   UNL     1       5.961   3.386  15.039  0.00  0.00    +0.000 OA
ATOM     26  OXT UNL     1       7.853   4.670  15.261  0.00  0.00    +0.000 OA
ENDBRANCH   4  24
TORSDOF 4
ENDMDL
MODEL 9
REMARK VINA RESULT:      -6.6      3.645      5.936
REMARK  Name = 
REMARK  6 active torsions:
REMARK  status: ('A' for Active; 'I' for Inactive)
REMARK    1  A    between atoms: C_1  and  C_2
REMARK    2  A    between atoms: C_2  and  C_3
REMARK    3  A    between atoms: CA_4  and  C_5
REMARK    4  A    between atoms: CA_11  and  N_12
REMARK    5  A    between atoms: C_13  and  C_15
REMARK    6  A    between atoms: C_15  and  C_16
REMARK                            x       y       z     vdW  Elec       q    Type
REMARK                         _______ _______ _______ _____ _____    ______ ____
ROOT
ATOM      1  C   UNL     1       3.632   6.254  19.765  0.00  0.00    +0.000 C 
ATOM      2  C   UNL     1       3.376   4.783  19.346  0.00  0.00    +0.000 C 
ATOM      3  C   UNL     1       2.420   4.214  20.393  0.00  0.00    +0.000 C 
ATOM      4  CA  UNL     1       2.901   4.707  17.889  0.00  0.00    +0.000 C 
ATOM      5  N   UNL     1       4.102   4.846  17.047  0.00  0.00    +0.000 N 
ATOM      6  C   UNL     1       4.674   6.040  16.772  0.00  0.00    +0.000 C 
ATOM      7  O   UNL     1       4.124   7.118  16.634  0.00  0.00    +0.000 OA
ATOM      8  CA  UNL     1       6.097   5.503  17.093  0.00  0.00    +0.000 C 
ATOM      9  C   UNL     1       5.365   4.205  17.543  0.00  0.00    +0.000 C 
ATOM     10  S   UNL     1       4.960   3.884  19.285  0.00  0.00    +0.000 S 
ATOM     11  O   UNL     1       5.887   4.591  20.161  0.00  0.00    +0.000 OA
ATOM     12  O   UNL     1       4.721   2.470  19.519  0.00  0.00    +0.000 OA
ENDROOT
BRANCH   8  13
ATOM     13  N   UNL     1       6.832   6.324  18.089  0.00  0.00    +0.000 N 
ATOM     14  C   UNL     1       7.764   7.264  17.703  0.00  0.00    +0.000 C 
ATOM     15  O   UNL     1       7.976   7.519  16.522  0.00  0.00    +0.000 OA
ATOM     16  H   UNL     1       6.637   6.249  19.081  0.00  0.00    +0.000 HD
BRANCH  14  17
ATOM     17  C   UNL     1       8.482   7.948  18.857  0.00  0.00    +0.000 C 
BRANCH  17  18
ATOM     18  C   UNL     1       8.692   9.429  18.647  0.00  0.00    +0.000 A 
ATOM     19  C   UNL     1       8.008  10.120  17.636  0.00  0.00    +0.000 A 
ATOM     20  C   UNL     1       8.164  11.501  17.487  0.00  0.00    +0.000 A 
ATOM     21  C   UNL     1       9.004  12.206  18.347  0.00  0.00    +0.000 A 
ATOM     22  C   UNL     1       9.691  11.532  19.353  0.00  0.00    +0.000 A 
ATOM     23  C   UNL     1       9.535  10.152  19.504  0.00  0.00    +0.000 A 
ENDBRANCH  17  18
ENDBRANCH  14  17
ENDBRANCH   8  13
BRANCH   4  24
ATOM     24  C   UNL     1       2.056   3.467  17.521  0.00  0.00    +0.000 C 
ATOM     25  O   UNL     1       0.821   3.737  17.464  0.00  0.00    +0.000 OA
ATOM     26  OXT UNL     1       2.702   2.441  17.223  0.00  0.00    +0.000 OA
ENDBRANCH   4  24
TORSDOF 4
ENDMDL
