MODEL 1
REMARK VINA RESULT:      -7.9      0.000      0.000
REMARK  Name = 
REMARK  7 active torsions:
REMARK  status: ('A' for Active; 'I' for Inactive)
REMARK    1  A    between atoms: C_1  and  N_2
REMARK    2  A    between atoms: C_3  and  O_4
REMARK    3  A    between atoms: O_4  and  C_5
REMARK    4  A    between atoms: C_5  and  C_6
REMARK    5  A    between atoms: C_6  and  O_7
REMARK    6  A    between atoms: O_7  and  C_8
REMARK    7  A    between atoms: C_15  and  C_16
REMARK                            x       y       z     vdW  Elec       q    Type
REMARK                         _______ _______ _______ _____ _____    ______ ____
ROOT
ATOM      1  C   UNL     1       4.632   2.276  19.938  0.00  0.00    +0.000 C 
ATOM      2  N   UNL     1       4.020   3.569  19.692  0.00  0.00    +0.000 N 
ATOM      3  C   UNL     1       4.736   4.691  19.330  0.00  0.00    +0.000 A 
ATOM      4  N   UNL     1       4.213   5.858  19.147  0.00  0.00    +0.000 NA
ATOM      5  C   UNL     1       2.862   5.973  19.315  0.00  0.00    +0.000 A 
ATOM      6  C   UNL     1       2.046   4.958  19.609  0.00  0.00    +0.000 A 
ATOM      7  C   UNL     1       2.645   3.631  19.796  0.00  0.00    +0.000 A 
ATOM      8  O   UNL     1       1.914   2.675  20.039  0.00  0.00    +0.000 OA
ENDROOT
BRANCH   5   9
ATOM      9  C   UNL     1       2.284   7.316  19.189  0.00  0.00    +0.000 A 
ATOM     10  C   UNL     1       1.663   7.909  20.290  0.00  0.00    +0.000 A 
ATOM     11  C   UNL     1       1.122   9.171  20.131  0.00  0.00    +0.000 A 
ATOM     12  N   UNL     1       1.157   9.865  18.973  0.00  0.00    +0.000 NA
ATOM     13  C   UNL     1       1.776   9.270  17.928  0.00  0.00    +0.000 A 
ATOM     14  C   UNL     1       2.347   8.012  17.981  0.00  0.00    +0.000 A 
ENDBRANCH   5   9
BRANCH   3  15
ATOM     15  O   UNL     1       6.075   4.499  19.170  0.00  0.00    +0.000 OA
BRANCH  15  16
ATOM     16  C   UNL     1       6.748   5.286  18.160  0.00  0.00    +0.000 C 
BRANCH  16  17
ATOM     17  C   UNL     1       7.022   4.480  16.889  0.00  0.00    +0.000 C 
BRANCH  17  18
ATOM     18  O   UNL     1       7.222   5.398  15.810  0.00  0.00    +0.000 OA
BRANCH  18  19
ATOM     19  C   UNL     1       7.068   4.913  14.539  0.00  0.00    +0.000 A 
ATOM     20  C   UNL     1       6.035   3.983  14.379  0.00  0.00    +0.000 A 
ATOM     21  C   UNL     1       5.762   3.426  13.128  0.00  0.00    +0.000 A 
ATOM     22  C   UNL     1       6.514   3.808  12.019  0.00  0.00    +0.000 A 
ATOM     23  C   UNL     1       7.532   4.748  12.167  0.00  0.00    +0.000 A 
ATOM     24  C   UNL     1       7.811   5.302  13.422  0.00  0.00    +0.000 A 
ENDBRANCH  18  19
ENDBRANCH  17  18
ENDBRANCH  16  17
ENDBRANCH  15  16
ENDBRANCH   3  15
TORSDOF 6
ENDMDL
MODEL 2
REMARK VINA RESULT:      -7.5      4.158      5.662
REMARK  Name = 
REMARK  7 active torsions:
REMARK  status: ('A' for Active; 'I' for Inactive)
REMARK    1  A    between atoms: C_1  and  N_2
REMARK    2  A    between atoms: C_3  and  O_4
REMARK    3  A    between atoms: O_4  and  C_5
REMARK    4  A    between atoms: C_5  and  C_6
REMARK    5  A    between atoms: C_6  and  O_7
REMARK    6  A    between atoms: O_7  and  C_8
REMARK    7  A    between atoms: C_15  and  C_16
REMARK                            x       y       z     vdW  Elec       q    Type
REMARK                         _______ _______ _______ _____ _____    ______ ____
ROOT
ATOM      1  C   UNL     1       6.393   4.293  16.324  0.00  0.00    +0.000 C 
ATOM      2  N   UNL     1       5.382   5.189  16.854  0.00  0.00    +0.000 N 
ATOM      3  C   UNL     1       5.593   6.537  17.057  0.00  0.00    +0.000 A 
ATOM      4  N   UNL     1       4.718   7.339  17.566  0.00  0.00    +0.000 NA
ATOM      5  C   UNL     1       3.506   6.810  17.910  0.00  0.00    +0.000 A 
ATOM      6  C   UNL     1       3.153   5.538  17.716  0.00  0.00    +0.000 A 
ATOM      7  C   UNL     1       4.146   4.636  17.120  0.00  0.00    +0.000 A 
ATOM      8  O   UNL     1       3.836   3.468  16.903  0.00  0.00    +0.000 OA
ENDROOT
BRANCH   5   9
ATOM      9  C   UNL     1       2.546   7.706  18.565  0.00  0.00    +0.000 A 
ATOM     10  C   UNL     1       2.197   7.492  19.900  0.00  0.00    +0.000 A 
ATOM     11  C   UNL     1       1.283   8.351  20.480  0.00  0.00    +0.000 A 
ATOM     12  N   UNL     1       0.706   9.386  19.832  0.00  0.00    +0.000 NA
ATOM     13  C   UNL     1       1.073   9.577  18.545  0.00  0.00    +0.000 A 
ATOM     14  C   UNL     1       1.977   8.775  17.871  0.00  0.00    +0.000 A 
ENDBRANCH   5   9
BRANCH   3  15
ATOM     15  O   UNL     1       6.819   6.996  16.681  0.00  0.00    +0.000 OA
BRANCH  15  16
ATOM     16  C   UNL     1       7.750   7.354  17.729  0.00  0.00    +0.000 C 
BRANCH  16  17
ATOM     17  C   UNL     1       8.019   8.860  17.772  0.00  0.00    +0.000 C 
BRANCH  17  18
ATOM     18  O   UNL     1       8.751   9.150  18.966  0.00  0.00    +0.000 OA
BRANCH  18  19
ATOM     19  C   UNL     1       9.318  10.392  19.065  0.00  0.00    +0.000 A 
ATOM     20  C   UNL     1       9.561  10.833  20.370  0.00  0.00    +0.000 A 
ATOM     21  C   UNL     1      10.151  12.076  20.607  0.00  0.00    +0.000 A 
ATOM     22  C   UNL     1      10.522  12.885  19.535  0.00  0.00    +0.000 A 
ATOM     23  C   UNL     1      10.301  12.444  18.231  0.00  0.00    +0.000 A 
ATOM     24  C   UNL     1       9.702  11.201  17.992  0.00  0.00    +0.000 A 
ENDBRANCH  18  19
ENDBRANCH  17  18
ENDBRANCH  16  17
ENDBRANCH  15  16
ENDBRANCH   3  15
TORSDOF 6
ENDMDL
MODEL 3
REMARK VINA RESULT:      -7.4      1.097      1.808
REMARK  Name = 
REMARK  7 active torsions:
REMARK  status: ('A' for Active; 'I' for Inactive)
REMARK    1  A    between atoms: C_1  and  N_2
REMARK    2  A    between atoms: C_3  and  O_4
REMARK    3  A    between atoms: O_4  and  C_5
REMARK    4  A    between atoms: C_5  and  C_6
REMARK    5  A    between atoms: C_6  and  O_7
REMARK    6  A    between atoms: O_7  and  C_8
REMARK    7  A    between atoms: C_15  and  C_16
REMARK                            x       y       z     vdW  Elec       q    Type
REMARK                         _______ _______ _______ _____ _____    ______ ____
ROOT
ATOM      1  C   UNL     1       4.201   3.198  19.201  0.00  0.00    +0.000 C 
ATOM      2  N   UNL     1       3.518   4.473  19.313  0.00  0.00    +0.000 N 
ATOM      3  C   UNL     1       3.707   5.517  18.432  0.00  0.00    +0.000 A 
ATOM      4  N   UNL     1       3.138   6.671  18.540  0.00  0.00    +0.000 NA
ATOM      5  C   UNL     1       2.286   6.854  19.592  0.00  0.00    +0.000 A 
ATOM      6  C   UNL     1       1.971   5.912  20.484  0.00  0.00    +0.000 A 
ATOM      7  C   UNL     1       2.608   4.597  20.344  0.00  0.00    +0.000 A 
ATOM      8  O   UNL     1       2.313   3.704  21.133  0.00  0.00    +0.000 OA
ENDROOT
BRANCH   5   9
ATOM      9  C   UNL     1       1.707   8.192  19.760  0.00  0.00    +0.000 A 
ATOM     10  C   UNL     1       1.672   9.073  18.678  0.00  0.00    +0.000 A 
ATOM     11  C   UNL     1       1.127  10.328  18.876  0.00  0.00    +0.000 A 
ATOM     12  N   UNL     1       0.628  10.753  20.057  0.00  0.00    +0.000 NA
ATOM     13  C   UNL     1       0.663   9.874  21.083  0.00  0.00    +0.000 A 
ATOM     14  C   UNL     1       1.188   8.597  20.990  0.00  0.00    +0.000 A 
ENDBRANCH   5   9
BRANCH   3  15
ATOM     15  O   UNL     1       4.561   5.259  17.401  0.00  0.00    +0.000 OA
BRANCH  15  16
ATOM     16  C   UNL     1       5.835   5.944  17.400  0.00  0.00    +0.000 C 
BRANCH  16  17
ATOM     17  C   UNL     1       6.960   5.068  16.845  0.00  0.00    +0.000 C 
BRANCH  17  18
ATOM     18  O   UNL     1       7.386   5.623  15.598  0.00  0.00    +0.000 OA
BRANCH  18  19
ATOM     19  C   UNL     1       7.011   4.962  14.459  0.00  0.00    +0.000 A 
ATOM     20  C   UNL     1       7.760   5.269  13.319  0.00  0.00    +0.000 A 
ATOM     21  C   UNL     1       7.490   4.650  12.097  0.00  0.00    +0.000 A 
ATOM     22  C   UNL     1       6.474   3.700  12.009  0.00  0.00    +0.000 A 
ATOM     23  C   UNL     1       5.736   3.375  13.145  0.00  0.00    +0.000 A 
ATOM     24  C   UNL     1       6.001   4.001  14.369  0.00  0.00    +0.000 A 
ENDBRANCH  18  19
ENDBRANCH  17  18
ENDBRANCH  16  17
ENDBRANCH  15  16
ENDBRANCH   3  15
TORSDOF 6
ENDMDL
MODEL 4
REMARK VINA RESULT:      -7.3      1.821      2.872
REMARK  Name = 
REMARK  7 active torsions:
REMARK  status: ('A' for Active; 'I' for Inactive)
REMARK    1  A    between atoms: C_1  and  N_2
REMARK    2  A    between atoms: C_3  and  O_4
REMARK    3  A    between atoms: O_4  and  C_5
REMARK    4  A    between atoms: C_5  and  C_6
REMARK    5  A    between atoms: C_6  and  O_7
REMARK    6  A    between atoms: O_7  and  C_8
REMARK    7  A    between atoms: C_15  and  C_16
REMARK                            x       y       z     vdW  Elec       q    Type
REMARK                         _______ _______ _______ _____ _____    ______ ____
ROOT
ATOM      1  C   UNL     1       3.873   2.300  20.205  0.00  0.00    +0.000 C 
ATOM      2  N   UNL     1       3.333   3.632  20.005  0.00  0.00    +0.000 N 
ATOM      3  C   UNL     1       3.597   4.397  18.889  0.00  0.00    +0.000 A 
ATOM      4  N   UNL     1       3.158   5.600  18.713  0.00  0.00    +0.000 NA
ATOM      5  C   UNL     1       2.375   6.131  19.698  0.00  0.00    +0.000 A 
ATOM      6  C   UNL     1       1.998   5.480  20.800  0.00  0.00    +0.000 A 
ATOM      7  C   UNL     1       2.485   4.108  20.984  0.00  0.00    +0.000 A 
ATOM      8  O   UNL     1       2.129   3.476  21.975  0.00  0.00    +0.000 OA
ENDROOT
BRANCH   5   9
ATOM      9  C   UNL     1       1.948   7.526  19.535  0.00  0.00    +0.000 A 
ATOM     10  C   UNL     1       1.335   8.193  20.597  0.00  0.00    +0.000 A 
ATOM     11  C   UNL     1       0.940   9.503  20.403  0.00  0.00    +0.000 A 
ATOM     12  N   UNL     1       1.110  10.176  19.245  0.00  0.00    +0.000 NA
ATOM     13  C   UNL     1       1.718   9.510  18.238  0.00  0.00    +0.000 A 
ATOM     14  C   UNL     1       2.149   8.199  18.329  0.00  0.00    +0.000 A 
ENDBRANCH   5   9
BRANCH   3  15
ATOM     15  O   UNL     1       4.375   3.799  17.944  0.00  0.00    +0.000 OA
BRANCH  15  16
ATOM     16  C   UNL     1       4.701   4.566  16.761  0.00  0.00    +0.000 C 
BRANCH  16  17
ATOM     17  C   UNL     1       5.490   3.744  15.741  0.00  0.00    +0.000 C 
BRANCH  17  18
ATOM     18  O   UNL     1       6.854   4.174  15.777  0.00  0.00    +0.000 OA
BRANCH  18  19
ATOM     19  C   UNL     1       7.181   5.137  16.693  0.00  0.00    +0.000 A 
ATOM     20  C   UNL     1       7.636   4.657  17.925  0.00  0.00    +0.000 A 
ATOM     21  C   UNL     1       8.019   5.537  18.940  0.00  0.00    +0.000 A 
ATOM     22  C   UNL     1       7.965   6.912  18.722  0.00  0.00    +0.000 A 
ATOM     23  C   UNL     1       7.531   7.398  17.490  0.00  0.00    +0.000 A 
ATOM     24  C   UNL     1       7.140   6.517  16.476  0.00  0.00    +0.000 A 
ENDBRANCH  18  19
ENDBRANCH  17  18
ENDBRANCH  16  17
ENDBRANCH  15  16
ENDBRANCH   3  15
TORSDOF 6
ENDMDL
MODEL 5
REMARK VINA RESULT:      -7.3      1.173      1.587
REMARK  Name = 
REMARK  7 active torsions:
REMARK  status: ('A' for Active; 'I' for Inactive)
REMARK    1  A    between atoms: C_1  and  N_2
REMARK    2  A    between atoms: C_3  and  O_4
REMARK    3  A    between atoms: O_4  and  C_5
REMARK    4  A    between atoms: C_5  and  C_6
REMARK    5  A    between atoms: C_6  and  O_7
REMARK    6  A    between atoms: O_7  and  C_8
REMARK    7  A    between atoms: C_15  and  C_16
REMARK                            x       y       z     vdW  Elec       q    Type
REMARK                         _______ _______ _______ _____ _____    ______ ____
ROOT
ATOM      1  C   UNL     1       4.390   3.391  18.933  0.00  0.00    +0.000 C 
ATOM      2  N   UNL     1       3.656   4.632  19.093  0.00  0.00    +0.000 N 
ATOM      3  C   UNL     1       3.764   5.696  18.223  0.00  0.00    +0.000 A 
ATOM      4  N   UNL     1       3.150   6.822  18.373  0.00  0.00    +0.000 NA
ATOM      5  C   UNL     1       2.335   6.952  19.461  0.00  0.00    +0.000 A 
ATOM      6  C   UNL     1       2.097   5.984  20.349  0.00  0.00    +0.000 A 
ATOM      7  C   UNL     1       2.784   4.700  20.162  0.00  0.00    +0.000 A 
ATOM      8  O   UNL     1       2.561   3.783  20.948  0.00  0.00    +0.000 OA
ENDROOT
BRANCH   5   9
ATOM      9  C   UNL     1       1.705   8.260  19.675  0.00  0.00    +0.000 A 
ATOM     10  C   UNL     1       1.570   9.147  18.605  0.00  0.00    +0.000 A 
ATOM     11  C   UNL     1       0.979  10.373  18.846  0.00  0.00    +0.000 A 
ATOM     12  N   UNL     1       0.527  10.766  20.056  0.00  0.00    +0.000 NA
ATOM     13  C   UNL     1       0.659   9.881  21.070  0.00  0.00    +0.000 A 
ATOM     14  C   UNL     1       1.236   8.631  20.935  0.00  0.00    +0.000 A 
ENDBRANCH   5   9
BRANCH   3  15
ATOM     15  O   UNL     1       4.585   5.492  17.155  0.00  0.00    +0.000 OA
BRANCH  15  16
ATOM     16  C   UNL     1       5.905   6.085  17.202  0.00  0.00    +0.000 C 
BRANCH  16  17
ATOM     17  C   UNL     1       6.981   5.139  16.666  0.00  0.00    +0.000 C 
BRANCH  17  18
ATOM     18  O   UNL     1       7.487   5.684  15.444  0.00  0.00    +0.000 OA
BRANCH  18  19
ATOM     19  C   UNL     1       7.170   5.025  14.287  0.00  0.00    +0.000 A 
ATOM     20  C   UNL     1       6.079   4.155  14.378  0.00  0.00    +0.000 A 
ATOM     21  C   UNL     1       5.642   3.435  13.264  0.00  0.00    +0.000 A 
ATOM     22  C   UNL     1       6.285   3.594  12.039  0.00  0.00    +0.000 A 
ATOM     23  C   UNL     1       7.361   4.474  11.935  0.00  0.00    +0.000 A 
ATOM     24  C   UNL     1       7.805   5.190  13.053  0.00  0.00    +0.000 A 
ENDBRANCH  18  19
ENDBRANCH  17  18
ENDBRANCH  16  17
ENDBRANCH  15  16
ENDBRANCH   3  15
TORSDOF 6
ENDMDL
MODEL 6
REMARK VINA RESULT:      -7.3      0.881      1.631
REMARK  Name = 
REMARK  7 active torsions:
REMARK  status: ('A' for Active; 'I' for Inactive)
REMARK    1  A    between atoms: C_1  and  N_2
REMARK    2  A    between atoms: C_3  and  O_4
REMARK    3  A    between atoms: O_4  and  C_5
REMARK    4  A    between atoms: C_5  and  C_6
REMARK    5  A    between atoms: C_6  and  O_7
REMARK    6  A    between atoms: O_7  and  C_8
REMARK    7  A    between atoms: C_15  and  C_16
REMARK                            x       y       z     vdW  Elec       q    Type
REMARK                         _______ _______ _______ _____ _____    ______ ____
ROOT
ATOM      1  C   UNL     1       4.021   2.384  20.350  0.00  0.00    +0.000 C 
ATOM      2  N   UNL     1       3.486   3.710  20.101  0.00  0.00    +0.000 N 
ATOM      3  C   UNL     1       4.144   4.667  19.359  0.00  0.00    +0.000 A 
ATOM      4  N   UNL     1       3.699   5.864  19.161  0.00  0.00    +0.000 NA
ATOM      5  C   UNL     1       2.495   6.186  19.718  0.00  0.00    +0.000 A 
ATOM      6  C   UNL     1       1.730   5.339  20.410  0.00  0.00    +0.000 A 
ATOM      7  C   UNL     1       2.232   3.975  20.615  0.00  0.00    +0.000 A 
ATOM      8  O   UNL     1       1.535   3.167  21.223  0.00  0.00    +0.000 OA
ENDROOT
BRANCH   5   9
ATOM      9  C   UNL     1       2.034   7.571  19.563  0.00  0.00    +0.000 A 
ATOM     10  C   UNL     1       2.246   8.241  18.357  0.00  0.00    +0.000 A 
ATOM     11  C   UNL     1       1.806   9.547  18.251  0.00  0.00    +0.000 A 
ATOM     12  N   UNL     1       1.183  10.214  19.247  0.00  0.00    +0.000 NA
ATOM     13  C   UNL     1       0.980   9.536  20.398  0.00  0.00    +0.000 A 
ATOM     14  C   UNL     1       1.382   8.229  20.607  0.00  0.00    +0.000 A 
ENDBRANCH   5   9
BRANCH   3  15
ATOM     15  O   UNL     1       5.333   4.273  18.825  0.00  0.00    +0.000 OA
BRANCH  15  16
ATOM     16  C   UNL     1       5.807   4.976  17.652  0.00  0.00    +0.000 C 
BRANCH  16  17
ATOM     17  C   UNL     1       5.057   4.555  16.386  0.00  0.00    +0.000 C 
BRANCH  17  18
ATOM     18  O   UNL     1       5.856   3.593  15.692  0.00  0.00    +0.000 OA
BRANCH  18  19
ATOM     19  C   UNL     1       6.257   3.912  14.422  0.00  0.00    +0.000 A 
ATOM     20  C   UNL     1       7.279   4.863  14.342  0.00  0.00    +0.000 A 
ATOM     21  C   UNL     1       7.790   5.262  13.106  0.00  0.00    +0.000 A 
ATOM     22  C   UNL     1       7.291   4.699  11.934  0.00  0.00    +0.000 A 
ATOM     23  C   UNL     1       6.285   3.737  12.006  0.00  0.00    +0.000 A 
ATOM     24  C   UNL     1       5.767   3.341  13.245  0.00  0.00    +0.000 A 
ENDBRANCH  18  19
ENDBRANCH  17  18
ENDBRANCH  16  17
ENDBRANCH  15  16
ENDBRANCH   3  15
TORSDOF 6
ENDMDL
MODEL 7
REMARK VINA RESULT:      -7.3      0.905      1.336
REMARK  Name = 
REMARK  7 active torsions:
REMARK  status: ('A' for Active; 'I' for Inactive)
REMARK    1  A    between atoms: C_1  and  N_2
REMARK    2  A    between atoms: C_3  and  O_4
REMARK    3  A    between atoms: O_4  and  C_5
REMARK    4  A    between atoms: C_5  and  C_6
REMARK    5  A    between atoms: C_6  and  O_7
REMARK    6  A    between atoms: O_7  and  C_8
REMARK    7  A    between atoms: C_15  and  C_16
REMARK                            x       y       z     vdW  Elec       q    Type
REMARK                         _______ _______ _______ _____ _____    ______ ____
ROOT
ATOM      1  C   UNL     1       4.456   2.414  18.377  0.00  0.00    +0.000 C 
ATOM      2  N   UNL     1       3.908   3.757  18.432  0.00  0.00    +0.000 N 
ATOM      3  C   UNL     1       4.638   4.860  18.820  0.00  0.00    +0.000 A 
ATOM      4  N   UNL     1       4.155   6.054  18.913  0.00  0.00    +0.000 NA
ATOM      5  C   UNL     1       2.838   6.225  18.594  0.00  0.00    +0.000 A 
ATOM      6  C   UNL     1       2.034   5.255  18.152  0.00  0.00    +0.000 A 
ATOM      7  C   UNL     1       2.595   3.904  18.030  0.00  0.00    +0.000 A 
ATOM      8  O   UNL     1       1.886   3.000  17.598  0.00  0.00    +0.000 OA
ENDROOT
BRANCH   5   9
ATOM      9  C   UNL     1       2.271   7.565  18.783  0.00  0.00    +0.000 A 
ATOM     10  C   UNL     1       1.770   7.936  20.032  0.00  0.00    +0.000 A 
ATOM     11  C   UNL     1       1.236   9.204  20.169  0.00  0.00    +0.000 A 
ATOM     12  N   UNL     1       1.169  10.105  19.166  0.00  0.00    +0.000 NA
ATOM     13  C   UNL     1       1.674   9.722  17.971  0.00  0.00    +0.000 A 
ATOM     14  C   UNL     1       2.228   8.478  17.729  0.00  0.00    +0.000 A 
ENDBRANCH   5   9
BRANCH   3  15
ATOM     15  O   UNL     1       5.946   4.617  19.112  0.00  0.00    +0.000 OA
BRANCH  15  16
ATOM     16  C   UNL     1       6.940   5.072  18.164  0.00  0.00    +0.000 C 
BRANCH  16  17
ATOM     17  C   UNL     1       6.307   5.622  16.885  0.00  0.00    +0.000 C 
BRANCH  17  18
ATOM     18  O   UNL     1       7.298   5.607  15.852  0.00  0.00    +0.000 OA
BRANCH  18  19
ATOM     19  C   UNL     1       6.966   4.988  14.677  0.00  0.00    +0.000 A 
ATOM     20  C   UNL     1       7.781   5.307  13.586  0.00  0.00    +0.000 A 
ATOM     21  C   UNL     1       7.560   4.728  12.335  0.00  0.00    +0.000 A 
ATOM     22  C   UNL     1       6.527   3.808  12.168  0.00  0.00    +0.000 A 
ATOM     23  C   UNL     1       5.723   3.471  13.255  0.00  0.00    +0.000 A 
ATOM     24  C   UNL     1       5.939   4.056  14.508  0.00  0.00    +0.000 A 
ENDBRANCH  18  19
ENDBRANCH  17  18
ENDBRANCH  16  17
ENDBRANCH  15  16
ENDBRANCH   3  15
TORSDOF 6
ENDMDL
MODEL 8
REMARK VINA RESULT:      -7.2      2.373      5.966
REMARK  Name = 
REMARK  7 active torsions:
REMARK  status: ('A' for Active; 'I' for Inactive)
REMARK    1  A    between atoms: C_1  and  N_2
REMARK    2  A    between atoms: C_3  and  O_4
REMARK    3  A    between atoms: O_4  and  C_5
REMARK    4  A    between atoms: C_5  and  C_6
REMARK    5  A    between atoms: C_6  and  O_7
REMARK    6  A    between atoms: O_7  and  C_8
REMARK    7  A    between atoms: C_15  and  C_16
REMARK                            x       y       z     vdW  Elec       q    Type
REMARK                         _______ _______ _______ _____ _____    ______ ____
ROOT
ATOM      1  C   UNL     1       1.286   7.667  20.656  0.00  0.00    +0.000 C 
ATOM      2  N   UNL     1       2.291   7.112  19.768  0.00  0.00    +0.000 N 
ATOM      3  C   UNL     1       2.979   5.948  20.035  0.00  0.00    +0.000 A 
ATOM      4  N   UNL     1       3.905   5.462  19.275  0.00  0.00    +0.000 NA
ATOM      5  C   UNL     1       4.204   6.148  18.133  0.00  0.00    +0.000 A 
ATOM      6  C   UNL     1       3.576   7.255  17.729  0.00  0.00    +0.000 A 
ATOM      7  C   UNL     1       2.513   7.791  18.587  0.00  0.00    +0.000 A 
ATOM      8  O   UNL     1       1.900   8.791  18.224  0.00  0.00    +0.000 OA
ENDROOT
BRANCH   5   9
ATOM      9  C   UNL     1       5.312   5.640  17.317  0.00  0.00    +0.000 A 
ATOM     10  C   UNL     1       5.262   5.761  15.927  0.00  0.00    +0.000 A 
ATOM     11  C   UNL     1       6.321   5.263  15.191  0.00  0.00    +0.000 A 
ATOM     12  N   UNL     1       7.401   4.664  15.737  0.00  0.00    +0.000 NA
ATOM     13  C   UNL     1       7.428   4.572  17.086  0.00  0.00    +0.000 A 
ATOM     14  C   UNL     1       6.421   5.037  17.912  0.00  0.00    +0.000 A 
ENDBRANCH   5   9
BRANCH   3  15
ATOM     15  O   UNL     1       2.622   5.311  21.185  0.00  0.00    +0.000 OA
BRANCH  15  16
ATOM     16  C   UNL     1       1.471   4.436  21.136  0.00  0.00    +0.000 C 
BRANCH  16  17
ATOM     17  C   UNL     1       1.813   3.010  21.571  0.00  0.00    +0.000 C 
BRANCH  17  18
ATOM     18  O   UNL     1       1.496   2.124  20.493  0.00  0.00    +0.000 OA
BRANCH  18  19
ATOM     19  C   UNL     1       2.063   2.393  19.276  0.00  0.00    +0.000 A 
ATOM     20  C   UNL     1       3.341   1.859  19.084  0.00  0.00    +0.000 A 
ATOM     21  C   UNL     1       4.022   2.046  17.879  0.00  0.00    +0.000 A 
ATOM     22  C   UNL     1       3.419   2.760  16.845  0.00  0.00    +0.000 A 
ATOM     23  C   UNL     1       2.138   3.279  17.022  0.00  0.00    +0.000 A 
ATOM     24  C   UNL     1       1.458   3.098  18.232  0.00  0.00    +0.000 A 
ENDBRANCH  18  19
ENDBRANCH  17  18
ENDBRANCH  16  17
ENDBRANCH  15  16
ENDBRANCH   3  15
TORSDOF 6
ENDMDL
MODEL 9
REMARK VINA RESULT:      -7.2      1.134      1.858
REMARK  Name = 
REMARK  7 active torsions:
REMARK  status: ('A' for Active; 'I' for Inactive)
REMARK    1  A    between atoms: C_1  and  N_2
REMARK    2  A    between atoms: C_3  and  O_4
REMARK    3  A    between atoms: O_4  and  C_5
REMARK    4  A    between atoms: C_5  and  C_6
REMARK    5  A    between atoms: C_6  and  O_7
REMARK    6  A    between atoms: O_7  and  C_8
REMARK    7  A    between atoms: C_15  and  C_16
REMARK                            x       y       z     vdW  Elec       q    Type
REMARK                         _______ _______ _______ _____ _____    ______ ____
ROOT
ATOM      1  C   UNL     1       4.437   2.089  19.984  0.00  0.00    +0.000 C 
ATOM      2  N   UNL     1       3.872   3.406  19.756  0.00  0.00    +0.000 N 
ATOM      3  C   UNL     1       4.636   4.538  19.569  0.00  0.00    +0.000 A 
ATOM      4  N   UNL     1       4.149   5.724  19.406  0.00  0.00    +0.000 NA
ATOM      5  C   UNL     1       2.789   5.849  19.410  0.00  0.00    +0.000 A 
ATOM      6  C   UNL     1       1.935   4.830  19.526  0.00  0.00    +0.000 A 
ATOM      7  C   UNL     1       2.495   3.484  19.691  0.00  0.00    +0.000 A 
ATOM      8  O   UNL     1       1.731   2.525  19.770  0.00  0.00    +0.000 OA
ENDROOT
BRANCH   5   9
ATOM      9  C   UNL     1       2.242   7.207  19.310  0.00  0.00    +0.000 A 
ATOM     10  C   UNL     1       2.356   7.914  18.111  0.00  0.00    +0.000 A 
ATOM     11  C   UNL     1       1.836   9.193  18.057  0.00  0.00    +0.000 A 
ATOM     12  N   UNL     1       1.225   9.802  19.096  0.00  0.00    +0.000 NA
ATOM     13  C   UNL     1       1.118   9.088  20.240  0.00  0.00    +0.000 A 
ATOM     14  C   UNL     1       1.605   7.804  20.398  0.00  0.00    +0.000 A 
ENDBRANCH   5   9
BRANCH   3  15
ATOM     15  O   UNL     1       5.983   4.336  19.565  0.00  0.00    +0.000 OA
BRANCH  15  16
ATOM     16  C   UNL     1       6.836   5.504  19.617  0.00  0.00    +0.000 C 
BRANCH  16  17
ATOM     17  C   UNL     1       7.810   5.559  18.438  0.00  0.00    +0.000 C 
BRANCH  17  18
ATOM     18  O   UNL     1       7.570   4.420  17.606  0.00  0.00    +0.000 OA
BRANCH  18  19
ATOM     19  C   UNL     1       6.799   4.612  16.491  0.00  0.00    +0.000 A 
ATOM     20  C   UNL     1       6.147   5.847  16.424  0.00  0.00    +0.000 A 
ATOM     21  C   UNL     1       5.343   6.174  15.330  0.00  0.00    +0.000 A 
ATOM     22  C   UNL     1       5.198   5.270  14.281  0.00  0.00    +0.000 A 
ATOM     23  C   UNL     1       5.860   4.044  14.331  0.00  0.00    +0.000 A 
ATOM     24  C   UNL     1       6.660   3.712  15.431  0.00  0.00    +0.000 A 
ENDBRANCH  18  19
ENDBRANCH  17  18
ENDBRANCH  16  17
ENDBRANCH  15  16
ENDBRANCH   3  15
TORSDOF 6
ENDMDL
