MODEL 1
REMARK VINA RESULT:      -8.3      0.000      0.000
REMARK  Name = 
REMARK  7 active torsions:
REMARK  status: ('A' for Active; 'I' for Inactive)
REMARK    1  A    between atoms: C_2  and  OXT_3
REMARK    2  A    between atoms: C_2  and  CA_4
REMARK    3  A    between atoms: C_9  and  C_11
REMARK    4  A    between atoms: C_11  and  C_12
REMARK    5  A    between atoms: C_12  and  C_13
REMARK    6  A    between atoms: C_23  and  C_24
REMARK    7  A    between atoms: C_24  and  O_26
REMARK                            x       y       z     vdW  Elec       q    Type
REMARK                         _______ _______ _______ _____ _____    ______ ____
ROOT
ATOM      1  CA  UNL     1       5.522   4.539  15.958  0.00  0.00    +0.000 C 
ATOM      2  N   UNL     1       5.390   3.164  16.563  0.00  0.00    +0.000 NA
ATOM      3  C   UNL     1       4.221   3.169  17.477  0.00  0.00    +0.000 C 
ATOM      4  C   UNL     1       4.175   4.331  18.503  0.00  0.00    +0.000 C 
ATOM      5  N   UNL     1       4.466   5.642  17.890  0.00  0.00    +0.000 N 
ATOM      6  C   UNL     1       3.582   6.724  17.870  0.00  0.00    +0.000 C 
ATOM      7  O   UNL     1       3.858   7.764  17.275  0.00  0.00    +0.000 OA
ATOM      8  C   UNL     1       5.674   5.657  17.005  0.00  0.00    +0.000 C 
ATOM      9  H   UNL     1       6.234   2.995  17.129  0.00  0.00    +0.000 HD
ENDROOT
BRANCH   1  11
ATOM     10  O   UNL     1       7.489   5.457  14.849  0.00  0.00    +0.000 OA
ATOM     11  C   UNL     1       6.647   4.577  14.924  0.00  0.00    +0.000 C 
BRANCH  11  12
ATOM     12  OXT UNL     1       6.541   3.570  14.020  0.00  0.00    +0.000 OA
ATOM     13  HXT UNL     1       6.818   3.913  13.140  0.00  0.00    +0.000 HD
ENDBRANCH  11  12
ENDBRANCH   1  11
BRANCH   8  14
ATOM     14  C   UNL     1       6.951   5.469  17.840  0.00  0.00    +0.000 C 
ATOM     15  O   UNL     1       7.429   4.392  18.167  0.00  0.00    +0.000 OA
BRANCH  14  16
ATOM     16  O   UNL     1       7.527   6.640  18.210  0.00  0.00    +0.000 OA
ATOM     17  H   UNL     1       6.876   7.218  18.659  0.00  0.00    +0.000 HD
ENDBRANCH  14  16
ENDBRANCH   8  14
BRANCH   6  18
ATOM     18  C   UNL     1       2.284   6.559  18.644  0.00  0.00    +0.000 C 
BRANCH  18  19
ATOM     19  C   UNL     1       2.353   7.050  20.092  0.00  0.00    +0.000 C 
BRANCH  19  20
ATOM     20  C   UNL     1       1.486   8.277  20.288  0.00  0.00    +0.000 A 
ATOM     21  C   UNL     1       1.243   9.158  19.230  0.00  0.00    +0.000 A 
ATOM     22  C   UNL     1       0.427  10.281  19.412  0.00  0.00    +0.000 A 
ATOM     23  C   UNL     1      -0.170  10.546  20.655  0.00  0.00    +0.000 A 
ATOM     24  C   UNL     1      -0.985  11.674  20.855  0.00  0.00    +0.000 A 
ATOM     25  C   UNL     1      -1.570  11.920  22.100  0.00  0.00    +0.000 A 
ATOM     26  C   UNL     1      -1.348  11.042  23.157  0.00  0.00    +0.000 A 
ATOM     27  C   UNL     1      -0.539   9.919  22.972  0.00  0.00    +0.000 A 
ATOM     28  C   UNL     1       0.060   9.657  21.729  0.00  0.00    +0.000 A 
ATOM     29  C   UNL     1       0.883   8.533  21.530  0.00  0.00    +0.000 A 
ENDBRANCH  19  20
ENDBRANCH  18  19
ENDBRANCH   6  18
TORSDOF 7
ENDMDL
MODEL 2
REMARK VINA RESULT:      -8.2      3.040      3.883
REMARK  Name = 
REMARK  7 active torsions:
REMARK  status: ('A' for Active; 'I' for Inactive)
REMARK    1  A    between atoms: C_2  and  OXT_3
REMARK    2  A    between atoms: C_2  and  CA_4
REMARK    3  A    between atoms: C_9  and  C_11
REMARK    4  A    between atoms: C_11  and  C_12
REMARK    5  A    between atoms: C_12  and  C_13
REMARK    6  A    between atoms: C_23  and  C_24
REMARK    7  A    between atoms: C_24  and  O_26
REMARK                            x       y       z     vdW  Elec       q    Type
REMARK                         _______ _______ _______ _____ _____    ______ ____
ROOT
ATOM      1  CA  UNL     1       3.904   2.311  19.222  0.00  0.00    +0.000 C 
ATOM      2  N   UNL     1       2.951   1.512  18.367  0.00  0.00    +0.000 NA
ATOM      3  C   UNL     1       2.229   2.451  17.473  0.00  0.00    +0.000 C 
ATOM      4  C   UNL     1       1.593   3.684  18.167  0.00  0.00    +0.000 C 
ATOM      5  N   UNL     1       2.515   4.342  19.114  0.00  0.00    +0.000 N 
ATOM      6  C   UNL     1       2.954   5.664  19.008  0.00  0.00    +0.000 C 
ATOM      7  O   UNL     1       3.782   6.128  19.789  0.00  0.00    +0.000 OA
ATOM      8  C   UNL     1       3.209   3.405  20.053  0.00  0.00    +0.000 C 
ATOM      9  H   UNL     1       2.260   1.081  18.999  0.00  0.00    +0.000 HD
ENDROOT
BRANCH   1  11
ATOM     10  O   UNL     1       5.206   1.699  21.189  0.00  0.00    +0.000 OA
ATOM     11  C   UNL     1       4.757   1.392  20.096  0.00  0.00    +0.000 C 
BRANCH  11  12
ATOM     12  OXT UNL     1       5.054   0.226  19.469  0.00  0.00    +0.000 OA
ATOM     13  HXT UNL     1       5.608  -0.319  20.074  0.00  0.00    +0.000 HD
ENDBRANCH  11  12
ENDBRANCH   1  11
BRANCH   8  14
ATOM     14  C   UNL     1       2.204   2.799  21.045  0.00  0.00    +0.000 C 
ATOM     15  O   UNL     1       1.186   2.194  20.738  0.00  0.00    +0.000 OA
BRANCH  14  16
ATOM     16  O   UNL     1       2.542   3.002  22.343  0.00  0.00    +0.000 OA
ATOM     17  H   UNL     1       2.926   2.188  22.731  0.00  0.00    +0.000 HD
ENDBRANCH  14  16
ENDBRANCH   8  14
BRANCH   6  18
ATOM     18  C   UNL     1       2.332   6.503  17.902  0.00  0.00    +0.000 C 
BRANCH  18  19
ATOM     19  C   UNL     1       2.759   7.972  17.916  0.00  0.00    +0.000 C 
BRANCH  19  20
ATOM     20  C   UNL     1       1.804   8.804  18.745  0.00  0.00    +0.000 A 
ATOM     21  C   UNL     1       1.015   9.795  18.151  0.00  0.00    +0.000 A 
ATOM     22  C   UNL     1       0.121  10.549  18.920  0.00  0.00    +0.000 A 
ATOM     23  C   UNL     1      -0.011  10.327  20.300  0.00  0.00    +0.000 A 
ATOM     24  C   UNL     1      -0.899  11.082  21.086  0.00  0.00    +0.000 A 
ATOM     25  C   UNL     1      -1.016  10.845  22.458  0.00  0.00    +0.000 A 
ATOM     26  C   UNL     1      -0.248   9.852  23.059  0.00  0.00    +0.000 A 
ATOM     27  C   UNL     1       0.639   9.096  22.289  0.00  0.00    +0.000 A 
ATOM     28  C   UNL     1       0.772   9.322  20.910  0.00  0.00    +0.000 A 
ATOM     29  C   UNL     1       1.668   8.572  20.124  0.00  0.00    +0.000 A 
ENDBRANCH  19  20
ENDBRANCH  18  19
ENDBRANCH   6  18
TORSDOF 7
ENDMDL
MODEL 3
REMARK VINA RESULT:      -8.1      2.658      3.681
REMARK  Name = 
REMARK  7 active torsions:
REMARK  status: ('A' for Active; 'I' for Inactive)
REMARK    1  A    between atoms: C_2  and  OXT_3
REMARK    2  A    between atoms: C_2  and  CA_4
REMARK    3  A    between atoms: C_9  and  C_11
REMARK    4  A    between atoms: C_11  and  C_12
REMARK    5  A    between atoms: C_12  and  C_13
REMARK    6  A    between atoms: C_23  and  C_24
REMARK    7  A    between atoms: C_24  and  O_26
REMARK                            x       y       z     vdW  Elec       q    Type
REMARK                         _______ _______ _______ _____ _____    ______ ____
ROOT
ATOM      1  CA  UNL     1       4.443   3.609  19.617  0.00  0.00    +0.000 C 
ATOM      2  N   UNL     1       5.499   3.482  18.548  0.00  0.00    +0.000 NA
ATOM      3  C   UNL     1       5.622   4.790  17.859  0.00  0.00    +0.000 C 
ATOM      4  C   UNL     1       4.291   5.423  17.377  0.00  0.00    +0.000 C 
ATOM      5  N   UNL     1       3.236   5.382  18.408  0.00  0.00    +0.000 N 
ATOM      6  C   UNL     1       2.614   6.508  18.954  0.00  0.00    +0.000 C 
ATOM      7  O   UNL     1       1.795   6.407  19.866  0.00  0.00    +0.000 OA
ATOM      8  C   UNL     1       3.072   4.051  19.073  0.00  0.00    +0.000 C 
ATOM      9  H   UNL     1       5.160   2.792  17.862  0.00  0.00    +0.000 HD
ENDROOT
BRANCH   1  11
ATOM     10  O   UNL     1       3.648   2.195  21.437  0.00  0.00    +0.000 OA
ATOM     11  C   UNL     1       4.337   2.323  20.438  0.00  0.00    +0.000 C 
BRANCH  11  12
ATOM     12  OXT UNL     1       5.188   1.364  19.991  0.00  0.00    +0.000 OA
ATOM     13  HXT UNL     1       4.809   0.484  20.218  0.00  0.00    +0.000 HD
ENDBRANCH  11  12
ENDBRANCH   1  11
BRANCH   8  14
ATOM     14  C   UNL     1       2.507   3.022  18.081  0.00  0.00    +0.000 C 
ATOM     15  O   UNL     1       3.019   1.944  17.813  0.00  0.00    +0.000 OA
BRANCH  14  16
ATOM     16  O   UNL     1       1.351   3.422  17.492  0.00  0.00    +0.000 OA
ATOM     17  H   UNL     1       0.924   2.673  17.029  0.00  0.00    +0.000 HD
ENDBRANCH  14  16
ENDBRANCH   8  14
BRANCH   6  18
ATOM     18  C   UNL     1       2.977   7.852  18.342  0.00  0.00    +0.000 C 
BRANCH  18  19
ATOM     19  C   UNL     1       1.786   8.615  17.756  0.00  0.00    +0.000 C 
BRANCH  19  20
ATOM     20  C   UNL     1       1.410   9.788  18.637  0.00  0.00    +0.000 A 
ATOM     21  C   UNL     1       1.813  11.087  18.312  0.00  0.00    +0.000 A 
ATOM     22  C   UNL     1       1.448  12.169  19.120  0.00  0.00    +0.000 A 
ATOM     23  C   UNL     1       0.666  11.980  20.270  0.00  0.00    +0.000 A 
ATOM     24  C   UNL     1       0.298  13.057  21.097  0.00  0.00    +0.000 A 
ATOM     25  C   UNL     1      -0.481  12.847  22.237  0.00  0.00    +0.000 A 
ATOM     26  C   UNL     1      -0.902  11.561  22.564  0.00  0.00    +0.000 A 
ATOM     27  C   UNL     1      -0.543  10.483  21.753  0.00  0.00    +0.000 A 
ATOM     28  C   UNL     1       0.243  10.674  20.604  0.00  0.00    +0.000 A 
ATOM     29  C   UNL     1       0.619   9.595  19.781  0.00  0.00    +0.000 A 
ENDBRANCH  19  20
ENDBRANCH  18  19
ENDBRANCH   6  18
TORSDOF 7
ENDMDL
MODEL 4
REMARK VINA RESULT:      -8.0      2.938      4.360
REMARK  Name = 
REMARK  7 active torsions:
REMARK  status: ('A' for Active; 'I' for Inactive)
REMARK    1  A    between atoms: C_2  and  OXT_3
REMARK    2  A    between atoms: C_2  and  CA_4
REMARK    3  A    between atoms: C_9  and  C_11
REMARK    4  A    between atoms: C_11  and  C_12
REMARK    5  A    between atoms: C_12  and  C_13
REMARK    6  A    between atoms: C_23  and  C_24
REMARK    7  A    between atoms: C_24  and  O_26
REMARK                            x       y       z     vdW  Elec       q    Type
REMARK                         _______ _______ _______ _____ _____    ______ ____
ROOT
ATOM      1  CA  UNL     1       4.410   3.610  19.523  0.00  0.00    +0.000 C 
ATOM      2  N   UNL     1       5.399   3.434  18.396  0.00  0.00    +0.000 NA
ATOM      3  C   UNL     1       5.505   4.722  17.667  0.00  0.00    +0.000 C 
ATOM      4  C   UNL     1       4.159   5.370  17.248  0.00  0.00    +0.000 C 
ATOM      5  N   UNL     1       3.167   5.376  18.341  0.00  0.00    +0.000 N 
ATOM      6  C   UNL     1       2.600   6.528  18.893  0.00  0.00    +0.000 C 
ATOM      7  O   UNL     1       1.836   6.467  19.853  0.00  0.00    +0.000 OA
ATOM      8  C   UNL     1       3.018   4.066  19.049  0.00  0.00    +0.000 C 
ATOM      9  H   UNL     1       5.006   2.735  17.750  0.00  0.00    +0.000 HD
ENDROOT
BRANCH   1  11
ATOM     10  O   UNL     1       3.696   2.258  21.422  0.00  0.00    +0.000 OA
ATOM     11  C   UNL     1       4.329   2.348  20.382  0.00  0.00    +0.000 C 
BRANCH  11  12
ATOM     12  OXT UNL     1       5.137   1.362  19.914  0.00  0.00    +0.000 OA
ATOM     13  HXT UNL     1       4.856   0.511  20.322  0.00  0.00    +0.000 HD
ENDBRANCH  11  12
ENDBRANCH   1  11
BRANCH   8  14
ATOM     14  C   UNL     1       2.375   3.024  18.119  0.00  0.00    +0.000 C 
ATOM     15  O   UNL     1       2.945   2.047  17.653  0.00  0.00    +0.000 OA
BRANCH  14  16
ATOM     16  O   UNL     1       1.075   3.288  17.835  0.00  0.00    +0.000 OA
ATOM     17  H   UNL     1       0.629   2.487  17.491  0.00  0.00    +0.000 HD
ENDBRANCH  14  16
ENDBRANCH   8  14
BRANCH   6  18
ATOM     18  C   UNL     1       2.951   7.849  18.225  0.00  0.00    +0.000 C 
BRANCH  18  19
ATOM     19  C   UNL     1       1.748   8.594  17.641  0.00  0.00    +0.000 C 
BRANCH  19  20
ATOM     20  C   UNL     1       1.506   9.892  18.382  0.00  0.00    +0.000 A 
ATOM     21  C   UNL     1       0.656   9.936  19.492  0.00  0.00    +0.000 A 
ATOM     22  C   UNL     1       0.449  11.135  20.182  0.00  0.00    +0.000 A 
ATOM     23  C   UNL     1       1.091  12.319  19.785  0.00  0.00    +0.000 A 
ATOM     24  C   UNL     1       0.887  13.533  20.464  0.00  0.00    +0.000 A 
ATOM     25  C   UNL     1       1.536  14.699  20.052  0.00  0.00    +0.000 A 
ATOM     26  C   UNL     1       2.396  14.665  18.959  0.00  0.00    +0.000 A 
ATOM     27  C   UNL     1       2.607  13.467  18.274  0.00  0.00    +0.000 A 
ATOM     28  C   UNL     1       1.961  12.285  18.671  0.00  0.00    +0.000 A 
ATOM     29  C   UNL     1       2.158  11.071  17.986  0.00  0.00    +0.000 A 
ENDBRANCH  19  20
ENDBRANCH  18  19
ENDBRANCH   6  18
TORSDOF 7
ENDMDL
MODEL 5
REMARK VINA RESULT:      -8.0      1.834      3.302
REMARK  Name = 
REMARK  7 active torsions:
REMARK  status: ('A' for Active; 'I' for Inactive)
REMARK    1  A    between atoms: C_2  and  OXT_3
REMARK    2  A    between atoms: C_2  and  CA_4
REMARK    3  A    between atoms: C_9  and  C_11
REMARK    4  A    between atoms: C_11  and  C_12
REMARK    5  A    between atoms: C_12  and  C_13
REMARK    6  A    between atoms: C_23  and  C_24
REMARK    7  A    between atoms: C_24  and  O_26
REMARK                            x       y       z     vdW  Elec       q    Type
REMARK                         _______ _______ _______ _____ _____    ______ ____
ROOT
ATOM      1  CA  UNL     1       6.504   6.698  17.617  0.00  0.00    +0.000 C 
ATOM      2  N   UNL     1       6.079   6.900  16.183  0.00  0.00    +0.000 NA
ATOM      3  C   UNL     1       4.805   6.171  15.969  0.00  0.00    +0.000 C 
ATOM      4  C   UNL     1       4.788   4.694  16.444  0.00  0.00    +0.000 C 
ATOM      5  N   UNL     1       5.359   4.525  17.795  0.00  0.00    +0.000 N 
ATOM      6  C   UNL     1       4.661   4.022  18.896  0.00  0.00    +0.000 C 
ATOM      7  O   UNL     1       5.173   3.979  20.012  0.00  0.00    +0.000 OA
ATOM      8  C   UNL     1       6.670   5.217  18.003  0.00  0.00    +0.000 C 
ATOM      9  H   UNL     1       6.798   6.465  15.587  0.00  0.00    +0.000 HD
ENDROOT
BRANCH   1  11
ATOM     10  O   UNL     1       8.157   8.457  17.276  0.00  0.00    +0.000 OA
ATOM     11  C   UNL     1       7.759   7.510  17.936  0.00  0.00    +0.000 C 
BRANCH  11  12
ATOM     12  OXT UNL     1       8.451   6.988  18.981  0.00  0.00    +0.000 OA
ATOM     13  HXT UNL     1       7.856   6.965  19.765  0.00  0.00    +0.000 HD
ENDBRANCH  11  12
ENDBRANCH   1  11
BRANCH   8  14
ATOM     14  C   UNL     1       7.770   4.542  17.168  0.00  0.00    +0.000 C 
ATOM     15  O   UNL     1       7.844   4.565  15.947  0.00  0.00    +0.000 OA
BRANCH  14  16
ATOM     16  O   UNL     1       8.688   3.884  17.920  0.00  0.00    +0.000 OA
ATOM     17  H   UNL     1       8.575   2.915  17.830  0.00  0.00    +0.000 HD
ENDBRANCH  14  16
ENDBRANCH   8  14
BRANCH   6  18
ATOM     18  C   UNL     1       3.254   3.506  18.635  0.00  0.00    +0.000 C 
BRANCH  18  19
ATOM     19  C   UNL     1       2.206   4.019  19.625  0.00  0.00    +0.000 C 
BRANCH  19  20
ATOM     20  C   UNL     1       2.018   5.515  19.484  0.00  0.00    +0.000 A 
ATOM     21  C   UNL     1       2.172   6.144  18.244  0.00  0.00    +0.000 A 
ATOM     22  C   UNL     1       1.980   7.524  18.117  0.00  0.00    +0.000 A 
ATOM     23  C   UNL     1       1.624   8.309  19.225  0.00  0.00    +0.000 A 
ATOM     24  C   UNL     1       1.436   9.698  19.114  0.00  0.00    +0.000 A 
ATOM     25  C   UNL     1       1.081  10.462  20.229  0.00  0.00    +0.000 A 
ATOM     26  C   UNL     1       0.911   9.847  21.465  0.00  0.00    +0.000 A 
ATOM     27  C   UNL     1       1.096   8.468  21.590  0.00  0.00    +0.000 A 
ATOM     28  C   UNL     1       1.455   7.685  20.481  0.00  0.00    +0.000 A 
ATOM     29  C   UNL     1       1.652   6.295  20.593  0.00  0.00    +0.000 A 
ENDBRANCH  19  20
ENDBRANCH  18  19
ENDBRANCH   6  18
TORSDOF 7
ENDMDL
MODEL 6
REMARK VINA RESULT:      -7.9      2.723      3.721
REMARK  Name = 
REMARK  7 active torsions:
REMARK  status: ('A' for Active; 'I' for Inactive)
REMARK    1  A    between atoms: C_2  and  OXT_3
REMARK    2  A    between atoms: C_2  and  CA_4
REMARK    3  A    between atoms: C_9  and  C_11
REMARK    4  A    between atoms: C_11  and  C_12
REMARK    5  A    between atoms: C_12  and  C_13
REMARK    6  A    between atoms: C_23  and  C_24
REMARK    7  A    between atoms: C_24  and  O_26
REMARK                            x       y       z     vdW  Elec       q    Type
REMARK                         _______ _______ _______ _____ _____    ______ ____
ROOT
ATOM      1  CA  UNL     1       4.362   3.731  19.578  0.00  0.00    +0.000 C 
ATOM      2  N   UNL     1       5.387   3.689  18.471  0.00  0.00    +0.000 NA
ATOM      3  C   UNL     1       5.463   5.037  17.857  0.00  0.00    +0.000 C 
ATOM      4  C   UNL     1       4.105   5.669  17.454  0.00  0.00    +0.000 C 
ATOM      5  N   UNL     1       3.084   5.547  18.513  0.00  0.00    +0.000 N 
ATOM      6  C   UNL     1       2.459   6.626  19.142  0.00  0.00    +0.000 C 
ATOM      7  O   UNL     1       1.671   6.455  20.071  0.00  0.00    +0.000 OA
ATOM      8  C   UNL     1       2.967   4.176  19.103  0.00  0.00    +0.000 C 
ATOM      9  H   UNL     1       5.039   3.034  17.756  0.00  0.00    +0.000 HD
ENDROOT
BRANCH   1  11
ATOM     10  O   UNL     1       3.702   2.214  21.369  0.00  0.00    +0.000 OA
ATOM     11  C   UNL     1       4.307   2.398  20.324  0.00  0.00    +0.000 C 
BRANCH  11  12
ATOM     12  OXT UNL     1       5.103   1.461  19.750  0.00  0.00    +0.000 OA
ATOM     13  HXT UNL     1       5.962   1.447  20.230  0.00  0.00    +0.000 HD
ENDBRANCH  11  12
ENDBRANCH   1  11
BRANCH   8  14
ATOM     14  C   UNL     1       2.390   3.195  18.069  0.00  0.00    +0.000 C 
ATOM     15  O   UNL     1       2.936   2.168  17.689  0.00  0.00    +0.000 OA
BRANCH  14  16
ATOM     16  O   UNL     1       1.183   3.576  17.582  0.00  0.00    +0.000 OA
ATOM     17  H   UNL     1       1.111   3.357  16.630  0.00  0.00    +0.000 HD
ENDBRANCH  14  16
ENDBRANCH   8  14
BRANCH   6  18
ATOM     18  C   UNL     1       2.776   8.011  18.600  0.00  0.00    +0.000 C 
BRANCH  18  19
ATOM     19  C   UNL     1       1.754   8.537  17.590  0.00  0.00    +0.000 C 
BRANCH  19  20
ATOM     20  C   UNL     1       0.756   9.457  18.262  0.00  0.00    +0.000 A 
ATOM     21  C   UNL     1      -0.476   9.738  17.663  0.00  0.00    +0.000 A 
ATOM     22  C   UNL     1      -1.401  10.575  18.297  0.00  0.00    +0.000 A 
ATOM     23  C   UNL     1      -1.119  11.148  19.547  0.00  0.00    +0.000 A 
ATOM     24  C   UNL     1      -2.035  11.998  20.192  0.00  0.00    +0.000 A 
ATOM     25  C   UNL     1      -1.735  12.558  21.436  0.00  0.00    +0.000 A 
ATOM     26  C   UNL     1      -0.518  12.275  22.050  0.00  0.00    +0.000 A 
ATOM     27  C   UNL     1       0.401  11.434  21.419  0.00  0.00    +0.000 A 
ATOM     28  C   UNL     1       0.118  10.864  20.167  0.00  0.00    +0.000 A 
ATOM     29  C   UNL     1       1.039  10.020  19.517  0.00  0.00    +0.000 A 
ENDBRANCH  19  20
ENDBRANCH  18  19
ENDBRANCH   6  18
TORSDOF 7
ENDMDL
MODEL 7
REMARK VINA RESULT:      -7.8      4.283      8.609
REMARK  Name = 
REMARK  7 active torsions:
REMARK  status: ('A' for Active; 'I' for Inactive)
REMARK    1  A    between atoms: C_2  and  OXT_3
REMARK    2  A    between atoms: C_2  and  CA_4
REMARK    3  A    between atoms: C_9  and  C_11
REMARK    4  A    between atoms: C_11  and  C_12
REMARK    5  A    between atoms: C_12  and  C_13
REMARK    6  A    between atoms: C_23  and  C_24
REMARK    7  A    between atoms: C_24  and  O_26
REMARK                            x       y       z     vdW  Elec       q    Type
REMARK                         _______ _______ _______ _____ _____    ______ ____
ROOT
ATOM      1  CA  UNL     1       1.134  12.324  20.867  0.00  0.00    +0.000 C 
ATOM      2  N   UNL     1       0.123  11.628  21.744  0.00  0.00    +0.000 NA
ATOM      3  C   UNL     1       0.029  10.212  21.310  0.00  0.00    +0.000 C 
ATOM      4  C   UNL     1      -0.175   9.988  19.789  0.00  0.00    +0.000 C 
ATOM      5  N   UNL     1       0.733  10.811  18.966  0.00  0.00    +0.000 N 
ATOM      6  C   UNL     1       1.680  10.301  18.074  0.00  0.00    +0.000 C 
ATOM      7  O   UNL     1       2.458  11.040  17.475  0.00  0.00    +0.000 OA
ATOM      8  C   UNL     1       0.795  12.252  19.366  0.00  0.00    +0.000 C 
ATOM      9  H   UNL     1      -0.789  12.073  21.573  0.00  0.00    +0.000 HD
ENDROOT
BRANCH   1  11
ATOM     10  O   UNL     1       2.227  14.504  20.891  0.00  0.00    +0.000 OA
ATOM     11  C   UNL     1       1.358  13.765  21.327  0.00  0.00    +0.000 C 
BRANCH  11  12
ATOM     12  OXT UNL     1       0.546  14.100  22.362  0.00  0.00    +0.000 OA
ATOM     13  HXT UNL     1      -0.361  13.774  22.162  0.00  0.00    +0.000 HD
ENDBRANCH  11  12
ENDBRANCH   1  11
BRANCH   8  14
ATOM     14  C   UNL     1      -0.540  12.951  19.062  0.00  0.00    +0.000 C 
ATOM     15  O   UNL     1      -1.356  13.311  19.899  0.00  0.00    +0.000 OA
BRANCH  14  16
ATOM     16  O   UNL     1      -0.757  13.138  17.736  0.00  0.00    +0.000 OA
ATOM     17  H   UNL     1      -1.239  12.374  17.355  0.00  0.00    +0.000 HD
ENDBRANCH  14  16
ENDBRANCH   8  14
BRANCH   6  18
ATOM     18  C   UNL     1       1.675   8.795  17.861  0.00  0.00    +0.000 C 
BRANCH  18  19
ATOM     19  C   UNL     1       3.069   8.165  17.819  0.00  0.00    +0.000 C 
BRANCH  19  20
ATOM     20  C   UNL     1       3.006   6.692  18.166  0.00  0.00    +0.000 A 
ATOM     21  C   UNL     1       3.779   5.757  17.468  0.00  0.00    +0.000 A 
ATOM     22  C   UNL     1       3.729   4.400  17.804  0.00  0.00    +0.000 A 
ATOM     23  C   UNL     1       2.910   3.943  18.849  0.00  0.00    +0.000 A 
ATOM     24  C   UNL     1       2.844   2.581  19.193  0.00  0.00    +0.000 A 
ATOM     25  C   UNL     1       2.023   2.148  20.236  0.00  0.00    +0.000 A 
ATOM     26  C   UNL     1       1.261   3.069  20.949  0.00  0.00    +0.000 A 
ATOM     27  C   UNL     1       1.316   4.425  20.617  0.00  0.00    +0.000 A 
ATOM     28  C   UNL     1       2.133   4.879  19.569  0.00  0.00    +0.000 A 
ATOM     29  C   UNL     1       2.193   6.241  19.218  0.00  0.00    +0.000 A 
ENDBRANCH  19  20
ENDBRANCH  18  19
ENDBRANCH   6  18
TORSDOF 7
ENDMDL
MODEL 8
REMARK VINA RESULT:      -7.8      2.742      3.686
REMARK  Name = 
REMARK  7 active torsions:
REMARK  status: ('A' for Active; 'I' for Inactive)
REMARK    1  A    between atoms: C_2  and  OXT_3
REMARK    2  A    between atoms: C_2  and  CA_4
REMARK    3  A    between atoms: C_9  and  C_11
REMARK    4  A    between atoms: C_11  and  C_12
REMARK    5  A    between atoms: C_12  and  C_13
REMARK    6  A    between atoms: C_23  and  C_24
REMARK    7  A    between atoms: C_24  and  O_26
REMARK                            x       y       z     vdW  Elec       q    Type
REMARK                         _______ _______ _______ _____ _____    ______ ____
ROOT
ATOM      1  CA  UNL     1       4.337   3.229  19.348  0.00  0.00    +0.000 C 
ATOM      2  N   UNL     1       5.078   3.680  18.114  0.00  0.00    +0.000 NA
ATOM      3  C   UNL     1       4.820   5.128  17.921  0.00  0.00    +0.000 C 
ATOM      4  C   UNL     1       3.330   5.557  17.970  0.00  0.00    +0.000 C 
ATOM      5  N   UNL     1       2.605   4.963  19.110  0.00  0.00    +0.000 N 
ATOM      6  C   UNL     1       1.992   5.695  20.131  0.00  0.00    +0.000 C 
ATOM      7  O   UNL     1       1.470   5.136  21.093  0.00  0.00    +0.000 OA
ATOM      8  C   UNL     1       2.821   3.492  19.282  0.00  0.00    +0.000 C 
ATOM      9  H   UNL     1       4.674   3.175  17.312  0.00  0.00    +0.000 HD
ENDROOT
BRANCH   1  11
ATOM     10  O   UNL     1       5.207   1.380  20.678  0.00  0.00    +0.000 OA
ATOM     11  C   UNL     1       4.643   1.765  19.666  0.00  0.00    +0.000 C 
BRANCH  11  12
ATOM     12  OXT UNL     1       4.314   0.942  18.638  0.00  0.00    +0.000 OA
ATOM     13  HXT UNL     1       4.543   1.394  17.794  0.00  0.00    +0.000 HD
ENDBRANCH  11  12
ENDBRANCH   1  11
BRANCH   8  14
ATOM     14  C   UNL     1       2.170   2.716  18.125  0.00  0.00    +0.000 C 
ATOM     15  O   UNL     1       2.377   2.917  16.936  0.00  0.00    +0.000 OA
BRANCH  14  16
ATOM     16  O   UNL     1       1.305   1.758  18.541  0.00  0.00    +0.000 OA
ATOM     17  H   UNL     1       1.260   1.735  19.519  0.00  0.00    +0.000 HD
ENDBRANCH  14  16
ENDBRANCH   8  14
BRANCH   6  18
ATOM     18  C   UNL     1       1.978   7.208  19.973  0.00  0.00    +0.000 C 
BRANCH  18  19
ATOM     19  C   UNL     1       1.742   7.971  21.278  0.00  0.00    +0.000 C 
BRANCH  19  20
ATOM     20  C   UNL     1       0.807   9.141  21.057  0.00  0.00    +0.000 A 
ATOM     21  C   UNL     1       0.575   9.640  19.771  0.00  0.00    +0.000 A 
ATOM     22  C   UNL     1      -0.303  10.712  19.571  0.00  0.00    +0.000 A 
ATOM     23  C   UNL     1      -0.975  11.306  20.650  0.00  0.00    +0.000 A 
ATOM     24  C   UNL     1      -1.854  12.388  20.465  0.00  0.00    +0.000 A 
ATOM     25  C   UNL     1      -2.513  12.965  21.553  0.00  0.00    +0.000 A 
ATOM     26  C   UNL     1      -2.303  12.469  22.836  0.00  0.00    +0.000 A 
ATOM     27  C   UNL     1      -1.431  11.396  23.034  0.00  0.00    +0.000 A 
ATOM     28  C   UNL     1      -0.757  10.804  21.953  0.00  0.00    +0.000 A 
ATOM     29  C   UNL     1       0.130   9.727  22.138  0.00  0.00    +0.000 A 
ENDBRANCH  19  20
ENDBRANCH  18  19
ENDBRANCH   6  18
TORSDOF 7
ENDMDL
MODEL 9
REMARK VINA RESULT:      -7.8      2.926      4.124
REMARK  Name = 
REMARK  7 active torsions:
REMARK  status: ('A' for Active; 'I' for Inactive)
REMARK    1  A    between atoms: C_2  and  OXT_3
REMARK    2  A    between atoms: C_2  and  CA_4
REMARK    3  A    between atoms: C_9  and  C_11
REMARK    4  A    between atoms: C_11  and  C_12
REMARK    5  A    between atoms: C_12  and  C_13
REMARK    6  A    between atoms: C_23  and  C_24
REMARK    7  A    between atoms: C_24  and  O_26
REMARK                            x       y       z     vdW  Elec       q    Type
REMARK                         _______ _______ _______ _____ _____    ______ ____
ROOT
ATOM      1  CA  UNL     1       4.245   3.789  19.496  0.00  0.00    +0.000 C 
ATOM      2  N   UNL     1       5.124   3.636  18.280  0.00  0.00    +0.000 NA
ATOM      3  C   UNL     1       5.207   4.951  17.598  0.00  0.00    +0.000 C 
ATOM      4  C   UNL     1       3.851   5.655  17.329  0.00  0.00    +0.000 C 
ATOM      5  N   UNL     1       2.960   5.641  18.506  0.00  0.00    +0.000 N 
ATOM      6  C   UNL     1       2.482   6.783  19.154  0.00  0.00    +0.000 C 
ATOM      7  O   UNL     1       1.804   6.701  20.176  0.00  0.00    +0.000 OA
ATOM      8  C   UNL     1       2.832   4.305  19.169  0.00  0.00    +0.000 C 
ATOM      9  H   UNL     1       4.653   2.977  17.643  0.00  0.00    +0.000 HD
ENDROOT
BRANCH   1  11
ATOM     10  O   UNL     1       3.516   2.323  21.303  0.00  0.00    +0.000 OA
ATOM     11  C   UNL     1       4.200   2.493  20.306  0.00  0.00    +0.000 C 
BRANCH  11  12
ATOM     12  OXT UNL     1       5.096   1.579  19.853  0.00  0.00    +0.000 OA
ATOM     13  HXT UNL     1       5.257   1.750  18.897  0.00  0.00    +0.000 HD
ENDBRANCH  11  12
ENDBRANCH   1  11
BRANCH   8  14
ATOM     14  C   UNL     1       2.076   3.325  18.258  0.00  0.00    +0.000 C 
ATOM     15  O   UNL     1       1.157   3.623  17.508  0.00  0.00    +0.000 OA
BRANCH  14  16
ATOM     16  O   UNL     1       2.518   2.046  18.361  0.00  0.00    +0.000 OA
ATOM     17  H   UNL     1       3.378   2.016  18.829  0.00  0.00    +0.000 HD
ENDBRANCH  14  16
ENDBRANCH   8  14
BRANCH   6  18
ATOM     18  C   UNL     1       2.815   8.122  18.513  0.00  0.00    +0.000 C 
BRANCH  18  19
ATOM     19  C   UNL     1       1.736   8.646  17.564  0.00  0.00    +0.000 C 
BRANCH  19  20
ATOM     20  C   UNL     1       0.779   9.569  18.291  0.00  0.00    +0.000 A 
ATOM     21  C   UNL     1       1.175  10.240  19.453  0.00  0.00    +0.000 A 
ATOM     22  C   UNL     1       0.293  11.104  20.111  0.00  0.00    +0.000 A 
ATOM     23  C   UNL     1      -1.004  11.323  19.621  0.00  0.00    +0.000 A 
ATOM     24  C   UNL     1      -1.905  12.182  20.276  0.00  0.00    +0.000 A 
ATOM     25  C   UNL     1      -3.191  12.387  19.771  0.00  0.00    +0.000 A 
ATOM     26  C   UNL     1      -3.592  11.737  18.608  0.00  0.00    +0.000 A 
ATOM     27  C   UNL     1      -2.709  10.880  17.948  0.00  0.00    +0.000 A 
ATOM     28  C   UNL     1      -1.412  10.659  18.442  0.00  0.00    +0.000 A 
ATOM     29  C   UNL     1      -0.514   9.793  17.792  0.00  0.00    +0.000 A 
ENDBRANCH  19  20
ENDBRANCH  18  19
ENDBRANCH   6  18
TORSDOF 7
ENDMDL
