MODEL 1
REMARK VINA RESULT:      -7.4      0.000      0.000
REMARK  Name = 
REMARK  6 active torsions:
REMARK  status: ('A' for Active; 'I' for Inactive)
REMARK    1  A    between atoms: C_1  and  C_2
REMARK    2  A    between atoms: C_4  and  C_5
REMARK    3  A    between atoms: C_5  and  C_6
REMARK    4  A    between atoms: C_5  and  N_7
REMARK    5  A    between atoms: N_7  and  C_8
REMARK    6  A    between atoms: C_16  and  N_17
REMARK                            x       y       z     vdW  Elec       q    Type
REMARK                         _______ _______ _______ _____ _____    ______ ____
ROOT
ATOM      1  C   UNL     1      -3.316  10.193  14.571  0.00  0.00    +0.000 C 
ATOM      2  C   UNL     1      -3.325  10.784  15.948  0.00  0.00    +0.000 A 
ATOM      3  C   UNL     1      -2.081  11.191  16.554  0.00  0.00    +0.000 A 
ATOM      4  C   UNL     1      -2.012  11.725  17.791  0.00  0.00    +0.000 A 
ATOM      5  C   UNL     1      -3.308  11.897  18.555  0.00  0.00    +0.000 A 
ATOM      6  N   UNL     1      -3.304  12.433  19.738  0.00  0.00    +0.000 NA
ATOM      7  C   UNL     1      -4.467  12.500  20.467  0.00  0.00    +0.000 A 
ATOM      8  C   UNL     1      -5.621  12.053  19.950  0.00  0.00    +0.000 A 
ATOM      9  C   UNL     1      -5.679  11.503  18.604  0.00  0.00    +0.000 A 
ATOM     10  O   UNL     1      -6.765  11.128  18.160  0.00  0.00    +0.000 OA
ATOM     11  N   UNL     1      -4.469  11.433  17.936  0.00  0.00    +0.000 N 
ATOM     12  C   UNL     1      -4.453  10.903  16.655  0.00  0.00    +0.000 A 
ENDROOT
BRANCH   7  13
ATOM     13  N   UNL     1      -4.453  13.019  21.762  0.00  0.00    +0.000 N 
ATOM     14  C   UNL     1      -3.238  13.031  22.598  0.00  0.00    +0.000 C 
ATOM     15  C   UNL     1      -3.498  12.336  23.941  0.00  0.00    +0.000 C 
ATOM     16  O   UNL     1      -4.631  12.906  24.623  0.00  0.00    +0.000 OA
ATOM     17  C   UNL     1      -5.807  12.785  23.808  0.00  0.00    +0.000 C 
ATOM     18  C   UNL     1      -5.642  13.525  22.472  0.00  0.00    +0.000 C 
ENDBRANCH   7  13
BRANCH   4  19
ATOM     19  C   UNL     1      -0.704  12.005  18.536  0.00  0.00    +0.000 C 
ATOM     20  C   UNL     1      -0.664  13.461  19.042  0.00  0.00    +0.000 C 
BRANCH  19  21
ATOM     21  N   UNL     1      -0.582  11.066  19.671  0.00  0.00    +0.000 N 
ATOM     22  H   UNL     1      -1.496  10.696  19.931  0.00  0.00    +0.000 HD
BRANCH  21  23
ATOM     23  C   UNL     1       0.325   9.990  19.583  0.00  0.00    +0.000 A 
ATOM     24  C   UNL     1       0.607   9.112  20.635  0.00  0.00    +0.000 A 
ATOM     25  C   UNL     1       1.524   8.064  20.496  0.00  0.00    +0.000 A 
ATOM     26  C   UNL     1       2.146   7.839  19.276  0.00  0.00    +0.000 A 
ATOM     27  C   UNL     1       1.814   8.637  18.186  0.00  0.00    +0.000 A 
ATOM     28  C   UNL     1       0.900   9.688  18.336  0.00  0.00    +0.000 A 
ENDBRANCH  21  23
ENDBRANCH  19  21
ENDBRANCH   4  19
TORSDOF 4
ENDMDL
MODEL 2
REMARK VINA RESULT:      -7.4      6.102      9.508
REMARK  Name = 
REMARK  6 active torsions:
REMARK  status: ('A' for Active; 'I' for Inactive)
REMARK    1  A    between atoms: C_1  and  C_2
REMARK    2  A    between atoms: C_4  and  C_5
REMARK    3  A    between atoms: C_5  and  C_6
REMARK    4  A    between atoms: C_5  and  N_7
REMARK    5  A    between atoms: N_7  and  C_8
REMARK    6  A    between atoms: C_16  and  N_17
REMARK                            x       y       z     vdW  Elec       q    Type
REMARK                         _______ _______ _______ _____ _____    ______ ____
ROOT
ATOM      1  C   UNL     1       4.088   0.876  18.351  0.00  0.00    +0.000 C 
ATOM      2  C   UNL     1       3.768   2.340  18.374  0.00  0.00    +0.000 A 
ATOM      3  C   UNL     1       4.374   3.214  17.401  0.00  0.00    +0.000 A 
ATOM      4  C   UNL     1       4.138   4.542  17.366  0.00  0.00    +0.000 A 
ATOM      5  C   UNL     1       3.191   5.115  18.398  0.00  0.00    +0.000 A 
ATOM      6  N   UNL     1       2.904   6.382  18.392  0.00  0.00    +0.000 NA
ATOM      7  C   UNL     1       2.122   6.915  19.387  0.00  0.00    +0.000 A 
ATOM      8  C   UNL     1       1.612   6.129  20.348  0.00  0.00    +0.000 A 
ATOM      9  C   UNL     1       1.859   4.695  20.355  0.00  0.00    +0.000 A 
ATOM     10  O   UNL     1       1.350   4.008  21.242  0.00  0.00    +0.000 OA
ATOM     11  N   UNL     1       2.681   4.226  19.345  0.00  0.00    +0.000 N 
ATOM     12  C   UNL     1       2.970   2.871  19.305  0.00  0.00    +0.000 A 
ENDROOT
BRANCH   7  13
ATOM     13  N   UNL     1       1.863   8.286  19.417  0.00  0.00    +0.000 N 
ATOM     14  C   UNL     1       1.405   8.979  20.635  0.00  0.00    +0.000 C 
ATOM     15  C   UNL     1       0.101   9.742  20.365  0.00  0.00    +0.000 C 
ATOM     16  O   UNL     1       0.232  10.640  19.247  0.00  0.00    +0.000 OA
ATOM     17  C   UNL     1       0.588   9.905  18.066  0.00  0.00    +0.000 C 
ATOM     18  C   UNL     1       1.927   9.174  18.242  0.00  0.00    +0.000 C 
ENDBRANCH   7  13
BRANCH   4  19
ATOM     19  C   UNL     1       4.892   5.527  16.467  0.00  0.00    +0.000 C 
ATOM     20  C   UNL     1       5.127   6.864  17.198  0.00  0.00    +0.000 C 
BRANCH  19  21
ATOM     21  N   UNL     1       6.183   4.928  16.069  0.00  0.00    +0.000 N 
ATOM     22  H   UNL     1       6.377   4.092  16.620  0.00  0.00    +0.000 HD
BRANCH  21  23
ATOM     23  C   UNL     1       6.417   4.630  14.711  0.00  0.00    +0.000 A 
ATOM     24  C   UNL     1       5.623   3.767  13.948  0.00  0.00    +0.000 A 
ATOM     25  C   UNL     1       5.907   3.499  12.604  0.00  0.00    +0.000 A 
ATOM     26  C   UNL     1       6.971   4.132  11.976  0.00  0.00    +0.000 A 
ATOM     27  C   UNL     1       7.720   5.066  12.683  0.00  0.00    +0.000 A 
ATOM     28  C   UNL     1       7.433   5.323  14.030  0.00  0.00    +0.000 A 
ENDBRANCH  21  23
ENDBRANCH  19  21
ENDBRANCH   4  19
TORSDOF 4
ENDMDL
MODEL 3
REMARK VINA RESULT:      -7.4      1.990      5.390
REMARK  Name = 
REMARK  6 active torsions:
REMARK  status: ('A' for Active; 'I' for Inactive)
REMARK    1  A    between atoms: C_1  and  C_2
REMARK    2  A    between atoms: C_4  and  C_5
REMARK    3  A    between atoms: C_5  and  C_6
REMARK    4  A    between atoms: C_5  and  N_7
REMARK    5  A    between atoms: N_7  and  C_8
REMARK    6  A    between atoms: C_16  and  N_17
REMARK                            x       y       z     vdW  Elec       q    Type
REMARK                         _______ _______ _______ _____ _____    ______ ____
ROOT
ATOM      1  C   UNL     1       1.476   8.827  17.673  0.00  0.00    +0.000 C 
ATOM      2  C   UNL     1       0.407   9.711  18.241  0.00  0.00    +0.000 A 
ATOM      3  C   UNL     1      -0.797   9.946  17.483  0.00  0.00    +0.000 A 
ATOM      4  C   UNL     1      -1.798  10.734  17.928  0.00  0.00    +0.000 A 
ATOM      5  C   UNL     1      -1.629  11.384  19.285  0.00  0.00    +0.000 A 
ATOM      6  N   UNL     1      -2.573  12.128  19.776  0.00  0.00    +0.000 NA
ATOM      7  C   UNL     1      -2.379  12.794  20.962  0.00  0.00    +0.000 A 
ATOM      8  C   UNL     1      -1.232  12.649  21.644  0.00  0.00    +0.000 A 
ATOM      9  C   UNL     1      -0.174  11.776  21.158  0.00  0.00    +0.000 A 
ATOM     10  O   UNL     1       0.851  11.653  21.830  0.00  0.00    +0.000 OA
ATOM     11  N   UNL     1      -0.419  11.161  19.943  0.00  0.00    +0.000 N 
ATOM     12  C   UNL     1       0.557  10.329  19.417  0.00  0.00    +0.000 A 
ENDROOT
BRANCH   7  13
ATOM     13  N   UNL     1      -3.368  13.642  21.460  0.00  0.00    +0.000 N 
ATOM     14  C   UNL     1      -3.181  15.101  21.567  0.00  0.00    +0.000 C 
ATOM     15  C   UNL     1      -3.440  15.576  23.003  0.00  0.00    +0.000 C 
ATOM     16  O   UNL     1      -4.736  15.159  23.475  0.00  0.00    +0.000 OA
ATOM     17  C   UNL     1      -4.834  13.728  23.439  0.00  0.00    +0.000 C 
ATOM     18  C   UNL     1      -4.658  13.188  22.013  0.00  0.00    +0.000 C 
ENDBRANCH   7  13
BRANCH   4  19
ATOM     19  C   UNL     1      -3.006  11.149  17.085  0.00  0.00    +0.000 C 
ATOM     20  C   UNL     1      -2.798  10.769  15.605  0.00  0.00    +0.000 C 
BRANCH  19  21
ATOM     21  N   UNL     1      -4.217  10.490  17.616  0.00  0.00    +0.000 N 
ATOM     22  H   UNL     1      -3.995   9.947  18.450  0.00  0.00    +0.000 HD
BRANCH  21  23
ATOM     23  C   UNL     1      -5.365  11.265  17.883  0.00  0.00    +0.000 A 
ATOM     24  C   UNL     1      -6.192  11.085  18.998  0.00  0.00    +0.000 A 
ATOM     25  C   UNL     1      -7.326  11.878  19.210  0.00  0.00    +0.000 A 
ATOM     26  C   UNL     1      -7.632  12.907  18.331  0.00  0.00    +0.000 A 
ATOM     27  C   UNL     1      -6.776  13.170  17.267  0.00  0.00    +0.000 A 
ATOM     28  C   UNL     1      -5.647  12.367  17.058  0.00  0.00    +0.000 A 
ENDBRANCH  21  23
ENDBRANCH  19  21
ENDBRANCH   4  19
TORSDOF 4
ENDMDL
MODEL 4
REMARK VINA RESULT:      -7.1      1.118      1.750
REMARK  Name = 
REMARK  6 active torsions:
REMARK  status: ('A' for Active; 'I' for Inactive)
REMARK    1  A    between atoms: C_1  and  C_2
REMARK    2  A    between atoms: C_4  and  C_5
REMARK    3  A    between atoms: C_5  and  C_6
REMARK    4  A    between atoms: C_5  and  N_7
REMARK    5  A    between atoms: N_7  and  C_8
REMARK    6  A    between atoms: C_16  and  N_17
REMARK                            x       y       z     vdW  Elec       q    Type
REMARK                         _______ _______ _______ _____ _____    ______ ____
ROOT
ATOM      1  C   UNL     1      -3.094   9.931  14.947  0.00  0.00    +0.000 C 
ATOM      2  C   UNL     1      -3.200  10.643  16.261  0.00  0.00    +0.000 A 
ATOM      3  C   UNL     1      -2.010  11.173  16.879  0.00  0.00    +0.000 A 
ATOM      4  C   UNL     1      -2.029  11.819  18.064  0.00  0.00    +0.000 A 
ATOM      5  C   UNL     1      -3.367  11.987  18.751  0.00  0.00    +0.000 A 
ATOM      6  N   UNL     1      -3.448  12.627  19.878  0.00  0.00    +0.000 NA
ATOM      7  C   UNL     1      -4.646  12.695  20.547  0.00  0.00    +0.000 A 
ATOM      8  C   UNL     1      -5.750  12.139  20.024  0.00  0.00    +0.000 A 
ATOM      9  C   UNL     1      -5.714  11.466  18.734  0.00  0.00    +0.000 A 
ATOM     10  O   UNL     1      -6.757  10.993  18.280  0.00  0.00    +0.000 OA
ATOM     11  N   UNL     1      -4.471  11.404  18.128  0.00  0.00    +0.000 N 
ATOM     12  C   UNL     1      -4.366  10.762  16.904  0.00  0.00    +0.000 A 
ENDROOT
BRANCH   7  13
ATOM     13  N   UNL     1      -4.722  13.329  21.787  0.00  0.00    +0.000 N 
ATOM     14  C   UNL     1      -3.754  14.357  22.212  0.00  0.00    +0.000 C 
ATOM     15  C   UNL     1      -3.115  13.976  23.554  0.00  0.00    +0.000 C 
ATOM     16  O   UNL     1      -4.110  13.719  24.563  0.00  0.00    +0.000 OA
ATOM     17  C   UNL     1      -4.970  12.649  24.143  0.00  0.00    +0.000 C 
ATOM     18  C   UNL     1      -5.702  12.995  22.838  0.00  0.00    +0.000 C 
ENDBRANCH   7  13
BRANCH   4  19
ATOM     19  C   UNL     1      -0.775  12.238  18.835  0.00  0.00    +0.000 C 
ATOM     20  C   UNL     1      -0.373  13.684  18.481  0.00  0.00    +0.000 C 
BRANCH  19  21
ATOM     21  N   UNL     1      -1.035  12.121  20.285  0.00  0.00    +0.000 N 
ATOM     22  H   UNL     1      -2.032  12.217  20.480  0.00  0.00    +0.000 HD
BRANCH  21  23
ATOM     23  C   UNL     1      -0.551  10.997  20.986  0.00  0.00    +0.000 A 
ATOM     24  C   UNL     1       0.221   9.984  20.408  0.00  0.00    +0.000 A 
ATOM     25  C   UNL     1       0.668   8.884  21.149  0.00  0.00    +0.000 A 
ATOM     26  C   UNL     1       0.392   8.799  22.507  0.00  0.00    +0.000 A 
ATOM     27  C   UNL     1      -0.292   9.838  23.128  0.00  0.00    +0.000 A 
ATOM     28  C   UNL     1      -0.742  10.932  22.377  0.00  0.00    +0.000 A 
ENDBRANCH  21  23
ENDBRANCH  19  21
ENDBRANCH   4  19
TORSDOF 4
ENDMDL
MODEL 5
REMARK VINA RESULT:      -7.1      3.085      7.109
REMARK  Name = 
REMARK  6 active torsions:
REMARK  status: ('A' for Active; 'I' for Inactive)
REMARK    1  A    between atoms: C_1  and  C_2
REMARK    2  A    between atoms: C_4  and  C_5
REMARK    3  A    between atoms: C_5  and  C_6
REMARK    4  A    between atoms: C_5  and  N_7
REMARK    5  A    between atoms: N_7  and  C_8
REMARK    6  A    between atoms: C_16  and  N_17
REMARK                            x       y       z     vdW  Elec       q    Type
REMARK                         _______ _______ _______ _____ _____    ______ ____
ROOT
ATOM      1  C   UNL     1      -2.957  13.168  22.989  0.00  0.00    +0.000 C 
ATOM      2  C   UNL     1      -2.060  12.264  22.200  0.00  0.00    +0.000 A 
ATOM      3  C   UNL     1      -2.082  12.323  20.760  0.00  0.00    +0.000 A 
ATOM      4  C   UNL     1      -1.307  11.536  19.985  0.00  0.00    +0.000 A 
ATOM      5  C   UNL     1      -0.381  10.560  20.679  0.00  0.00    +0.000 A 
ATOM      6  N   UNL     1       0.408   9.799  19.983  0.00  0.00    +0.000 NA
ATOM      7  C   UNL     1       1.177   8.848  20.610  0.00  0.00    +0.000 A 
ATOM      8  C   UNL     1       1.151   8.725  21.946  0.00  0.00    +0.000 A 
ATOM      9  C   UNL     1       0.327   9.600  22.766  0.00  0.00    +0.000 A 
ATOM     10  O   UNL     1       0.354   9.468  23.990  0.00  0.00    +0.000 OA
ATOM     11  N   UNL     1      -0.447  10.513  22.072  0.00  0.00    +0.000 N 
ATOM     12  C   UNL     1      -1.268  11.365  22.794  0.00  0.00    +0.000 A 
ENDROOT
BRANCH   7  13
ATOM     13  N   UNL     1       1.979   7.989  19.860  0.00  0.00    +0.000 N 
ATOM     14  C   UNL     1       2.429   8.316  18.494  0.00  0.00    +0.000 C 
ATOM     15  C   UNL     1       2.034   7.204  17.514  0.00  0.00    +0.000 C 
ATOM     16  O   UNL     1       2.513   5.917  17.948  0.00  0.00    +0.000 OA
ATOM     17  C   UNL     1       1.973   5.603  19.241  0.00  0.00    +0.000 C 
ATOM     18  C   UNL     1       2.393   6.641  20.292  0.00  0.00    +0.000 C 
ENDBRANCH   7  13
BRANCH   4  19
ATOM     19  C   UNL     1      -1.427  11.443  18.461  0.00  0.00    +0.000 C 
ATOM     20  C   UNL     1      -2.849  11.013  18.049  0.00  0.00    +0.000 C 
BRANCH  19  21
ATOM     21  N   UNL     1      -1.099  12.756  17.868  0.00  0.00    +0.000 N 
ATOM     22  H   UNL     1      -1.896  13.389  17.932  0.00  0.00    +0.000 HD
BRANCH  21  23
ATOM     23  C   UNL     1       0.050  13.446  18.308  0.00  0.00    +0.000 A 
ATOM     24  C   UNL     1       1.348  12.927  18.248  0.00  0.00    +0.000 A 
ATOM     25  C   UNL     1       2.454  13.651  18.707  0.00  0.00    +0.000 A 
ATOM     26  C   UNL     1       2.290  14.941  19.194  0.00  0.00    +0.000 A 
ATOM     27  C   UNL     1       1.025  15.518  19.177  0.00  0.00    +0.000 A 
ATOM     28  C   UNL     1      -0.078  14.782  18.722  0.00  0.00    +0.000 A 
ENDBRANCH  21  23
ENDBRANCH  19  21
ENDBRANCH   4  19
TORSDOF 4
ENDMDL
MODEL 6
REMARK VINA RESULT:      -7.1      1.593      2.863
REMARK  Name = 
REMARK  6 active torsions:
REMARK  status: ('A' for Active; 'I' for Inactive)
REMARK    1  A    between atoms: C_1  and  C_2
REMARK    2  A    between atoms: C_4  and  C_5
REMARK    3  A    between atoms: C_5  and  C_6
REMARK    4  A    between atoms: C_5  and  N_7
REMARK    5  A    between atoms: N_7  and  C_8
REMARK    6  A    between atoms: C_16  and  N_17
REMARK                            x       y       z     vdW  Elec       q    Type
REMARK                         _______ _______ _______ _____ _____    ______ ____
ROOT
ATOM      1  C   UNL     1      -3.086   9.862  14.932  0.00  0.00    +0.000 C 
ATOM      2  C   UNL     1      -3.117  10.554  16.261  0.00  0.00    +0.000 A 
ATOM      3  C   UNL     1      -1.894  10.709  17.009  0.00  0.00    +0.000 A 
ATOM      4  C   UNL     1      -1.847  11.315  18.213  0.00  0.00    +0.000 A 
ATOM      5  C   UNL     1      -3.144  11.852  18.780  0.00  0.00    +0.000 A 
ATOM      6  N   UNL     1      -3.152  12.471  19.922  0.00  0.00    +0.000 NA
ATOM      7  C   UNL     1      -4.343  12.871  20.480  0.00  0.00    +0.000 A 
ATOM      8  C   UNL     1      -5.500  12.665  19.833  0.00  0.00    +0.000 A 
ATOM      9  C   UNL     1      -5.528  12.031  18.524  0.00  0.00    +0.000 A 
ATOM     10  O   UNL     1      -6.610  11.885  17.956  0.00  0.00    +0.000 OA
ATOM     11  N   UNL     1      -4.300  11.622  18.033  0.00  0.00    +0.000 N 
ATOM     12  C   UNL     1      -4.259  10.995  16.798  0.00  0.00    +0.000 A 
ENDROOT
BRANCH   7  13
ATOM     13  N   UNL     1      -4.359  13.482  21.734  0.00  0.00    +0.000 N 
ATOM     14  C   UNL     1      -3.160  14.099  22.331  0.00  0.00    +0.000 C 
ATOM     15  C   UNL     1      -2.881  13.507  23.718  0.00  0.00    +0.000 C 
ATOM     16  O   UNL     1      -4.030  13.610  24.581  0.00  0.00    +0.000 OA
ATOM     17  C   UNL     1      -5.143  12.914  24.000  0.00  0.00    +0.000 C 
ATOM     18  C   UNL     1      -5.526  13.506  22.636  0.00  0.00    +0.000 C 
ENDBRANCH   7  13
BRANCH   4  19
ATOM     19  C   UNL     1      -0.610  11.344  19.115  0.00  0.00    +0.000 C 
ATOM     20  C   UNL     1      -0.435   9.998  19.846  0.00  0.00    +0.000 C 
BRANCH  19  21
ATOM     21  N   UNL     1       0.582  11.637  18.293  0.00  0.00    +0.000 N 
ATOM     22  H   UNL     1       0.387  11.475  17.305  0.00  0.00    +0.000 HD
BRANCH  21  23
ATOM     23  C   UNL     1       1.219  12.889  18.420  0.00  0.00    +0.000 A 
ATOM     24  C   UNL     1       0.571  14.063  18.822  0.00  0.00    +0.000 A 
ATOM     25  C   UNL     1       1.250  15.282  18.923  0.00  0.00    +0.000 A 
ATOM     26  C   UNL     1       2.613  15.345  18.669  0.00  0.00    +0.000 A 
ATOM     27  C   UNL     1       3.301  14.177  18.359  0.00  0.00    +0.000 A 
ATOM     28  C   UNL     1       2.612  12.962  18.254  0.00  0.00    +0.000 A 
ENDBRANCH  21  23
ENDBRANCH  19  21
ENDBRANCH   4  19
TORSDOF 4
ENDMDL
MODEL 7
REMARK VINA RESULT:      -7.1      0.555      1.071
REMARK  Name = 
REMARK  6 active torsions:
REMARK  status: ('A' for Active; 'I' for Inactive)
REMARK    1  A    between atoms: C_1  and  C_2
REMARK    2  A    between atoms: C_4  and  C_5
REMARK    3  A    between atoms: C_5  and  C_6
REMARK    4  A    between atoms: C_5  and  N_7
REMARK    5  A    between atoms: N_7  and  C_8
REMARK    6  A    between atoms: C_16  and  N_17
REMARK                            x       y       z     vdW  Elec       q    Type
REMARK                         _______ _______ _______ _____ _____    ______ ____
ROOT
ATOM      1  C   UNL     1      -3.328  10.058  14.717  0.00  0.00    +0.000 C 
ATOM      2  C   UNL     1      -3.236  10.702  16.067  0.00  0.00    +0.000 A 
ATOM      3  C   UNL     1      -1.945  11.084  16.584  0.00  0.00    +0.000 A 
ATOM      4  C   UNL     1      -1.784  11.663  17.792  0.00  0.00    +0.000 A 
ATOM      5  C   UNL     1      -3.027  11.916  18.619  0.00  0.00    +0.000 A 
ATOM      6  N   UNL     1      -2.934  12.498  19.777  0.00  0.00    +0.000 NA
ATOM      7  C   UNL     1      -4.049  12.639  20.567  0.00  0.00    +0.000 A 
ATOM      8  C   UNL     1      -5.248  12.219  20.135  0.00  0.00    +0.000 A 
ATOM      9  C   UNL     1      -5.404  11.618  18.819  0.00  0.00    +0.000 A 
ATOM     10  O   UNL     1      -6.527  11.270  18.453  0.00  0.00    +0.000 OA
ATOM     11  N   UNL     1      -4.238  11.474  18.087  0.00  0.00    +0.000 N 
ATOM     12  C   UNL     1      -4.316  10.894  16.830  0.00  0.00    +0.000 A 
ENDROOT
BRANCH   7  13
ATOM     13  N   UNL     1      -3.941  13.208  21.837  0.00  0.00    +0.000 N 
ATOM     14  C   UNL     1      -3.113  12.615  22.903  0.00  0.00    +0.000 C 
ATOM     15  C   UNL     1      -3.950  12.372  24.166  0.00  0.00    +0.000 C 
ATOM     16  O   UNL     1      -4.616  13.573  24.601  0.00  0.00    +0.000 OA
ATOM     17  C   UNL     1      -5.480  14.059  23.563  0.00  0.00    +0.000 C 
ATOM     18  C   UNL     1      -4.694  14.394  22.288  0.00  0.00    +0.000 C 
ENDBRANCH   7  13
BRANCH   4  19
ATOM     19  C   UNL     1      -0.426  11.920  18.450  0.00  0.00    +0.000 C 
ATOM     20  C   UNL     1      -0.219  13.426  18.706  0.00  0.00    +0.000 C 
BRANCH  19  21
ATOM     21  N   UNL     1      -0.354  11.171  19.722  0.00  0.00    +0.000 N 
ATOM     22  H   UNL     1      -1.289  10.968  20.073  0.00  0.00    +0.000 HD
BRANCH  21  23
ATOM     23  C   UNL     1       0.411   9.988  19.785  0.00  0.00    +0.000 A 
ATOM     24  C   UNL     1       1.225   9.523  18.747  0.00  0.00    +0.000 A 
ATOM     25  C   UNL     1       1.957   8.335  18.859  0.00  0.00    +0.000 A 
ATOM     26  C   UNL     1       1.929   7.608  20.042  0.00  0.00    +0.000 A 
ATOM     27  C   UNL     1       1.204   8.096  21.123  0.00  0.00    +0.000 A 
ATOM     28  C   UNL     1       0.468   9.282  20.999  0.00  0.00    +0.000 A 
ENDBRANCH  21  23
ENDBRANCH  19  21
ENDBRANCH   4  19
TORSDOF 4
ENDMDL
MODEL 8
REMARK VINA RESULT:      -7.0      1.554      3.231
REMARK  Name = 
REMARK  6 active torsions:
REMARK  status: ('A' for Active; 'I' for Inactive)
REMARK    1  A    between atoms: C_1  and  C_2
REMARK    2  A    between atoms: C_4  and  C_5
REMARK    3  A    between atoms: C_5  and  C_6
REMARK    4  A    between atoms: C_5  and  N_7
REMARK    5  A    between atoms: N_7  and  C_8
REMARK    6  A    between atoms: C_16  and  N_17
REMARK                            x       y       z     vdW  Elec       q    Type
REMARK                         _______ _______ _______ _____ _____    ______ ____
ROOT
ATOM      1  C   UNL     1      -3.232  10.279  14.724  0.00  0.00    +0.000 C 
ATOM      2  C   UNL     1      -3.333  10.834  16.112  0.00  0.00    +0.000 A 
ATOM      3  C   UNL     1      -2.134  11.021  16.890  0.00  0.00    +0.000 A 
ATOM      4  C   UNL     1      -2.149  11.510  18.148  0.00  0.00    +0.000 A 
ATOM      5  C   UNL     1      -3.492  11.874  18.744  0.00  0.00    +0.000 A 
ATOM      6  N   UNL     1      -3.563  12.376  19.939  0.00  0.00    +0.000 NA
ATOM      7  C   UNL     1      -4.788  12.616  20.514  0.00  0.00    +0.000 A 
ATOM      8  C   UNL     1      -5.918  12.373  19.833  0.00  0.00    +0.000 A 
ATOM      9  C   UNL     1      -5.880  11.869  18.468  0.00  0.00    +0.000 A 
ATOM     10  O   UNL     1      -6.942  11.685  17.872  0.00  0.00    +0.000 OA
ATOM     11  N   UNL     1      -4.618  11.618  17.960  0.00  0.00    +0.000 N 
ATOM     12  C   UNL     1      -4.513  11.119  16.671  0.00  0.00    +0.000 A 
ENDROOT
BRANCH   7  13
ATOM     13  N   UNL     1      -4.867  13.098  21.821  0.00  0.00    +0.000 N 
ATOM     14  C   UNL     1      -6.131  13.127  22.579  0.00  0.00    +0.000 C 
ATOM     15  C   UNL     1      -6.422  14.545  23.090  0.00  0.00    +0.000 C 
ATOM     16  O   UNL     1      -5.320  15.071  23.853  0.00  0.00    +0.000 OA
ATOM     17  C   UNL     1      -4.136  15.109  23.043  0.00  0.00    +0.000 C 
ATOM     18  C   UNL     1      -3.743  13.707  22.556  0.00  0.00    +0.000 C 
ENDBRANCH   7  13
BRANCH   4  19
ATOM     19  C   UNL     1      -0.926  11.558  19.067  0.00  0.00    +0.000 C 
ATOM     20  C   UNL     1      -0.677  10.183  19.720  0.00  0.00    +0.000 C 
BRANCH  19  21
ATOM     21  N   UNL     1       0.256  11.970  18.281  0.00  0.00    +0.000 N 
ATOM     22  H   UNL     1       0.108  11.788  17.288  0.00  0.00    +0.000 HD
BRANCH  21  23
ATOM     23  C   UNL     1       0.757  13.281  18.422  0.00  0.00    +0.000 A 
ATOM     24  C   UNL     1      -0.007  14.373  18.847  0.00  0.00    +0.000 A 
ATOM     25  C   UNL     1       0.539  15.656  18.961  0.00  0.00    +0.000 A 
ATOM     26  C   UNL     1       1.886  15.866  18.698  0.00  0.00    +0.000 A 
ATOM     27  C   UNL     1       2.691  14.783  18.365  0.00  0.00    +0.000 A 
ATOM     28  C   UNL     1       2.134  13.503  18.247  0.00  0.00    +0.000 A 
ENDBRANCH  21  23
ENDBRANCH  19  21
ENDBRANCH   4  19
TORSDOF 4
ENDMDL
MODEL 9
REMARK VINA RESULT:      -7.0      2.131      4.800
REMARK  Name = 
REMARK  6 active torsions:
REMARK  status: ('A' for Active; 'I' for Inactive)
REMARK    1  A    between atoms: C_1  and  C_2
REMARK    2  A    between atoms: C_4  and  C_5
REMARK    3  A    between atoms: C_5  and  C_6
REMARK    4  A    between atoms: C_5  and  N_7
REMARK    5  A    between atoms: N_7  and  C_8
REMARK    6  A    between atoms: C_16  and  N_17
REMARK                            x       y       z     vdW  Elec       q    Type
REMARK                         _______ _______ _______ _____ _____    ______ ____
ROOT
ATOM      1  C   UNL     1       2.187   8.270  18.438  0.00  0.00    +0.000 C 
ATOM      2  C   UNL     1       1.334   9.240  19.197  0.00  0.00    +0.000 A 
ATOM      3  C   UNL     1       0.960  10.490  18.583  0.00  0.00    +0.000 A 
ATOM      4  C   UNL     1       0.201  11.413  19.209  0.00  0.00    +0.000 A 
ATOM      5  C   UNL     1      -0.271  11.099  20.612  0.00  0.00    +0.000 A 
ATOM      6  N   UNL     1      -1.029  11.939  21.251  0.00  0.00    +0.000 NA
ATOM      7  C   UNL     1      -1.375  11.697  22.558  0.00  0.00    +0.000 A 
ATOM      8  C   UNL     1      -0.971  10.575  23.173  0.00  0.00    +0.000 A 
ATOM      9  C   UNL     1      -0.172   9.580  22.473  0.00  0.00    +0.000 A 
ATOM     10  O   UNL     1       0.155   8.553  23.069  0.00  0.00    +0.000 OA
ATOM     11  N   UNL     1       0.170   9.899  21.171  0.00  0.00    +0.000 N 
ATOM     12  C   UNL     1       0.945   9.001  20.454  0.00  0.00    +0.000 A 
ENDROOT
BRANCH   7  13
ATOM     13  N   UNL     1      -2.139  12.627  23.265  0.00  0.00    +0.000 N 
ATOM     14  C   UNL     1      -3.519  12.348  23.704  0.00  0.00    +0.000 C 
ATOM     15  C   UNL     1      -4.479  13.429  23.190  0.00  0.00    +0.000 C 
ATOM     16  O   UNL     1      -4.045  14.750  23.569  0.00  0.00    +0.000 OA
ATOM     17  C   UNL     1      -2.736  15.007  23.039  0.00  0.00    +0.000 C 
ATOM     18  C   UNL     1      -1.705  14.002  23.573  0.00  0.00    +0.000 C 
ENDBRANCH   7  13
BRANCH   4  19
ATOM     19  C   UNL     1      -0.069  12.818  18.664  0.00  0.00    +0.000 C 
ATOM     20  C   UNL     1       1.246  13.503  18.240  0.00  0.00    +0.000 C 
BRANCH  19  21
ATOM     21  N   UNL     1      -0.989  12.722  17.511  0.00  0.00    +0.000 N 
ATOM     22  H   UNL     1      -0.470  12.554  16.650  0.00  0.00    +0.000 HD
BRANCH  21  23
ATOM     23  C   UNL     1      -2.070  11.818  17.563  0.00  0.00    +0.000 A 
ATOM     24  C   UNL     1      -3.182  11.970  18.398  0.00  0.00    +0.000 A 
ATOM     25  C   UNL     1      -4.224  11.036  18.416  0.00  0.00    +0.000 A 
ATOM     26  C   UNL     1      -4.200   9.947  17.555  0.00  0.00    +0.000 A 
ATOM     27  C   UNL     1      -3.154   9.821  16.648  0.00  0.00    +0.000 A 
ATOM     28  C   UNL     1      -2.111  10.757  16.642  0.00  0.00    +0.000 A 
ENDBRANCH  21  23
ENDBRANCH  19  21
ENDBRANCH   4  19
TORSDOF 4
ENDMDL
