MODEL 1
REMARK VINA RESULT:      -7.8      0.000      0.000
REMARK  Name = 
REMARK  5 active torsions:
REMARK  status: ('A' for Active; 'I' for Inactive)
REMARK    1  A    between atoms: C_2  and  C_17
REMARK    2  A    between atoms: N_3  and  C_4
REMARK    3  A    between atoms: C_4  and  C_5
REMARK    4  A    between atoms: C_5  and  C_6
REMARK    5  A    between atoms: C_9  and  C_10
REMARK                            x       y       z     vdW  Elec       q    Type
REMARK                         _______ _______ _______ _____ _____    ______ ____
ROOT
ATOM      1  C   UNL     1       7.619   6.061  18.823  0.00  0.00    +0.000 C 
ENDROOT
BRANCH   1   2
ATOM      2  C   UNL     1       6.459   5.285  18.283  0.00  0.00    +0.000 A 
ATOM      3  C   UNL     1       6.361   4.750  17.014  0.00  0.00    +0.000 A 
ATOM      4  S   UNL     1       4.874   3.930  16.829  0.00  0.00    +0.000 S 
ATOM      5  C   UNL     1       4.441   4.347  18.445  0.00  0.00    +0.000 A 
ATOM      6  N   UNL     1       5.339   5.081  19.077  0.00  0.00    +0.000 NA
BRANCH   5   7
ATOM      7  C   UNL     1       3.138   3.956  19.012  0.00  0.00    +0.000 A 
ATOM      8  C   UNL     1       2.640   4.489  20.212  0.00  0.00    +0.000 A 
ATOM      9  C   UNL     1       1.411   4.070  20.729  0.00  0.00    +0.000 A 
ATOM     10  C   UNL     1       0.656   3.118  20.049  0.00  0.00    +0.000 A 
ATOM     11  C   UNL     1       1.121   2.593  18.846  0.00  0.00    +0.000 A 
ATOM     12  C   UNL     1       2.350   3.014  18.330  0.00  0.00    +0.000 A 
ENDBRANCH   5   7
ENDBRANCH   1   2
BRANCH   1  13
ATOM     13  C   UNL     1       7.850   7.386  18.098  0.00  0.00    +0.000 C 
BRANCH  13  16
ATOM     14  O   UNL     1       8.049  10.177  17.754  0.00  0.00    +0.000 OA
ATOM     15  C   UNL     1       8.769   9.633  18.586  0.00  0.00    +0.000 C 
ATOM     16  N   UNL     1       8.721   8.282  18.846  0.00  0.00    +0.000 N 
ATOM     17  H   UNL     1       9.295   7.891  19.581  0.00  0.00    +0.000 HD
BRANCH  15  18
ATOM     18  C   UNL     1       9.823  10.379  19.389  0.00  0.00    +0.000 C 
ATOM     19  C   UNL     1      10.472  11.528  18.620  0.00  0.00    +0.000 C 
ATOM     20  C   UNL     1      11.137  12.359  19.708  0.00  0.00    +0.000 C 
ATOM     21  C   UNL     1      10.272  12.173  20.953  0.00  0.00    +0.000 C 
ATOM     22  C   UNL     1       9.252  11.087  20.613  0.00  0.00    +0.000 C 
ENDBRANCH  15  18
ENDBRANCH  13  16
ENDBRANCH   1  13
TORSDOF 5
ENDMDL
MODEL 2
REMARK VINA RESULT:      -7.7      0.566      1.191
REMARK  Name = 
REMARK  5 active torsions:
REMARK  status: ('A' for Active; 'I' for Inactive)
REMARK    1  A    between atoms: C_2  and  C_17
REMARK    2  A    between atoms: N_3  and  C_4
REMARK    3  A    between atoms: C_4  and  C_5
REMARK    4  A    between atoms: C_5  and  C_6
REMARK    5  A    between atoms: C_9  and  C_10
REMARK                            x       y       z     vdW  Elec       q    Type
REMARK                         _______ _______ _______ _____ _____    ______ ____
ROOT
ATOM      1  C   UNL     1       7.785   6.426  18.540  0.00  0.00    +0.000 C 
ENDROOT
BRANCH   1   2
ATOM      2  C   UNL     1       6.560   5.746  18.017  0.00  0.00    +0.000 A 
ATOM      3  C   UNL     1       6.342   5.361  16.709  0.00  0.00    +0.000 A 
ATOM      4  S   UNL     1       4.818   4.604  16.559  0.00  0.00    +0.000 S 
ATOM      5  C   UNL     1       4.531   4.846  18.243  0.00  0.00    +0.000 A 
ATOM      6  N   UNL     1       5.502   5.480  18.875  0.00  0.00    +0.000 NA
BRANCH   5   7
ATOM      7  C   UNL     1       3.265   4.425  18.870  0.00  0.00    +0.000 A 
ATOM      8  C   UNL     1       2.466   3.394  18.350  0.00  0.00    +0.000 A 
ATOM      9  C   UNL     1       1.258   3.044  18.961  0.00  0.00    +0.000 A 
ATOM     10  C   UNL     1       0.834   3.714  20.105  0.00  0.00    +0.000 A 
ATOM     11  C   UNL     1       1.623   4.725  20.649  0.00  0.00    +0.000 A 
ATOM     12  C   UNL     1       2.831   5.073  20.038  0.00  0.00    +0.000 A 
ENDBRANCH   5   7
ENDBRANCH   1   2
BRANCH   1  13
ATOM     13  C   UNL     1       7.967   7.845  18.002  0.00  0.00    +0.000 C 
BRANCH  13  16
ATOM     14  O   UNL     1       8.291  10.639  17.819  0.00  0.00    +0.000 OA
ATOM     15  C   UNL     1       8.894  10.032  18.699  0.00  0.00    +0.000 C 
ATOM     16  N   UNL     1       8.775   8.673  18.885  0.00  0.00    +0.000 N 
ATOM     17  H   UNL     1       9.250   8.229  19.660  0.00  0.00    +0.000 HD
BRANCH  15  18
ATOM     18  C   UNL     1       9.874  10.702  19.649  0.00  0.00    +0.000 C 
ATOM     19  C   UNL     1      11.042  11.382  18.938  0.00  0.00    +0.000 C 
ATOM     20  C   UNL     1      11.619  12.309  19.999  0.00  0.00    +0.000 C 
ATOM     21  C   UNL     1      10.437  12.711  20.880  0.00  0.00    +0.000 C 
ATOM     22  C   UNL     1       9.254  11.854  20.433  0.00  0.00    +0.000 C 
ENDBRANCH  15  18
ENDBRANCH  13  16
ENDBRANCH   1  13
TORSDOF 5
ENDMDL
MODEL 3
REMARK VINA RESULT:      -7.5      3.958      6.298
REMARK  Name = 
REMARK  5 active torsions:
REMARK  status: ('A' for Active; 'I' for Inactive)
REMARK    1  A    between atoms: C_2  and  C_17
REMARK    2  A    between atoms: N_3  and  C_4
REMARK    3  A    between atoms: C_4  and  C_5
REMARK    4  A    between atoms: C_5  and  C_6
REMARK    5  A    between atoms: C_9  and  C_10
REMARK                            x       y       z     vdW  Elec       q    Type
REMARK                         _______ _______ _______ _____ _____    ______ ____
ROOT
ATOM      1  C   UNL     1       6.582   6.661  17.260  0.00  0.00    +0.000 C 
ENDROOT
BRANCH   1   2
ATOM      2  C   UNL     1       5.119   6.625  17.574  0.00  0.00    +0.000 A 
ATOM      3  C   UNL     1       4.217   7.646  17.354  0.00  0.00    +0.000 A 
ATOM      4  S   UNL     1       2.651   7.170  17.845  0.00  0.00    +0.000 S 
ATOM      5  C   UNL     1       3.270   5.636  18.333  0.00  0.00    +0.000 A 
ATOM      6  N   UNL     1       4.572   5.496  18.169  0.00  0.00    +0.000 NA
BRANCH   5   7
ATOM      7  C   UNL     1       2.394   4.619  18.943  0.00  0.00    +0.000 A 
ATOM      8  C   UNL     1       2.092   4.600  20.315  0.00  0.00    +0.000 A 
ATOM      9  C   UNL     1       1.278   3.602  20.858  0.00  0.00    +0.000 A 
ATOM     10  C   UNL     1       0.747   2.611  20.036  0.00  0.00    +0.000 A 
ATOM     11  C   UNL     1       1.017   2.624  18.670  0.00  0.00    +0.000 A 
ATOM     12  C   UNL     1       1.830   3.624  18.129  0.00  0.00    +0.000 A 
ENDBRANCH   5   7
ENDBRANCH   1   2
BRANCH   1  13
ATOM     13  C   UNL     1       7.238   5.281  17.272  0.00  0.00    +0.000 C 
BRANCH  13  16
ATOM     14  O   UNL     1       7.817   5.601  14.532  0.00  0.00    +0.000 OA
ATOM     15  C   UNL     1       7.077   4.684  14.874  0.00  0.00    +0.000 C 
ATOM     16  N   UNL     1       6.762   4.431  16.191  0.00  0.00    +0.000 N 
ATOM     17  H   UNL     1       6.193   3.628  16.425  0.00  0.00    +0.000 HD
BRANCH  15  18
ATOM     18  C   UNL     1       6.390   3.756  13.886  0.00  0.00    +0.000 C 
ATOM     19  C   UNL     1       4.960   4.174  13.552  0.00  0.00    +0.000 C 
ATOM     20  C   UNL     1       4.644   3.398  12.281  0.00  0.00    +0.000 C 
ATOM     21  C   UNL     1       5.979   3.239  11.555  0.00  0.00    +0.000 C 
ATOM     22  C   UNL     1       7.055   3.746  12.513  0.00  0.00    +0.000 C 
ENDBRANCH  15  18
ENDBRANCH  13  16
ENDBRANCH   1  13
TORSDOF 5
ENDMDL
MODEL 4
REMARK VINA RESULT:      -7.4      4.551      8.154
REMARK  Name = 
REMARK  5 active torsions:
REMARK  status: ('A' for Active; 'I' for Inactive)
REMARK    1  A    between atoms: C_2  and  C_17
REMARK    2  A    between atoms: N_3  and  C_4
REMARK    3  A    between atoms: C_4  and  C_5
REMARK    4  A    between atoms: C_5  and  C_6
REMARK    5  A    between atoms: C_9  and  C_10
REMARK                            x       y       z     vdW  Elec       q    Type
REMARK                         _______ _______ _______ _____ _____    ______ ____
ROOT
ATOM      1  C   UNL     1       3.940   7.284  17.954  0.00  0.00    +0.000 C 
ENDROOT
BRANCH   1   2
ATOM      2  C   UNL     1       4.992   6.372  17.407  0.00  0.00    +0.000 A 
ATOM      3  C   UNL     1       5.988   5.753  18.136  0.00  0.00    +0.000 A 
ATOM      4  S   UNL     1       6.959   4.788  17.113  0.00  0.00    +0.000 S 
ATOM      5  C   UNL     1       6.004   5.262  15.757  0.00  0.00    +0.000 A 
ATOM      6  N   UNL     1       5.036   6.113  16.044  0.00  0.00    +0.000 NA
BRANCH   5   7
ATOM      7  C   UNL     1       6.319   4.786  14.398  0.00  0.00    +0.000 A 
ATOM      8  C   UNL     1       5.525   3.849  13.718  0.00  0.00    +0.000 A 
ATOM      9  C   UNL     1       5.875   3.404  12.440  0.00  0.00    +0.000 A 
ATOM     10  C   UNL     1       7.020   3.895  11.818  0.00  0.00    +0.000 A 
ATOM     11  C   UNL     1       7.809   4.841  12.467  0.00  0.00    +0.000 A 
ATOM     12  C   UNL     1       7.458   5.286  13.745  0.00  0.00    +0.000 A 
ENDBRANCH   5   7
ENDBRANCH   1   2
BRANCH   1  13
ATOM     13  C   UNL     1       2.537   6.677  17.922  0.00  0.00    +0.000 C 
BRANCH  13  16
ATOM     14  O   UNL     1       2.393   3.960  17.186  0.00  0.00    +0.000 OA
ATOM     15  C   UNL     1       2.311   4.254  18.375  0.00  0.00    +0.000 C 
ATOM     16  N   UNL     1       2.401   5.549  18.832  0.00  0.00    +0.000 N 
ATOM     17  H   UNL     1       2.383   5.733  19.827  0.00  0.00    +0.000 HD
BRANCH  15  18
ATOM     18  C   UNL     1       2.054   3.229  19.469  0.00  0.00    +0.000 C 
ATOM     19  C   UNL     1       3.282   2.936  20.328  0.00  0.00    +0.000 C 
ATOM     20  C   UNL     1       2.704   2.256  21.561  0.00  0.00    +0.000 C 
ATOM     21  C   UNL     1       1.309   2.849  21.742  0.00  0.00    +0.000 C 
ATOM     22  C   UNL     1       1.037   3.701  20.503  0.00  0.00    +0.000 C 
ENDBRANCH  15  18
ENDBRANCH  13  16
ENDBRANCH   1  13
TORSDOF 5
ENDMDL
MODEL 5
REMARK VINA RESULT:      -7.4      1.301      1.731
REMARK  Name = 
REMARK  5 active torsions:
REMARK  status: ('A' for Active; 'I' for Inactive)
REMARK    1  A    between atoms: C_2  and  C_17
REMARK    2  A    between atoms: N_3  and  C_4
REMARK    3  A    between atoms: C_4  and  C_5
REMARK    4  A    between atoms: C_5  and  C_6
REMARK    5  A    between atoms: C_9  and  C_10
REMARK                            x       y       z     vdW  Elec       q    Type
REMARK                         _______ _______ _______ _____ _____    ______ ____
ROOT
ATOM      1  C   UNL     1       7.827   7.115  18.308  0.00  0.00    +0.000 C 
ENDROOT
BRANCH   1   2
ATOM      2  C   UNL     1       6.952   6.104  17.638  0.00  0.00    +0.000 A 
ATOM      3  C   UNL     1       7.147   5.568  16.381  0.00  0.00    +0.000 A 
ATOM      4  S   UNL     1       5.918   4.438  16.020  0.00  0.00    +0.000 S 
ATOM      5  C   UNL     1       5.190   4.738  17.555  0.00  0.00    +0.000 A 
ATOM      6  N   UNL     1       5.809   5.649  18.282  0.00  0.00    +0.000 NA
BRANCH   5   7
ATOM      7  C   UNL     1       3.942   4.062  17.953  0.00  0.00    +0.000 A 
ATOM      8  C   UNL     1       3.926   2.812  18.592  0.00  0.00    +0.000 A 
ATOM      9  C   UNL     1       2.719   2.192  18.929  0.00  0.00    +0.000 A 
ATOM     10  C   UNL     1       1.509   2.817  18.639  0.00  0.00    +0.000 A 
ATOM     11  C   UNL     1       1.504   4.067  18.025  0.00  0.00    +0.000 A 
ATOM     12  C   UNL     1       2.711   4.685  17.690  0.00  0.00    +0.000 A 
ENDBRANCH   5   7
ENDBRANCH   1   2
BRANCH   1  13
ATOM     13  C   UNL     1       7.803   8.483  17.627  0.00  0.00    +0.000 C 
BRANCH  13  16
ATOM     14  O   UNL     1       7.726  11.281  17.291  0.00  0.00    +0.000 OA
ATOM     15  C   UNL     1       8.568  10.801  18.044  0.00  0.00    +0.000 C 
ATOM     16  N   UNL     1       8.662   9.450  18.294  0.00  0.00    +0.000 N 
ATOM     17  H   UNL     1       9.337   9.110  18.967  0.00  0.00    +0.000 HD
BRANCH  15  18
ATOM     18  C   UNL     1       9.628  11.634  18.746  0.00  0.00    +0.000 C 
ATOM     19  C   UNL     1       9.812  11.270  20.217  0.00  0.00    +0.000 C 
ATOM     20  C   UNL     1      11.153  11.893  20.578  0.00  0.00    +0.000 C 
ATOM     21  C   UNL     1      11.976  11.869  19.291  0.00  0.00    +0.000 C 
ATOM     22  C   UNL     1      11.028  11.422  18.180  0.00  0.00    +0.000 C 
ENDBRANCH  15  18
ENDBRANCH  13  16
ENDBRANCH   1  13
TORSDOF 5
ENDMDL
MODEL 6
REMARK VINA RESULT:      -7.4      1.254      1.731
REMARK  Name = 
REMARK  5 active torsions:
REMARK  status: ('A' for Active; 'I' for Inactive)
REMARK    1  A    between atoms: C_2  and  C_17
REMARK    2  A    between atoms: N_3  and  C_4
REMARK    3  A    between atoms: C_4  and  C_5
REMARK    4  A    between atoms: C_5  and  C_6
REMARK    5  A    between atoms: C_9  and  C_10
REMARK                            x       y       z     vdW  Elec       q    Type
REMARK                         _______ _______ _______ _____ _____    ______ ____
ROOT
ATOM      1  C   UNL     1       7.936   7.163  18.250  0.00  0.00    +0.000 C 
ENDROOT
BRANCH   1   2
ATOM      2  C   UNL     1       7.015   6.162  17.627  0.00  0.00    +0.000 A 
ATOM      3  C   UNL     1       7.164   5.591  16.379  0.00  0.00    +0.000 A 
ATOM      4  S   UNL     1       5.893   4.489  16.076  0.00  0.00    +0.000 S 
ATOM      5  C   UNL     1       5.212   4.848  17.620  0.00  0.00    +0.000 A 
ATOM      6  N   UNL     1       5.876   5.758  18.309  0.00  0.00    +0.000 NA
BRANCH   5   7
ATOM      7  C   UNL     1       3.955   4.220  18.064  0.00  0.00    +0.000 A 
ATOM      8  C   UNL     1       2.691   4.684  17.665  0.00  0.00    +0.000 A 
ATOM      9  C   UNL     1       1.522   4.075  18.131  0.00  0.00    +0.000 A 
ATOM     10  C   UNL     1       1.599   2.988  18.997  0.00  0.00    +0.000 A 
ATOM     11  C   UNL     1       2.843   2.499  19.388  0.00  0.00    +0.000 A 
ATOM     12  C   UNL     1       4.011   3.108  18.920  0.00  0.00    +0.000 A 
ENDBRANCH   5   7
ENDBRANCH   1   2
BRANCH   1  13
ATOM     13  C   UNL     1       7.754   8.578  17.701  0.00  0.00    +0.000 C 
BRANCH  13  16
ATOM     14  O   UNL     1       7.756  11.367  17.294  0.00  0.00    +0.000 OA
ATOM     15  C   UNL     1       8.604  10.879  18.034  0.00  0.00    +0.000 C 
ATOM     16  N   UNL     1       8.663   9.533  18.318  0.00  0.00    +0.000 N 
ATOM     17  H   UNL     1       9.346   9.189  18.979  0.00  0.00    +0.000 HD
BRANCH  15  18
ATOM     18  C   UNL     1       9.709  11.696  18.684  0.00  0.00    +0.000 C 
ATOM     19  C   UNL     1      10.028  11.260  20.112  0.00  0.00    +0.000 C 
ATOM     20  C   UNL     1      11.387  11.889  20.386  0.00  0.00    +0.000 C 
ATOM     21  C   UNL     1      12.093  11.947  19.033  0.00  0.00    +0.000 C 
ATOM     22  C   UNL     1      11.057  11.540  17.987  0.00  0.00    +0.000 C 
ENDBRANCH  15  18
ENDBRANCH  13  16
ENDBRANCH   1  13
TORSDOF 5
ENDMDL
MODEL 7
REMARK VINA RESULT:      -7.3      5.854      8.106
REMARK  Name = 
REMARK  5 active torsions:
REMARK  status: ('A' for Active; 'I' for Inactive)
REMARK    1  A    between atoms: C_2  and  C_17
REMARK    2  A    between atoms: N_3  and  C_4
REMARK    3  A    between atoms: C_4  and  C_5
REMARK    4  A    between atoms: C_5  and  C_6
REMARK    5  A    between atoms: C_9  and  C_10
REMARK                            x       y       z     vdW  Elec       q    Type
REMARK                         _______ _______ _______ _____ _____    ______ ____
ROOT
ATOM      1  C   UNL     1       2.405   9.521  17.528  0.00  0.00    +0.000 C 
ENDROOT
BRANCH   1   2
ATOM      2  C   UNL     1       2.890   8.123  17.746  0.00  0.00    +0.000 A 
ATOM      3  C   UNL     1       4.055   7.580  17.242  0.00  0.00    +0.000 A 
ATOM      4  S   UNL     1       4.224   5.959  17.753  0.00  0.00    +0.000 S 
ATOM      5  C   UNL     1       2.728   6.071  18.605  0.00  0.00    +0.000 A 
ATOM      6  N   UNL     1       2.122   7.238  18.491  0.00  0.00    +0.000 NA
BRANCH   5   7
ATOM      7  C   UNL     1       2.174   4.912  19.330  0.00  0.00    +0.000 A 
ATOM      8  C   UNL     1       2.262   4.778  20.725  0.00  0.00    +0.000 A 
ATOM      9  C   UNL     1       1.747   3.650  21.372  0.00  0.00    +0.000 A 
ATOM     10  C   UNL     1       1.130   2.644  20.634  0.00  0.00    +0.000 A 
ATOM     11  C   UNL     1       1.014   2.768  19.252  0.00  0.00    +0.000 A 
ATOM     12  C   UNL     1       1.528   3.897  18.607  0.00  0.00    +0.000 A 
ENDBRANCH   5   7
ENDBRANCH   1   2
BRANCH   1  13
ATOM     13  C   UNL     1       1.325   9.949  18.520  0.00  0.00    +0.000 C 
BRANCH  13  16
ATOM     14  O   UNL     1      -1.053  10.782  19.784  0.00  0.00    +0.000 OA
ATOM     15  C   UNL     1      -1.110  10.387  18.624  0.00  0.00    +0.000 C 
ATOM     16  N   UNL     1       0.001   9.990  17.915  0.00  0.00    +0.000 N 
ATOM     17  H   UNL     1      -0.091   9.727  16.943  0.00  0.00    +0.000 HD
BRANCH  15  18
ATOM     18  C   UNL     1      -2.415  10.248  17.856  0.00  0.00    +0.000 C 
ATOM     19  C   UNL     1      -3.219  11.544  17.784  0.00  0.00    +0.000 C 
ATOM     20  C   UNL     1      -4.210  11.291  16.656  0.00  0.00    +0.000 C 
ATOM     21  C   UNL     1      -3.502  10.340  15.694  0.00  0.00    +0.000 C 
ATOM     22  C   UNL     1      -2.209   9.910  16.383  0.00  0.00    +0.000 C 
ENDBRANCH  15  18
ENDBRANCH  13  16
ENDBRANCH   1  13
TORSDOF 5
ENDMDL
MODEL 8
REMARK VINA RESULT:      -7.3      3.223      5.166
REMARK  Name = 
REMARK  5 active torsions:
REMARK  status: ('A' for Active; 'I' for Inactive)
REMARK    1  A    between atoms: C_2  and  C_17
REMARK    2  A    between atoms: N_3  and  C_4
REMARK    3  A    between atoms: C_4  and  C_5
REMARK    4  A    between atoms: C_5  and  C_6
REMARK    5  A    between atoms: C_9  and  C_10
REMARK                            x       y       z     vdW  Elec       q    Type
REMARK                         _______ _______ _______ _____ _____    ______ ____
ROOT
ATOM      1  C   UNL     1       3.667   2.961  17.618  0.00  0.00    +0.000 C 
ENDROOT
BRANCH   1   2
ATOM      2  C   UNL     1       3.106   3.896  18.643  0.00  0.00    +0.000 A 
ATOM      3  C   UNL     1       2.788   3.573  19.947  0.00  0.00    +0.000 A 
ATOM      4  S   UNL     1       2.194   4.948  20.769  0.00  0.00    +0.000 S 
ATOM      5  C   UNL     1       2.384   5.889  19.336  0.00  0.00    +0.000 A 
ATOM      6  N   UNL     1       2.835   5.212  18.296  0.00  0.00    +0.000 NA
BRANCH   5   7
ATOM      7  C   UNL     1       1.998   7.311  19.301  0.00  0.00    +0.000 A 
ATOM      8  C   UNL     1       1.469   7.983  20.415  0.00  0.00    +0.000 A 
ATOM      9  C   UNL     1       1.090   9.326  20.331  0.00  0.00    +0.000 A 
ATOM     10  C   UNL     1       1.241  10.020  19.133  0.00  0.00    +0.000 A 
ATOM     11  C   UNL     1       1.783   9.378  18.023  0.00  0.00    +0.000 A 
ATOM     12  C   UNL     1       2.163   8.036  18.109  0.00  0.00    +0.000 A 
ENDBRANCH   5   7
ENDBRANCH   1   2
BRANCH   1  13
ATOM     13  C   UNL     1       4.437   3.672  16.506  0.00  0.00    +0.000 C 
BRANCH  13  16
ATOM     14  O   UNL     1       5.894   5.586  15.035  0.00  0.00    +0.000 OA
ATOM     15  C   UNL     1       6.168   5.420  16.220  0.00  0.00    +0.000 C 
ATOM     16  N   UNL     1       5.492   4.531  17.025  0.00  0.00    +0.000 N 
ATOM     17  H   UNL     1       5.719   4.472  18.009  0.00  0.00    +0.000 HD
BRANCH  15  18
ATOM     18  C   UNL     1       7.311   6.139  16.917  0.00  0.00    +0.000 C 
ATOM     19  C   UNL     1       7.033   7.619  17.172  0.00  0.00    +0.000 C 
ATOM     20  C   UNL     1       8.072   8.007  18.215  0.00  0.00    +0.000 C 
ATOM     21  C   UNL     1       8.323   6.742  19.034  0.00  0.00    +0.000 C 
ATOM     22  C   UNL     1       7.581   5.612  18.323  0.00  0.00    +0.000 C 
ENDBRANCH  15  18
ENDBRANCH  13  16
ENDBRANCH   1  13
TORSDOF 5
ENDMDL
MODEL 9
REMARK VINA RESULT:      -7.3      4.670      6.929
REMARK  Name = 
REMARK  5 active torsions:
REMARK  status: ('A' for Active; 'I' for Inactive)
REMARK    1  A    between atoms: C_2  and  C_17
REMARK    2  A    between atoms: N_3  and  C_4
REMARK    3  A    between atoms: C_4  and  C_5
REMARK    4  A    between atoms: C_5  and  C_6
REMARK    5  A    between atoms: C_9  and  C_10
REMARK                            x       y       z     vdW  Elec       q    Type
REMARK                         _______ _______ _______ _____ _____    ______ ____
ROOT
ATOM      1  C   UNL     1       7.026   4.531  16.757  0.00  0.00    +0.000 C 
ENDROOT
BRANCH   1   2
ATOM      2  C   UNL     1       5.725   4.958  17.360  0.00  0.00    +0.000 A 
ATOM      3  C   UNL     1       5.091   6.167  17.151  0.00  0.00    +0.000 A 
ATOM      4  S   UNL     1       3.623   6.225  18.022  0.00  0.00    +0.000 S 
ATOM      5  C   UNL     1       3.923   4.642  18.636  0.00  0.00    +0.000 A 
ATOM      6  N   UNL     1       5.065   4.111  18.240  0.00  0.00    +0.000 NA
BRANCH   5   7
ATOM      7  C   UNL     1       2.988   3.999  19.578  0.00  0.00    +0.000 A 
ATOM      8  C   UNL     1       3.420   3.270  20.698  0.00  0.00    +0.000 A 
ATOM      9  C   UNL     1       2.501   2.653  21.551  0.00  0.00    +0.000 A 
ATOM     10  C   UNL     1       1.136   2.761  21.303  0.00  0.00    +0.000 A 
ATOM     11  C   UNL     1       0.686   3.497  20.209  0.00  0.00    +0.000 A 
ATOM     12  C   UNL     1       1.606   4.115  19.358  0.00  0.00    +0.000 A 
ENDBRANCH   5   7
ENDBRANCH   1   2
BRANCH   1  13
ATOM     13  C   UNL     1       7.335   5.226  15.431  0.00  0.00    +0.000 C 
BRANCH  13  16
ATOM     14  O   UNL     1       8.027   5.747  12.749  0.00  0.00    +0.000 OA
ATOM     15  C   UNL     1       7.342   4.761  13.000  0.00  0.00    +0.000 C 
ATOM     16  N   UNL     1       6.980   4.409  14.280  0.00  0.00    +0.000 N 
ATOM     17  H   UNL     1       6.462   3.555  14.439  0.00  0.00    +0.000 HD
BRANCH  15  18
ATOM     18  C   UNL     1       6.778   3.845  11.925  0.00  0.00    +0.000 C 
ATOM     19  C   UNL     1       7.522   2.517  11.805  0.00  0.00    +0.000 C 
ATOM     20  C   UNL     1       6.563   1.636  11.018  0.00  0.00    +0.000 C 
ATOM     21  C   UNL     1       5.163   2.123  11.386  0.00  0.00    +0.000 C 
ATOM     22  C   UNL     1       5.350   3.394  12.213  0.00  0.00    +0.000 C 
ENDBRANCH  15  18
ENDBRANCH  13  16
ENDBRANCH   1  13
TORSDOF 5
ENDMDL
