MODEL 1
REMARK VINA RESULT:      -7.8      0.000      0.000
REMARK  Name = 
REMARK  4 active torsions:
REMARK  status: ('A' for Active; 'I' for Inactive)
REMARK    1  A    between atoms: N_12  and  N_13
REMARK    2  A    between atoms: N_13  and  C_14
REMARK    3  A    between atoms: C_14  and  N_16
REMARK    4  A    between atoms: N_16  and  C_17
REMARK                            x       y       z     vdW  Elec       q    Type
REMARK                         _______ _______ _______ _____ _____    ______ ____
ROOT
ATOM      1  O   UNL     1       6.603   5.663  17.755  0.00  0.00    +0.000 OA
ATOM      2  C   UNL     1       6.628   5.278  16.602  0.00  0.00    +0.000 C 
ATOM      3  N   UNL     1       7.467   5.624  15.558  0.00  0.00    +0.000 N 
ATOM      4  C   UNL     1       7.090   4.966  14.377  0.00  0.00    +0.000 A 
ATOM      5  C   UNL     1       7.625   5.042  13.107  0.00  0.00    +0.000 A 
ATOM      6 CL   UNL     1       8.993   6.020  12.760  0.00  0.00    +0.000 Cl
ATOM      7  C   UNL     1       7.021   4.289  12.086  0.00  0.00    +0.000 A 
ATOM      8  C   UNL     1       5.893   3.481  12.343  0.00  0.00    +0.000 A 
ATOM      9  C   UNL     1       5.366   3.404  13.626  0.00  0.00    +0.000 A 
ATOM     10  C   UNL     1       5.995   4.146  14.605  0.00  0.00    +0.000 A 
ATOM     11  C   UNL     1       5.650   4.263  16.007  0.00  0.00    +0.000 C 
ATOM     12  N   UNL     1       4.681   3.591  16.532  0.00  0.00    +0.000 NA
ATOM     13  H   UNL     1       8.225   6.288  15.636  0.00  0.00    +0.000 HD
ENDROOT
BRANCH  12  14
ATOM     14  N   UNL     1       4.353   3.820  17.823  0.00  0.00    +0.000 N 
ATOM     15  H   UNL     1       4.982   3.496  18.560  0.00  0.00    +0.000 HD
BRANCH  14  16
ATOM     16  C   UNL     1       3.323   4.686  18.131  0.00  0.00    +0.000 C 
ATOM     17  S   UNL     1       1.692   4.384  17.900  0.00  0.00    +0.000 S 
BRANCH  16  18
ATOM     18  N   UNL     1       3.704   5.869  18.717  0.00  0.00    +0.000 N 
ATOM     19  H   UNL     1       4.590   5.845  19.211  0.00  0.00    +0.000 HD
BRANCH  18  20
ATOM     20  C   UNL     1       2.912   7.026  18.845  0.00  0.00    +0.000 A 
ATOM     21  C   UNL     1       2.866   7.922  17.777  0.00  0.00    +0.000 A 
ATOM     22  C   UNL     1       2.001   9.019  17.827  0.00  0.00    +0.000 A 
ATOM     23  C   UNL     1       1.222   9.248  18.960  0.00  0.00    +0.000 A 
ATOM     24  C   UNL     1       1.343   8.401  20.054  0.00  0.00    +0.000 A 
ATOM     25  F   UNL     1       0.630   8.638  21.163  0.00  0.00    +0.000 F 
ATOM     26  C   UNL     1       2.189   7.302  20.010  0.00  0.00    +0.000 A 
ENDBRANCH  18  20
ENDBRANCH  16  18
ENDBRANCH  14  16
ENDBRANCH  12  14
TORSDOF 4
ENDMDL
MODEL 2
REMARK VINA RESULT:      -7.7      4.057      7.820
REMARK  Name = 
REMARK  4 active torsions:
REMARK  status: ('A' for Active; 'I' for Inactive)
REMARK    1  A    between atoms: N_12  and  N_13
REMARK    2  A    between atoms: N_13  and  C_14
REMARK    3  A    between atoms: C_14  and  N_16
REMARK    4  A    between atoms: N_16  and  C_17
REMARK                            x       y       z     vdW  Elec       q    Type
REMARK                         _______ _______ _______ _____ _____    ______ ____
ROOT
ATOM      1  O   UNL     1       3.603   4.700  19.598  0.00  0.00    +0.000 OA
ATOM      2  C   UNL     1       3.118   5.810  19.486  0.00  0.00    +0.000 C 
ATOM      3  N   UNL     1       2.315   6.530  20.353  0.00  0.00    +0.000 N 
ATOM      4  C   UNL     1       1.941   7.756  19.782  0.00  0.00    +0.000 A 
ATOM      5  C   UNL     1       1.132   8.758  20.278  0.00  0.00    +0.000 A 
ATOM      6 CL   UNL     1       0.426   8.658  21.840  0.00  0.00    +0.000 Cl
ATOM      7  C   UNL     1       0.894   9.882  19.468  0.00  0.00    +0.000 A 
ATOM      8  C   UNL     1       1.458   9.986  18.179  0.00  0.00    +0.000 A 
ATOM      9  C   UNL     1       2.279   8.977  17.691  0.00  0.00    +0.000 A 
ATOM     10  C   UNL     1       2.501   7.896  18.520  0.00  0.00    +0.000 A 
ATOM     11  C   UNL     1       3.290   6.710  18.261  0.00  0.00    +0.000 C 
ATOM     12  N   UNL     1       3.961   6.559  17.169  0.00  0.00    +0.000 NA
ATOM     13  H   UNL     1       2.016   6.195  21.259  0.00  0.00    +0.000 HD
ENDROOT
BRANCH  12  14
ATOM     14  N   UNL     1       4.599   5.388  16.953  0.00  0.00    +0.000 N 
ATOM     15  H   UNL     1       4.051   4.560  16.711  0.00  0.00    +0.000 HD
BRANCH  14  16
ATOM     16  C   UNL     1       5.973   5.365  16.816  0.00  0.00    +0.000 C 
ATOM     17  S   UNL     1       7.043   6.433  17.538  0.00  0.00    +0.000 S 
BRANCH  16  18
ATOM     18  N   UNL     1       6.472   4.338  16.053  0.00  0.00    +0.000 N 
ATOM     19  H   UNL     1       6.911   3.583  16.569  0.00  0.00    +0.000 HD
BRANCH  18  20
ATOM     20  C   UNL     1       6.587   4.326  14.649  0.00  0.00    +0.000 A 
ATOM     21  C   UNL     1       7.491   5.200  14.048  0.00  0.00    +0.000 A 
ATOM     22  C   UNL     1       7.712   5.131  12.669  0.00  0.00    +0.000 A 
ATOM     23  C   UNL     1       6.995   4.228  11.888  0.00  0.00    +0.000 A 
ATOM     24  C   UNL     1       6.030   3.426  12.483  0.00  0.00    +0.000 A 
ATOM     25  F   UNL     1       5.306   2.585  11.732  0.00  0.00    +0.000 F 
ATOM     26  C   UNL     1       5.812   3.476  13.852  0.00  0.00    +0.000 A 
ENDBRANCH  18  20
ENDBRANCH  16  18
ENDBRANCH  14  16
ENDBRANCH  12  14
TORSDOF 4
ENDMDL
MODEL 3
REMARK VINA RESULT:      -7.6      4.056      7.615
REMARK  Name = 
REMARK  4 active torsions:
REMARK  status: ('A' for Active; 'I' for Inactive)
REMARK    1  A    between atoms: N_12  and  N_13
REMARK    2  A    between atoms: N_13  and  C_14
REMARK    3  A    between atoms: C_14  and  N_16
REMARK    4  A    between atoms: N_16  and  C_17
REMARK                            x       y       z     vdW  Elec       q    Type
REMARK                         _______ _______ _______ _____ _____    ______ ____
ROOT
ATOM      1  O   UNL     1       4.736   3.469  16.951  0.00  0.00    +0.000 OA
ATOM      2  C   UNL     1       4.056   4.026  17.792  0.00  0.00    +0.000 C 
ATOM      3  N   UNL     1       3.241   3.500  18.778  0.00  0.00    +0.000 N 
ATOM      4  C   UNL     1       2.598   4.524  19.491  0.00  0.00    +0.000 A 
ATOM      5  C   UNL     1       1.686   4.452  20.525  0.00  0.00    +0.000 A 
ATOM      6 CL   UNL     1       1.185   2.948  21.183  0.00  0.00    +0.000 Cl
ATOM      7  C   UNL     1       1.168   5.653  21.038  0.00  0.00    +0.000 A 
ATOM      8  C   UNL     1       1.559   6.902  20.511  0.00  0.00    +0.000 A 
ATOM      9  C   UNL     1       2.484   6.966  19.477  0.00  0.00    +0.000 A 
ATOM     10  C   UNL     1       2.981   5.767  19.008  0.00  0.00    +0.000 A 
ATOM     11  C   UNL     1       3.932   5.543  17.939  0.00  0.00    +0.000 C 
ATOM     12  N   UNL     1       4.494   6.518  17.307  0.00  0.00    +0.000 NA
ATOM     13  H   UNL     1       3.106   2.510  18.935  0.00  0.00    +0.000 HD
ENDROOT
BRANCH  12  14
ATOM     14  N   UNL     1       5.299   6.237  16.258  0.00  0.00    +0.000 N 
ATOM     15  H   UNL     1       4.930   6.328  15.310  0.00  0.00    +0.000 HD
BRANCH  14  16
ATOM     16  C   UNL     1       6.656   6.074  16.454  0.00  0.00    +0.000 C 
ATOM     17  S   UNL     1       7.613   6.997  17.473  0.00  0.00    +0.000 S 
BRANCH  16  18
ATOM     18  N   UNL     1       7.227   5.029  15.771  0.00  0.00    +0.000 N 
ATOM     19  H   UNL     1       7.901   4.481  16.296  0.00  0.00    +0.000 HD
BRANCH  18  20
ATOM     20  C   UNL     1       7.101   4.768  14.392  0.00  0.00    +0.000 A 
ATOM     21  C   UNL     1       7.853   5.531  13.500  0.00  0.00    +0.000 A 
ATOM     22  C   UNL     1       7.838   5.220  12.136  0.00  0.00    +0.000 A 
ATOM     23  C   UNL     1       7.036   4.185  11.661  0.00  0.00    +0.000 A 
ATOM     24  C   UNL     1       6.221   3.491  12.547  0.00  0.00    +0.000 A 
ATOM     25  F   UNL     1       5.415   2.522  12.092  0.00  0.00    +0.000 F 
ATOM     26  C   UNL     1       6.238   3.782  13.903  0.00  0.00    +0.000 A 
ENDBRANCH  18  20
ENDBRANCH  16  18
ENDBRANCH  14  16
ENDBRANCH  12  14
TORSDOF 4
ENDMDL
MODEL 4
REMARK VINA RESULT:      -7.6      4.178      6.814
REMARK  Name = 
REMARK  4 active torsions:
REMARK  status: ('A' for Active; 'I' for Inactive)
REMARK    1  A    between atoms: N_12  and  N_13
REMARK    2  A    between atoms: N_13  and  C_14
REMARK    3  A    between atoms: C_14  and  N_16
REMARK    4  A    between atoms: N_16  and  C_17
REMARK                            x       y       z     vdW  Elec       q    Type
REMARK                         _______ _______ _______ _____ _____    ______ ____
ROOT
ATOM      1  O   UNL     1       1.934   4.543  21.099  0.00  0.00    +0.000 OA
ATOM      2  C   UNL     1       1.912   5.642  20.578  0.00  0.00    +0.000 C 
ATOM      3  N   UNL     1       1.559   6.874  21.099  0.00  0.00    +0.000 N 
ATOM      4  C   UNL     1       1.631   7.870  20.113  0.00  0.00    +0.000 A 
ATOM      5  C   UNL     1       1.340   9.218  20.186  0.00  0.00    +0.000 A 
ATOM      6 CL   UNL     1       0.834   9.953  21.652  0.00  0.00    +0.000 Cl
ATOM      7  C   UNL     1       1.470   9.990  19.019  0.00  0.00    +0.000 A 
ATOM      8  C   UNL     1       1.879   9.409  17.801  0.00  0.00    +0.000 A 
ATOM      9  C   UNL     1       2.179   8.054  17.737  0.00  0.00    +0.000 A 
ATOM     10  C   UNL     1       2.054   7.331  18.906  0.00  0.00    +0.000 A 
ATOM     11  C   UNL     1       2.282   5.917  19.119  0.00  0.00    +0.000 C 
ATOM     12  N   UNL     1       2.712   5.143  18.180  0.00  0.00    +0.000 NA
ATOM     13  H   UNL     1       1.257   7.022  22.053  0.00  0.00    +0.000 HD
ENDROOT
BRANCH  12  14
ATOM     14  N   UNL     1       2.812   3.818  18.422  0.00  0.00    +0.000 N 
ATOM     15  H   UNL     1       2.003   3.219  18.252  0.00  0.00    +0.000 HD
BRANCH  14  16
ATOM     16  C   UNL     1       4.050   3.250  18.653  0.00  0.00    +0.000 C 
ATOM     17  S   UNL     1       4.443   2.263  19.948  0.00  0.00    +0.000 S 
BRANCH  16  18
ATOM     18  N   UNL     1       5.001   3.501  17.696  0.00  0.00    +0.000 N 
ATOM     19  H   UNL     1       5.253   2.710  17.113  0.00  0.00    +0.000 HD
BRANCH  18  20
ATOM     20  C   UNL     1       5.768   4.677  17.574  0.00  0.00    +0.000 A 
ATOM     21  C   UNL     1       5.449   5.576  16.557  0.00  0.00    +0.000 A 
ATOM     22  C   UNL     1       6.115   6.804  16.482  0.00  0.00    +0.000 A 
ATOM     23  C   UNL     1       7.129   7.109  17.387  0.00  0.00    +0.000 A 
ATOM     24  C   UNL     1       7.501   6.168  18.339  0.00  0.00    +0.000 A 
ATOM     25  F   UNL     1       8.504   6.436  19.185  0.00  0.00    +0.000 F 
ATOM     26  C   UNL     1       6.839   4.953  18.430  0.00  0.00    +0.000 A 
ENDBRANCH  18  20
ENDBRANCH  16  18
ENDBRANCH  14  16
ENDBRANCH  12  14
TORSDOF 4
ENDMDL
MODEL 5
REMARK VINA RESULT:      -7.6      0.860      1.301
REMARK  Name = 
REMARK  4 active torsions:
REMARK  status: ('A' for Active; 'I' for Inactive)
REMARK    1  A    between atoms: N_12  and  N_13
REMARK    2  A    between atoms: N_13  and  C_14
REMARK    3  A    between atoms: C_14  and  N_16
REMARK    4  A    between atoms: N_16  and  C_17
REMARK                            x       y       z     vdW  Elec       q    Type
REMARK                         _______ _______ _______ _____ _____    ______ ____
ROOT
ATOM      1  O   UNL     1       6.549   5.658  17.679  0.00  0.00    +0.000 OA
ATOM      2  C   UNL     1       6.598   5.273  16.526  0.00  0.00    +0.000 C 
ATOM      3  N   UNL     1       7.473   5.605  15.507  0.00  0.00    +0.000 N 
ATOM      4  C   UNL     1       7.118   4.956  14.315  0.00  0.00    +0.000 A 
ATOM      5  C   UNL     1       7.689   5.023  13.060  0.00  0.00    +0.000 A 
ATOM      6 CL   UNL     1       9.084   5.976  12.754  0.00  0.00    +0.000 Cl
ATOM      7  C   UNL     1       7.101   4.282  12.022  0.00  0.00    +0.000 A 
ATOM      8  C   UNL     1       5.951   3.496  12.246  0.00  0.00    +0.000 A 
ATOM      9  C   UNL     1       5.387   3.426  13.513  0.00  0.00    +0.000 A 
ATOM     10  C   UNL     1       6.001   4.155  14.511  0.00  0.00    +0.000 A 
ATOM     11  C   UNL     1       5.619   4.277  15.902  0.00  0.00    +0.000 C 
ATOM     12  N   UNL     1       4.623   3.623  16.399  0.00  0.00    +0.000 NA
ATOM     13  H   UNL     1       8.241   6.255  15.608  0.00  0.00    +0.000 HD
ENDROOT
BRANCH  12  14
ATOM     14  N   UNL     1       4.264   3.856  17.680  0.00  0.00    +0.000 N 
ATOM     15  H   UNL     1       4.894   3.571  18.433  0.00  0.00    +0.000 HD
BRANCH  14  16
ATOM     16  C   UNL     1       3.192   4.682  17.958  0.00  0.00    +0.000 C 
ATOM     17  S   UNL     1       1.616   4.179  18.220  0.00  0.00    +0.000 S 
BRANCH  16  18
ATOM     18  N   UNL     1       3.491   6.018  18.065  0.00  0.00    +0.000 N 
ATOM     19  H   UNL     1       4.444   6.272  17.830  0.00  0.00    +0.000 HD
BRANCH  18  20
ATOM     20  C   UNL     1       2.667   7.011  18.631  0.00  0.00    +0.000 A 
ATOM     21  C   UNL     1       2.325   6.902  19.979  0.00  0.00    +0.000 A 
ATOM     22  C   UNL     1       1.607   7.930  20.598  0.00  0.00    +0.000 A 
ATOM     23  C   UNL     1       1.188   9.036  19.861  0.00  0.00    +0.000 A 
ATOM     24  C   UNL     1       1.455   9.091  18.499  0.00  0.00    +0.000 A 
ATOM     25  F   UNL     1       1.019  10.130  17.775  0.00  0.00    +0.000 F 
ATOM     26  C   UNL     1       2.178   8.083  17.878  0.00  0.00    +0.000 A 
ENDBRANCH  18  20
ENDBRANCH  16  18
ENDBRANCH  14  16
ENDBRANCH  12  14
TORSDOF 4
ENDMDL
MODEL 6
REMARK VINA RESULT:      -7.5      1.398      1.894
REMARK  Name = 
REMARK  4 active torsions:
REMARK  status: ('A' for Active; 'I' for Inactive)
REMARK    1  A    between atoms: N_12  and  N_13
REMARK    2  A    between atoms: N_13  and  C_14
REMARK    3  A    between atoms: C_14  and  N_16
REMARK    4  A    between atoms: N_16  and  C_17
REMARK                            x       y       z     vdW  Elec       q    Type
REMARK                         _______ _______ _______ _____ _____    ______ ____
ROOT
ATOM      1  O   UNL     1       6.763   5.564  17.631  0.00  0.00    +0.000 OA
ATOM      2  C   UNL     1       6.794   5.208  16.468  0.00  0.00    +0.000 C 
ATOM      3  N   UNL     1       7.587   5.639  15.419  0.00  0.00    +0.000 N 
ATOM      4  C   UNL     1       7.238   4.983  14.229  0.00  0.00    +0.000 A 
ATOM      5  C   UNL     1       7.742   5.126  12.952  0.00  0.00    +0.000 A 
ATOM      6 CL   UNL     1       9.028   6.210  12.607  0.00  0.00    +0.000 Cl
ATOM      7  C   UNL     1       7.176   4.354  11.924  0.00  0.00    +0.000 A 
ATOM      8  C   UNL     1       6.115   3.461  12.180  0.00  0.00    +0.000 A 
ATOM      9  C   UNL     1       5.618   3.316  13.469  0.00  0.00    +0.000 A 
ATOM     10  C   UNL     1       6.209   4.079  14.455  0.00  0.00    +0.000 A 
ATOM     11  C   UNL     1       5.882   4.138  15.865  0.00  0.00    +0.000 C 
ATOM     12  N   UNL     1       4.975   3.386  16.390  0.00  0.00    +0.000 NA
ATOM     13  H   UNL     1       8.296   6.355  15.501  0.00  0.00    +0.000 HD
ENDROOT
BRANCH  12  14
ATOM     14  N   UNL     1       4.655   3.560  17.691  0.00  0.00    +0.000 N 
ATOM     15  H   UNL     1       5.190   4.228  18.249  0.00  0.00    +0.000 HD
BRANCH  14  16
ATOM     16  C   UNL     1       3.479   3.036  18.190  0.00  0.00    +0.000 C 
ATOM     17  S   UNL     1       3.315   1.545  18.937  0.00  0.00    +0.000 S 
BRANCH  16  18
ATOM     18  N   UNL     1       2.381   3.853  18.088  0.00  0.00    +0.000 N 
ATOM     19  H   UNL     1       1.694   3.577  17.394  0.00  0.00    +0.000 HD
BRANCH  18  20
ATOM     20  C   UNL     1       2.214   5.103  18.715  0.00  0.00    +0.000 A 
ATOM     21  C   UNL     1       1.795   5.130  20.045  0.00  0.00    +0.000 A 
ATOM     22  C   UNL     1       1.732   6.348  20.729  0.00  0.00    +0.000 A 
ATOM     23  C   UNL     1       2.036   7.539  20.072  0.00  0.00    +0.000 A 
ATOM     24  C   UNL     1       2.363   7.510  18.722  0.00  0.00    +0.000 A 
ATOM     25  F   UNL     1       2.615   8.654  18.073  0.00  0.00    +0.000 F 
ATOM     26  C   UNL     1       2.442   6.306  18.038  0.00  0.00    +0.000 A 
ENDBRANCH  18  20
ENDBRANCH  16  18
ENDBRANCH  14  16
ENDBRANCH  12  14
TORSDOF 4
ENDMDL
MODEL 7
REMARK VINA RESULT:      -7.5      3.856      6.759
REMARK  Name = 
REMARK  4 active torsions:
REMARK  status: ('A' for Active; 'I' for Inactive)
REMARK    1  A    between atoms: N_12  and  N_13
REMARK    2  A    between atoms: N_13  and  C_14
REMARK    3  A    between atoms: C_14  and  N_16
REMARK    4  A    between atoms: N_16  and  C_17
REMARK                            x       y       z     vdW  Elec       q    Type
REMARK                         _______ _______ _______ _____ _____    ______ ____
ROOT
ATOM      1  O   UNL     1       4.061   4.983  19.966  0.00  0.00    +0.000 OA
ATOM      2  C   UNL     1       3.419   5.989  19.733  0.00  0.00    +0.000 C 
ATOM      3  N   UNL     1       2.474   6.648  20.499  0.00  0.00    +0.000 N 
ATOM      4  C   UNL     1       1.947   7.746  19.803  0.00  0.00    +0.000 A 
ATOM      5  C   UNL     1       0.970   8.649  20.173  0.00  0.00    +0.000 A 
ATOM      6 CL   UNL     1       0.211   8.576  21.710  0.00  0.00    +0.000 Cl
ATOM      7  C   UNL     1       0.606   9.647  19.253  0.00  0.00    +0.000 A 
ATOM      8  C   UNL     1       1.211   9.725  17.981  0.00  0.00    +0.000 A 
ATOM      9  C   UNL     1       2.199   8.818  17.620  0.00  0.00    +0.000 A 
ATOM     10  C   UNL     1       2.541   7.862  18.554  0.00  0.00    +0.000 A 
ATOM     11  C   UNL     1       3.514   6.795  18.436  0.00  0.00    +0.000 C 
ATOM     12  N   UNL     1       4.254   6.656  17.388  0.00  0.00    +0.000 NA
ATOM     13  H   UNL     1       2.184   6.351  21.421  0.00  0.00    +0.000 HD
ENDROOT
BRANCH  12  14
ATOM     14  N   UNL     1       5.073   5.585  17.306  0.00  0.00    +0.000 N 
ATOM     15  H   UNL     1       5.704   5.380  18.083  0.00  0.00    +0.000 HD
BRANCH  14  16
ATOM     16  C   UNL     1       4.886   4.647  16.309  0.00  0.00    +0.000 C 
ATOM     17  S   UNL     1       6.049   4.141  15.216  0.00  0.00    +0.000 S 
BRANCH  16  18
ATOM     18  N   UNL     1       3.640   4.069  16.271  0.00  0.00    +0.000 N 
ATOM     19  H   UNL     1       3.056   4.344  15.489  0.00  0.00    +0.000 HD
BRANCH  18  20
ATOM     20  C   UNL     1       3.052   3.293  17.289  0.00  0.00    +0.000 A 
ATOM     21  C   UNL     1       3.773   2.217  17.804  0.00  0.00    +0.000 A 
ATOM     22  C   UNL     1       3.266   1.499  18.893  0.00  0.00    +0.000 A 
ATOM     23  C   UNL     1       2.022   1.825  19.430  0.00  0.00    +0.000 A 
ATOM     24  C   UNL     1       1.272   2.840  18.850  0.00  0.00    +0.000 A 
ATOM     25  F   UNL     1       0.057   3.130  19.334  0.00  0.00    +0.000 F 
ATOM     26  C   UNL     1       1.771   3.566  17.779  0.00  0.00    +0.000 A 
ENDBRANCH  18  20
ENDBRANCH  16  18
ENDBRANCH  14  16
ENDBRANCH  12  14
TORSDOF 4
ENDMDL
MODEL 8
REMARK VINA RESULT:      -7.4      4.053      7.828
REMARK  Name = 
REMARK  4 active torsions:
REMARK  status: ('A' for Active; 'I' for Inactive)
REMARK    1  A    between atoms: N_12  and  N_13
REMARK    2  A    between atoms: N_13  and  C_14
REMARK    3  A    between atoms: C_14  and  N_16
REMARK    4  A    between atoms: N_16  and  C_17
REMARK                            x       y       z     vdW  Elec       q    Type
REMARK                         _______ _______ _______ _____ _____    ______ ____
ROOT
ATOM      1  O   UNL     1       3.536   4.741  19.782  0.00  0.00    +0.000 OA
ATOM      2  C   UNL     1       3.053   5.847  19.631  0.00  0.00    +0.000 C 
ATOM      3  N   UNL     1       2.312   6.628  20.500  0.00  0.00    +0.000 N 
ATOM      4  C   UNL     1       1.911   7.820  19.879  0.00  0.00    +0.000 A 
ATOM      5  C   UNL     1       1.142   8.860  20.361  0.00  0.00    +0.000 A 
ATOM      6 CL   UNL     1       0.537   8.865  21.968  0.00  0.00    +0.000 Cl
ATOM      7  C   UNL     1       0.861   9.934  19.499  0.00  0.00    +0.000 A 
ATOM      8  C   UNL     1       1.341   9.951  18.173  0.00  0.00    +0.000 A 
ATOM      9  C   UNL     1       2.122   8.905  17.698  0.00  0.00    +0.000 A 
ATOM     10  C   UNL     1       2.389   7.876  18.577  0.00  0.00    +0.000 A 
ATOM     11  C   UNL     1       3.152   6.667  18.344  0.00  0.00    +0.000 C 
ATOM     12  N   UNL     1       3.750   6.441  17.223  0.00  0.00    +0.000 NA
ATOM     13  H   UNL     1       2.069   6.354  21.443  0.00  0.00    +0.000 HD
ENDROOT
BRANCH  12  14
ATOM     14  N   UNL     1       4.365   5.251  17.040  0.00  0.00    +0.000 N 
ATOM     15  H   UNL     1       3.801   4.429  16.819  0.00  0.00    +0.000 HD
BRANCH  14  16
ATOM     16  C   UNL     1       5.739   5.197  16.909  0.00  0.00    +0.000 C 
ATOM     17  S   UNL     1       6.831   6.226  17.653  0.00  0.00    +0.000 S 
BRANCH  16  18
ATOM     18  N   UNL     1       6.215   4.170  16.132  0.00  0.00    +0.000 N 
ATOM     19  H   UNL     1       6.452   3.319  16.629  0.00  0.00    +0.000 HD
BRANCH  18  20
ATOM     20  C   UNL     1       6.566   4.253  14.770  0.00  0.00    +0.000 A 
ATOM     21  C   UNL     1       5.906   3.426  13.862  0.00  0.00    +0.000 A 
ATOM     22  C   UNL     1       6.148   3.566  12.491  0.00  0.00    +0.000 A 
ATOM     23  C   UNL     1       7.083   4.493  12.035  0.00  0.00    +0.000 A 
ATOM     24  C   UNL     1       7.801   5.248  12.954  0.00  0.00    +0.000 A 
ATOM     25  F   UNL     1       8.732   6.111  12.525  0.00  0.00    +0.000 F 
ATOM     26  C   UNL     1       7.559   5.126  14.314  0.00  0.00    +0.000 A 
ENDBRANCH  18  20
ENDBRANCH  16  18
ENDBRANCH  14  16
ENDBRANCH  12  14
TORSDOF 4
ENDMDL
MODEL 9
REMARK VINA RESULT:      -7.4      4.668      8.828
REMARK  Name = 
REMARK  4 active torsions:
REMARK  status: ('A' for Active; 'I' for Inactive)
REMARK    1  A    between atoms: N_12  and  N_13
REMARK    2  A    between atoms: N_13  and  C_14
REMARK    3  A    between atoms: C_14  and  N_16
REMARK    4  A    between atoms: N_16  and  C_17
REMARK                            x       y       z     vdW  Elec       q    Type
REMARK                         _______ _______ _______ _____ _____    ______ ____
ROOT
ATOM      1  O   UNL     1       1.692   9.508  17.917  0.00  0.00    +0.000 OA
ATOM      2  C   UNL     1       1.086   9.780  18.936  0.00  0.00    +0.000 C 
ATOM      3  N   UNL     1       0.298  10.874  19.246  0.00  0.00    +0.000 N 
ATOM      4  C   UNL     1      -0.162  10.798  20.569  0.00  0.00    +0.000 A 
ATOM      5  C   UNL     1      -0.941  11.678  21.293  0.00  0.00    +0.000 A 
ATOM      6 CL   UNL     1      -1.554  13.122  20.597  0.00  0.00    +0.000 Cl
ATOM      7  C   UNL     1      -1.228  11.364  22.632  0.00  0.00    +0.000 A 
ATOM      8  C   UNL     1      -0.732  10.186  23.229  0.00  0.00    +0.000 A 
ATOM      9  C   UNL     1       0.044   9.301  22.491  0.00  0.00    +0.000 A 
ATOM     10  C   UNL     1       0.293   9.636  21.176  0.00  0.00    +0.000 A 
ATOM     11  C   UNL     1       1.076   8.912  20.196  0.00  0.00    +0.000 C 
ATOM     12  N   UNL     1       1.614   7.768  20.457  0.00  0.00    +0.000 NA
ATOM     13  H   UNL     1       0.113  11.639  18.609  0.00  0.00    +0.000 HD
ENDROOT
BRANCH  12  14
ATOM     14  N   UNL     1       2.409   7.194  19.528  0.00  0.00    +0.000 N 
ATOM     15  H   UNL     1       2.851   7.783  18.820  0.00  0.00    +0.000 HD
BRANCH  14  16
ATOM     16  C   UNL     1       2.815   5.883  19.682  0.00  0.00    +0.000 C 
ATOM     17  S   UNL     1       1.801   4.561  19.844  0.00  0.00    +0.000 S 
BRANCH  16  18
ATOM     18  N   UNL     1       4.173   5.680  19.649  0.00  0.00    +0.000 N 
ATOM     19  H   UNL     1       4.662   5.858  20.519  0.00  0.00    +0.000 HD
BRANCH  18  20
ATOM     20  C   UNL     1       4.948   5.430  18.499  0.00  0.00    +0.000 A 
ATOM     21  C   UNL     1       4.415   5.756  17.253  0.00  0.00    +0.000 A 
ATOM     22  C   UNL     1       5.203   5.628  16.105  0.00  0.00    +0.000 A 
ATOM     23  C   UNL     1       6.500   5.127  16.196  0.00  0.00    +0.000 A 
ATOM     24  C   UNL     1       6.989   4.718  17.431  0.00  0.00    +0.000 A 
ATOM     25  F   UNL     1       8.219   4.196  17.521  0.00  0.00    +0.000 F 
ATOM     26  C   UNL     1       6.221   4.854  18.577  0.00  0.00    +0.000 A 
ENDBRANCH  18  20
ENDBRANCH  16  18
ENDBRANCH  14  16
ENDBRANCH  12  14
TORSDOF 4
ENDMDL
