MODEL 1
REMARK VINA RESULT:      -7.9      0.000      0.000
REMARK  Name = 
REMARK  4 active torsions:
REMARK  status: ('A' for Active; 'I' for Inactive)
REMARK    1  A    between atoms: C_1  and  C_2
REMARK    2  A    between atoms: C_2  and  C_3
REMARK    3  A    between atoms: C_8  and  C_9
REMARK    4  A    between atoms: C_10  and  C_11
REMARK                            x       y       z     vdW  Elec       q    Type
REMARK                         _______ _______ _______ _____ _____    ______ ____
ROOT
ATOM      1  C   UNL     1       4.791   5.071  18.182  0.00  0.00    +0.000 A 
ATOM      2  C   UNL     1       4.809   4.156  19.214  0.00  0.00    +0.000 A 
ATOM      3  S   UNL     1       3.550   4.504  20.326  0.00  0.00    +0.000 S 
ATOM      4  C   UNL     1       3.085   5.866  19.371  0.00  0.00    +0.000 A 
ATOM      5  N   UNL     1       2.073   6.665  19.773  0.00  0.00    +0.000 N 
ATOM      6  C   UNL     1       1.827   7.970  19.343  0.00  0.00    +0.000 A 
ATOM      7  C   UNL     1       2.268   8.476  18.123  0.00  0.00    +0.000 A 
ATOM      8  C   UNL     1       2.083   9.816  17.804  0.00  0.00    +0.000 A 
ATOM      9  C   UNL     1       1.408  10.625  18.698  0.00  0.00    +0.000 A 
ATOM     10  C   UNL     1       0.943  10.045  19.865  0.00  0.00    +0.000 A 
ATOM     11  N   UNL     1       1.137   8.749  20.203  0.00  0.00    +0.000 NA
ATOM     12  N   UNL     1       3.809   6.026  18.288  0.00  0.00    +0.000 NA
ATOM     13  H   UNL     1       1.678   6.530  20.695  0.00  0.00    +0.000 HD
ENDROOT
BRANCH   1  21
ATOM     14  C   UNL     1       6.391   3.784  12.723  0.00  0.00    +0.000 C 
ATOM     15  O   UNL     1       5.247   3.386  12.928  0.00  0.00    +0.000 OA
ATOM     16  N   UNL     1       7.189   4.474  13.609  0.00  0.00    +0.000 N 
ATOM     17  C   UNL     1       6.824   4.798  14.888  0.00  0.00    +0.000 A 
ATOM     18  N   UNL     1       7.449   5.722  15.579  0.00  0.00    +0.000 NA
ATOM     19  C   UNL     1       6.796   5.911  16.796  0.00  0.00    +0.000 A 
ATOM     20  C   UNL     1       7.304   6.990  17.679  0.00  0.00    +0.000 C 
ATOM     21  C   UNL     1       5.719   5.060  17.010  0.00  0.00    +0.000 A 
ATOM     22  S   UNL     1       5.582   3.974  15.707  0.00  0.00    +0.000 S 
ATOM     23  H   UNL     1       8.003   4.971  13.275  0.00  0.00    +0.000 HD
BRANCH  14  25
ATOM     24  C   UNL     1       7.234   2.051  11.135  0.00  0.00    +0.000 C 
ATOM     25  C   UNL     1       7.068   3.543  11.390  0.00  0.00    +0.000 C 
ENDBRANCH  14  25
ENDBRANCH   1  21
TORSDOF 2
ENDMDL
MODEL 2
REMARK VINA RESULT:      -7.6      3.694      8.872
REMARK  Name = 
REMARK  4 active torsions:
REMARK  status: ('A' for Active; 'I' for Inactive)
REMARK    1  A    between atoms: C_1  and  C_2
REMARK    2  A    between atoms: C_2  and  C_3
REMARK    3  A    between atoms: C_8  and  C_9
REMARK    4  A    between atoms: C_10  and  C_11
REMARK                            x       y       z     vdW  Elec       q    Type
REMARK                         _______ _______ _______ _____ _____    ______ ____
ROOT
ATOM      1  C   UNL     1       2.125   6.403  20.053  0.00  0.00    +0.000 A 
ATOM      2  C   UNL     1       1.778   5.374  20.905  0.00  0.00    +0.000 A 
ATOM      3  S   UNL     1       2.768   4.006  20.602  0.00  0.00    +0.000 S 
ATOM      4  C   UNL     1       3.572   4.868  19.339  0.00  0.00    +0.000 A 
ATOM      5  N   UNL     1       4.532   4.264  18.608  0.00  0.00    +0.000 N 
ATOM      6  C   UNL     1       4.995   4.667  17.354  0.00  0.00    +0.000 A 
ATOM      7  C   UNL     1       4.902   5.973  16.881  0.00  0.00    +0.000 A 
ATOM      8  C   UNL     1       5.283   6.284  15.581  0.00  0.00    +0.000 A 
ATOM      9  C   UNL     1       5.804   5.283  14.783  0.00  0.00    +0.000 A 
ATOM     10  C   UNL     1       5.925   4.020  15.334  0.00  0.00    +0.000 A 
ATOM     11  N   UNL     1       5.535   3.694  16.589  0.00  0.00    +0.000 NA
ATOM     12  N   UNL     1       3.141   6.098  19.180  0.00  0.00    +0.000 NA
ATOM     13  H   UNL     1       4.685   3.270  18.723  0.00  0.00    +0.000 HD
ENDROOT
BRANCH   1  21
ATOM     14  C   UNL     1      -0.388  11.065  22.495  0.00  0.00    +0.000 C 
ATOM     15  O   UNL     1      -0.100  10.244  23.362  0.00  0.00    +0.000 OA
ATOM     16  N   UNL     1      -0.130  10.956  21.146  0.00  0.00    +0.000 N 
ATOM     17  C   UNL     1       0.472   9.876  20.558  0.00  0.00    +0.000 A 
ATOM     18  N   UNL     1       0.997   9.939  19.358  0.00  0.00    +0.000 NA
ATOM     19  C   UNL     1       1.630   8.732  19.066  0.00  0.00    +0.000 A 
ATOM     20  C   UNL     1       2.368   8.645  17.781  0.00  0.00    +0.000 C 
ATOM     21  C   UNL     1       1.501   7.761  20.051  0.00  0.00    +0.000 A 
ATOM     22  S   UNL     1       0.518   8.351  21.308  0.00  0.00    +0.000 S 
ATOM     23  H   UNL     1      -0.175  11.775  20.555  0.00  0.00    +0.000 HD
BRANCH  14  25
ATOM     24  C   UNL     1      -2.563  12.104  23.146  0.00  0.00    +0.000 C 
ATOM     25  C   UNL     1      -1.091  12.357  22.856  0.00  0.00    +0.000 C 
ENDBRANCH  14  25
ENDBRANCH   1  21
TORSDOF 2
ENDMDL
MODEL 3
REMARK VINA RESULT:      -7.3      1.467      1.736
REMARK  Name = 
REMARK  4 active torsions:
REMARK  status: ('A' for Active; 'I' for Inactive)
REMARK    1  A    between atoms: C_1  and  C_2
REMARK    2  A    between atoms: C_2  and  C_3
REMARK    3  A    between atoms: C_8  and  C_9
REMARK    4  A    between atoms: C_10  and  C_11
REMARK                            x       y       z     vdW  Elec       q    Type
REMARK                         _______ _______ _______ _____ _____    ______ ____
ROOT
ATOM      1  C   UNL     1       4.524   4.100  19.069  0.00  0.00    +0.000 A 
ATOM      2  C   UNL     1       4.431   2.990  19.884  0.00  0.00    +0.000 A 
ATOM      3  S   UNL     1       3.057   3.128  20.903  0.00  0.00    +0.000 S 
ATOM      4  C   UNL     1       2.697   4.668  20.209  0.00  0.00    +0.000 A 
ATOM      5  N   UNL     1       1.647   5.387  20.657  0.00  0.00    +0.000 N 
ATOM      6  C   UNL     1       1.447   6.758  20.484  0.00  0.00    +0.000 A 
ATOM      7  C   UNL     1       2.019   7.496  19.451  0.00  0.00    +0.000 A 
ATOM      8  C   UNL     1       1.868   8.877  19.399  0.00  0.00    +0.000 A 
ATOM      9  C   UNL     1       1.098   9.498  20.365  0.00  0.00    +0.000 A 
ATOM     10  C   UNL     1       0.509   8.699  21.329  0.00  0.00    +0.000 A 
ATOM     11  N   UNL     1       0.666   7.357  21.409  0.00  0.00    +0.000 NA
ATOM     12  N   UNL     1       3.535   5.033  19.266  0.00  0.00    +0.000 NA
ATOM     13  H   UNL     1       1.154   5.074  21.483  0.00  0.00    +0.000 HD
ENDROOT
BRANCH   1  21
ATOM     14  C   UNL     1       6.571   4.391  13.616  0.00  0.00    +0.000 C 
ATOM     15  O   UNL     1       5.367   4.146  13.597  0.00  0.00    +0.000 OA
ATOM     16  N   UNL     1       7.344   4.615  14.734  0.00  0.00    +0.000 N 
ATOM     17  C   UNL     1       6.878   4.565  16.020  0.00  0.00    +0.000 A 
ATOM     18  N   UNL     1       7.536   5.099  17.021  0.00  0.00    +0.000 NA
ATOM     19  C   UNL     1       6.774   4.993  18.184  0.00  0.00    +0.000 A 
ATOM     20  C   UNL     1       7.316   5.628  19.411  0.00  0.00    +0.000 C 
ATOM     21  C   UNL     1       5.574   4.311  18.027  0.00  0.00    +0.000 A 
ATOM     22  S   UNL     1       5.446   3.743  16.428  0.00  0.00    +0.000 S 
ATOM     23  H   UNL     1       8.252   5.049  14.642  0.00  0.00    +0.000 HD
BRANCH  14  25
ATOM     24  C   UNL     1       8.160   5.777  12.279  0.00  0.00    +0.000 C 
ATOM     25  C   UNL     1       7.362   4.482  12.327  0.00  0.00    +0.000 C 
ENDBRANCH  14  25
ENDBRANCH   1  21
TORSDOF 2
ENDMDL
MODEL 4
REMARK VINA RESULT:      -7.1      2.043      3.696
REMARK  Name = 
REMARK  4 active torsions:
REMARK  status: ('A' for Active; 'I' for Inactive)
REMARK    1  A    between atoms: C_1  and  C_2
REMARK    2  A    between atoms: C_2  and  C_3
REMARK    3  A    between atoms: C_8  and  C_9
REMARK    4  A    between atoms: C_10  and  C_11
REMARK                            x       y       z     vdW  Elec       q    Type
REMARK                         _______ _______ _______ _____ _____    ______ ____
ROOT
ATOM      1  C   UNL     1       4.431   6.243  17.171  0.00  0.00    +0.000 A 
ATOM      2  C   UNL     1       3.786   7.446  16.971  0.00  0.00    +0.000 A 
ATOM      3  S   UNL     1       2.692   7.743  18.259  0.00  0.00    +0.000 S 
ATOM      4  C   UNL     1       3.132   6.236  18.980  0.00  0.00    +0.000 A 
ATOM      5  N   UNL     1       2.532   5.825  20.116  0.00  0.00    +0.000 N 
ATOM      6  C   UNL     1       2.489   4.517  20.605  0.00  0.00    +0.000 A 
ATOM      7  C   UNL     1       3.428   3.542  20.279  0.00  0.00    +0.000 A 
ATOM      8  C   UNL     1       3.267   2.231  20.712  0.00  0.00    +0.000 A 
ATOM      9  C   UNL     1       2.184   1.925  21.514  0.00  0.00    +0.000 A 
ATOM     10  C   UNL     1       1.322   2.953  21.850  0.00  0.00    +0.000 A 
ATOM     11  N   UNL     1       1.450   4.229  21.416  0.00  0.00    +0.000 NA
ATOM     12  N   UNL     1       4.051   5.577  18.311  0.00  0.00    +0.000 NA
ATOM     13  H   UNL     1       1.738   6.345  20.468  0.00  0.00    +0.000 HD
ENDROOT
BRANCH   1  21
ATOM     14  C   UNL     1       6.385   3.427  12.451  0.00  0.00    +0.000 C 
ATOM     15  O   UNL     1       5.160   3.508  12.412  0.00  0.00    +0.000 OA
ATOM     16  N   UNL     1       7.210   3.951  13.423  0.00  0.00    +0.000 N 
ATOM     17  C   UNL     1       6.769   4.627  14.529  0.00  0.00    +0.000 A 
ATOM     18  N   UNL     1       7.564   5.387  15.244  0.00  0.00    +0.000 NA
ATOM     19  C   UNL     1       6.823   6.030  16.234  0.00  0.00    +0.000 A 
ATOM     20  C   UNL     1       7.537   7.011  17.089  0.00  0.00    +0.000 C 
ATOM     21  C   UNL     1       5.481   5.674  16.271  0.00  0.00    +0.000 A 
ATOM     22  S   UNL     1       5.176   4.474  15.104  0.00  0.00    +0.000 S 
ATOM     23  H   UNL     1       8.200   4.052  13.246  0.00  0.00    +0.000 HD
BRANCH  14  25
ATOM     24  C   UNL     1       6.515   1.354  11.067  0.00  0.00    +0.000 C 
ATOM     25  C   UNL     1       7.149   2.705  11.361  0.00  0.00    +0.000 C 
ENDBRANCH  14  25
ENDBRANCH   1  21
TORSDOF 2
ENDMDL
MODEL 5
REMARK VINA RESULT:      -6.6      6.041     10.113
REMARK  Name = 
REMARK  4 active torsions:
REMARK  status: ('A' for Active; 'I' for Inactive)
REMARK    1  A    between atoms: C_1  and  C_2
REMARK    2  A    between atoms: C_2  and  C_3
REMARK    3  A    between atoms: C_8  and  C_9
REMARK    4  A    between atoms: C_10  and  C_11
REMARK                            x       y       z     vdW  Elec       q    Type
REMARK                         _______ _______ _______ _____ _____    ______ ____
ROOT
ATOM      1  C   UNL     1      -0.039  10.971  21.060  0.00  0.00    +0.000 A 
ATOM      2  C   UNL     1      -0.534  10.861  22.343  0.00  0.00    +0.000 A 
ATOM      3  S   UNL     1       0.033   9.413  23.066  0.00  0.00    +0.000 S 
ATOM      4  C   UNL     1       0.877   9.018  21.611  0.00  0.00    +0.000 A 
ATOM      5  N   UNL     1       1.560   7.858  21.514  0.00  0.00    +0.000 N 
ATOM      6  C   UNL     1       1.961   7.228  20.334  0.00  0.00    +0.000 A 
ATOM      7  C   UNL     1       2.149   7.899  19.129  0.00  0.00    +0.000 A 
ATOM      8  C   UNL     1       2.443   7.196  17.966  0.00  0.00    +0.000 A 
ATOM      9  C   UNL     1       2.595   5.824  18.039  0.00  0.00    +0.000 A 
ATOM     10  C   UNL     1       2.454   5.227  19.279  0.00  0.00    +0.000 A 
ATOM     11  N   UNL     1       2.143   5.893  20.416  0.00  0.00    +0.000 NA
ATOM     12  N   UNL     1       0.758   9.923  20.667  0.00  0.00    +0.000 NA
ATOM     13  H   UNL     1       1.468   7.170  22.251  0.00  0.00    +0.000 HD
ENDROOT
BRANCH   1  21
ATOM     14  C   UNL     1       0.607  16.440  19.138  0.00  0.00    +0.000 C 
ATOM     15  O   UNL     1       1.325  16.254  20.117  0.00  0.00    +0.000 OA
ATOM     16  N   UNL     1      -0.205  15.508  18.530  0.00  0.00    +0.000 N 
ATOM     17  C   UNL     1      -0.358  14.217  18.958  0.00  0.00    +0.000 A 
ATOM     18  N   UNL     1      -0.859  13.282  18.188  0.00  0.00    +0.000 NA
ATOM     19  C   UNL     1      -0.792  12.055  18.846  0.00  0.00    +0.000 A 
ATOM     20  C   UNL     1      -1.229  10.854  18.091  0.00  0.00    +0.000 C 
ATOM     21  C   UNL     1      -0.291  12.122  20.140  0.00  0.00    +0.000 A 
ATOM     22  S   UNL     1       0.023  13.744  20.546  0.00  0.00    +0.000 S 
ATOM     23  H   UNL     1      -0.559  15.678  17.598  0.00  0.00    +0.000 HD
BRANCH  14  25
ATOM     24  C   UNL     1      -0.517  17.813  17.381  0.00  0.00    +0.000 C 
ATOM     25  C   UNL     1       0.553  17.795  18.463  0.00  0.00    +0.000 C 
ENDBRANCH  14  25
ENDBRANCH   1  21
TORSDOF 2
ENDMDL
MODEL 6
REMARK VINA RESULT:      -6.5      5.632      9.265
REMARK  Name = 
REMARK  4 active torsions:
REMARK  status: ('A' for Active; 'I' for Inactive)
REMARK    1  A    between atoms: C_1  and  C_2
REMARK    2  A    between atoms: C_2  and  C_3
REMARK    3  A    between atoms: C_8  and  C_9
REMARK    4  A    between atoms: C_10  and  C_11
REMARK                            x       y       z     vdW  Elec       q    Type
REMARK                         _______ _______ _______ _____ _____    ______ ____
ROOT
ATOM      1  C   UNL     1       0.367  10.713  20.839  0.00  0.00    +0.000 A 
ATOM      2  C   UNL     1      -0.421  10.590  21.965  0.00  0.00    +0.000 A 
ATOM      3  S   UNL     1      -0.248   9.018  22.630  0.00  0.00    +0.000 S 
ATOM      4  C   UNL     1       0.843   8.601  21.358  0.00  0.00    +0.000 A 
ATOM      5  N   UNL     1       1.358   7.355  21.285  0.00  0.00    +0.000 N 
ATOM      6  C   UNL     1       1.927   6.757  20.158  0.00  0.00    +0.000 A 
ATOM      7  C   UNL     1       2.481   7.476  19.103  0.00  0.00    +0.000 A 
ATOM      8  C   UNL     1       2.932   6.823  17.962  0.00  0.00    +0.000 A 
ATOM      9  C   UNL     1       2.866   5.444  17.915  0.00  0.00    +0.000 A 
ATOM     10  C   UNL     1       2.360   4.787  19.023  0.00  0.00    +0.000 A 
ATOM     11  N   UNL     1       1.892   5.408  20.131  0.00  0.00    +0.000 NA
ATOM     12  N   UNL     1       1.075   9.581  20.516  0.00  0.00    +0.000 NA
ATOM     13  H   UNL     1       1.001   6.639  21.905  0.00  0.00    +0.000 HD
ENDROOT
BRANCH   1  21
ATOM     14  C   UNL     1       3.212  15.281  18.590  0.00  0.00    +0.000 C 
ATOM     15  O   UNL     1       3.980  14.603  19.267  0.00  0.00    +0.000 OA
ATOM     16  N   UNL     1       1.884  15.010  18.340  0.00  0.00    +0.000 N 
ATOM     17  C   UNL     1       1.205  13.936  18.847  0.00  0.00    +0.000 A 
ATOM     18  N   UNL     1       0.068  13.526  18.337  0.00  0.00    +0.000 NA
ATOM     19  C   UNL     1      -0.333  12.356  18.981  0.00  0.00    +0.000 A 
ATOM     20  C   UNL     1      -1.557  11.687  18.474  0.00  0.00    +0.000 C 
ATOM     21  C   UNL     1       0.500  11.954  20.017  0.00  0.00    +0.000 A 
ATOM     22  S   UNL     1       1.745  13.095  20.223  0.00  0.00    +0.000 S 
ATOM     23  H   UNL     1       1.406  15.479  17.582  0.00  0.00    +0.000 HD
BRANCH  14  25
ATOM     24  C   UNL     1       2.574  17.167  17.083  0.00  0.00    +0.000 C 
ATOM     25  C   UNL     1       3.687  16.554  17.921  0.00  0.00    +0.000 C 
ENDBRANCH  14  25
ENDBRANCH   1  21
TORSDOF 2
ENDMDL
MODEL 7
REMARK VINA RESULT:      -6.5      2.693      4.698
REMARK  Name = 
REMARK  4 active torsions:
REMARK  status: ('A' for Active; 'I' for Inactive)
REMARK    1  A    between atoms: C_1  and  C_2
REMARK    2  A    between atoms: C_2  and  C_3
REMARK    3  A    between atoms: C_8  and  C_9
REMARK    4  A    between atoms: C_10  and  C_11
REMARK                            x       y       z     vdW  Elec       q    Type
REMARK                         _______ _______ _______ _____ _____    ______ ____
ROOT
ATOM      1  C   UNL     1       1.629   7.850  20.173  0.00  0.00    +0.000 A 
ATOM      2  C   UNL     1       1.018   7.606  21.386  0.00  0.00    +0.000 A 
ATOM      3  S   UNL     1       0.306   9.048  21.983  0.00  0.00    +0.000 S 
ATOM      4  C   UNL     1       0.883   9.905  20.599  0.00  0.00    +0.000 A 
ATOM      5  N   UNL     1       0.663  11.231  20.480  0.00  0.00    +0.000 N 
ATOM      6  C   UNL     1       1.360  12.116  19.653  0.00  0.00    +0.000 A 
ATOM      7  C   UNL     1       2.039  11.723  18.503  0.00  0.00    +0.000 A 
ATOM      8  C   UNL     1       2.803  12.636  17.786  0.00  0.00    +0.000 A 
ATOM      9  C   UNL     1       2.835  13.952  18.207  0.00  0.00    +0.000 A 
ATOM     10  C   UNL     1       2.089  14.289  19.323  0.00  0.00    +0.000 A 
ATOM     11  N   UNL     1       1.361  13.407  20.048  0.00  0.00    +0.000 NA
ATOM     12  N   UNL     1       1.538   9.152  19.745  0.00  0.00    +0.000 NA
ATOM     13  H   UNL     1       0.271  11.736  21.264  0.00  0.00    +0.000 HD
ENDROOT
BRANCH   1  21
ATOM     14  C   UNL     1       5.630   5.938  16.384  0.00  0.00    +0.000 C 
ATOM     15  O   UNL     1       5.799   7.136  16.601  0.00  0.00    +0.000 OA
ATOM     16  N   UNL     1       4.679   5.127  16.965  0.00  0.00    +0.000 N 
ATOM     17  C   UNL     1       3.742   5.555  17.866  0.00  0.00    +0.000 A 
ATOM     18  N   UNL     1       3.085   4.722  18.638  0.00  0.00    +0.000 NA
ATOM     19  C   UNL     1       2.286   5.444  19.523  0.00  0.00    +0.000 A 
ATOM     20  C   UNL     1       1.534   4.672  20.543  0.00  0.00    +0.000 C 
ATOM     21  C   UNL     1       2.321   6.821  19.339  0.00  0.00    +0.000 A 
ATOM     22  S   UNL     1       3.306   7.193  18.003  0.00  0.00    +0.000 S 
ATOM     23  H   UNL     1       4.774   4.122  16.916  0.00  0.00    +0.000 HD
BRANCH  14  25
ATOM     24  C   UNL     1       5.669   4.379  14.435  0.00  0.00    +0.000 C 
ATOM     25  C   UNL     1       6.513   5.197  15.402  0.00  0.00    +0.000 C 
ENDBRANCH  14  25
ENDBRANCH   1  21
TORSDOF 2
ENDMDL
MODEL 8
REMARK VINA RESULT:      -6.4      4.723      8.765
REMARK  Name = 
REMARK  4 active torsions:
REMARK  status: ('A' for Active; 'I' for Inactive)
REMARK    1  A    between atoms: C_1  and  C_2
REMARK    2  A    between atoms: C_2  and  C_3
REMARK    3  A    between atoms: C_8  and  C_9
REMARK    4  A    between atoms: C_10  and  C_11
REMARK                            x       y       z     vdW  Elec       q    Type
REMARK                         _______ _______ _______ _____ _____    ______ ____
ROOT
ATOM      1  C   UNL     1       2.157   8.122  18.472  0.00  0.00    +0.000 A 
ATOM      2  C   UNL     1       3.190   8.514  17.646  0.00  0.00    +0.000 A 
ATOM      3  S   UNL     1       4.203   7.173  17.302  0.00  0.00    +0.000 S 
ATOM      4  C   UNL     1       3.212   6.169  18.300  0.00  0.00    +0.000 A 
ATOM      5  N   UNL     1       3.535   4.873  18.494  0.00  0.00    +0.000 N 
ATOM      6  C   UNL     1       3.083   4.053  19.530  0.00  0.00    +0.000 A 
ATOM      7  C   UNL     1       1.899   4.274  20.228  0.00  0.00    +0.000 A 
ATOM      8  C   UNL     1       1.562   3.483  21.320  0.00  0.00    +0.000 A 
ATOM      9  C   UNL     1       2.401   2.442  21.670  0.00  0.00    +0.000 A 
ATOM     10  C   UNL     1       3.531   2.239  20.898  0.00  0.00    +0.000 A 
ATOM     11  N   UNL     1       3.887   3.015  19.847  0.00  0.00    +0.000 NA
ATOM     12  N   UNL     1       2.186   6.795  18.827  0.00  0.00    +0.000 NA
ATOM     13  H   UNL     1       4.424   4.532  18.154  0.00  0.00    +0.000 HD
ENDROOT
BRANCH   1  21
ATOM     14  C   UNL     1      -2.859  11.058  17.980  0.00  0.00    +0.000 C 
ATOM     15  O   UNL     1      -2.639  10.431  16.947  0.00  0.00    +0.000 OA
ATOM     16  N   UNL     1      -2.085  11.055  19.120  0.00  0.00    +0.000 N 
ATOM     17  C   UNL     1      -0.914  10.361  19.259  0.00  0.00    +0.000 A 
ATOM     18  N   UNL     1      -0.386  10.110  20.433  0.00  0.00    +0.000 NA
ATOM     19  C   UNL     1       0.736   9.300  20.273  0.00  0.00    +0.000 A 
ATOM     20  C   UNL     1       1.417   8.830  21.505  0.00  0.00    +0.000 C 
ATOM     21  C   UNL     1       1.058   9.015  18.951  0.00  0.00    +0.000 A 
ATOM     22  S   UNL     1      -0.014   9.834  17.915  0.00  0.00    +0.000 S 
ATOM     23  H   UNL     1      -2.468  11.394  19.992  0.00  0.00    +0.000 HD
BRANCH  14  25
ATOM     24  C   UNL     1      -5.355  11.109  18.003  0.00  0.00    +0.000 C 
ATOM     25  C   UNL     1      -4.084  11.940  18.105  0.00  0.00    +0.000 C 
ENDBRANCH  14  25
ENDBRANCH   1  21
TORSDOF 2
ENDMDL
MODEL 9
REMARK VINA RESULT:      -6.4      4.553      6.204
REMARK  Name = 
REMARK  4 active torsions:
REMARK  status: ('A' for Active; 'I' for Inactive)
REMARK    1  A    between atoms: C_1  and  C_2
REMARK    2  A    between atoms: C_2  and  C_3
REMARK    3  A    between atoms: C_8  and  C_9
REMARK    4  A    between atoms: C_10  and  C_11
REMARK                            x       y       z     vdW  Elec       q    Type
REMARK                         _______ _______ _______ _____ _____    ______ ____
ROOT
ATOM      1  C   UNL     1       1.074   8.771  20.761  0.00  0.00    +0.000 A 
ATOM      2  C   UNL     1       0.450   8.651  21.986  0.00  0.00    +0.000 A 
ATOM      3  S   UNL     1      -0.145  10.179  22.490  0.00  0.00    +0.000 S 
ATOM      4  C   UNL     1       0.494  10.901  21.056  0.00  0.00    +0.000 A 
ATOM      5  N   UNL     1       0.379  12.230  20.855  0.00  0.00    +0.000 N 
ATOM      6  C   UNL     1       1.140  13.004  19.976  0.00  0.00    +0.000 A 
ATOM      7  C   UNL     1       1.782  12.489  18.854  0.00  0.00    +0.000 A 
ATOM      8  C   UNL     1       2.613  13.292  18.082  0.00  0.00    +0.000 A 
ATOM      9  C   UNL     1       2.750  14.625  18.421  0.00  0.00    +0.000 A 
ATOM     10  C   UNL     1       2.037  15.088  19.513  0.00  0.00    +0.000 A 
ATOM     11  N   UNL     1       1.244  14.313  20.290  0.00  0.00    +0.000 NA
ATOM     12  N   UNL     1       1.085  10.047  20.252  0.00  0.00    +0.000 NA
ATOM     13  H   UNL     1       0.030  12.812  21.605  0.00  0.00    +0.000 HD
ENDROOT
BRANCH   1  21
ATOM     14  C   UNL     1       2.010   3.159  19.477  0.00  0.00    +0.000 C 
ATOM     15  O   UNL     1       1.203   3.248  20.399  0.00  0.00    +0.000 OA
ATOM     16  N   UNL     1       2.591   4.205  18.794  0.00  0.00    +0.000 N 
ATOM     17  C   UNL     1       2.372   5.528  19.072  0.00  0.00    +0.000 A 
ATOM     18  N   UNL     1       2.664   6.478  18.216  0.00  0.00    +0.000 NA
ATOM     19  C   UNL     1       2.234   7.704  18.722  0.00  0.00    +0.000 A 
ATOM     20  C   UNL     1       2.394   8.892  17.847  0.00  0.00    +0.000 C 
ATOM     21  C   UNL     1       1.681   7.640  19.994  0.00  0.00    +0.000 A 
ATOM     22  S   UNL     1       1.773   6.045  20.578  0.00  0.00    +0.000 S 
ATOM     23  H   UNL     1       3.040   4.041  17.904  0.00  0.00    +0.000 HD
BRANCH  14  25
ATOM     24  C   UNL     1       3.574   1.961  17.943  0.00  0.00    +0.000 C 
ATOM     25  C   UNL     1       2.461   1.805  18.970  0.00  0.00    +0.000 C 
ENDBRANCH  14  25
ENDBRANCH   1  21
TORSDOF 2
ENDMDL
