MODEL 1
REMARK VINA RESULT:      -6.0      0.000      0.000
REMARK  Name = 
REMARK  6 active torsions:
REMARK  status: ('A' for Active; 'I' for Inactive)
REMARK    1  A    between atoms: CD1_1  and  CG_2
REMARK    2  A    between atoms: CG_2  and  CD2_3
REMARK    3  A    between atoms: CG_2  and  CB_4
REMARK    4  A    between atoms: CB_4  and  CA_5
REMARK    5  A    between atoms: CA_9  and  CB_10
REMARK    6  A    between atoms: CB_10  and  OG_11
REMARK                            x       y       z     vdW  Elec       q    Type
REMARK                         _______ _______ _______ _____ _____    ______ ____
ROOT
ATOM      1  CA  LEU A   1       4.799   4.589  18.491  0.00  0.00    +0.000 C 
ATOM      2  N   LEU A   1       5.352   3.512  19.313  0.00  0.00    +0.000 N 
ATOM      3  C   SER A   2       4.553   2.573  19.924  0.00  0.00    +0.000 C 
ATOM      4  O   SER A   2       4.997   1.460  20.196  0.00  0.00    +0.000 OA
ATOM      5  CA  SER A   2       3.093   2.984  20.179  0.00  0.00    +0.000 C 
ATOM      6  N   SER A   2       2.911   4.432  20.090  0.00  0.00    +0.000 N 
ATOM      7  C   LEU A   1       3.601   5.236  19.219  0.00  0.00    +0.000 C 
ATOM      8  O   LEU A   1       3.206   6.374  18.993  0.00  0.00    +0.000 OA
ATOM      9  H   LEU A   1       6.298   3.200  19.133  0.00  0.00    +0.000 HD
ATOM     10  H   SER A   2       2.103   4.852  20.534  0.00  0.00    +0.000 HD
ENDROOT
BRANCH   1  11
ATOM     11  CB  LEU A   1       4.456   4.081  17.080  0.00  0.00    +0.000 C 
BRANCH  11  13
ATOM     12  CD1 LEU A   1       5.143   6.274  15.989  0.00  0.00    +0.000 C 
ATOM     13  CG  LEU A   1       5.241   4.751  15.934  0.00  0.00    +0.000 C 
ATOM     14  CD2 LEU A   1       6.710   4.322  15.964  0.00  0.00    +0.000 C 
ENDBRANCH  11  13
ENDBRANCH   1  11
BRANCH   5  15
ATOM     15  CB  SER A   2       2.127   2.212  19.279  0.00  0.00    +0.000 C 
BRANCH  15  16
ATOM     16  OG  SER A   2       2.844   1.386  18.362  0.00  0.00    +0.000 OA
ATOM     17  H   SER A   2       3.745   1.277  18.719  0.00  0.00    +0.000 HD
ENDBRANCH  15  16
ENDBRANCH   5  15
TORSDOF 4
ENDMDL
MODEL 2
REMARK VINA RESULT:      -6.0      2.856      4.856
REMARK  Name = 
REMARK  6 active torsions:
REMARK  status: ('A' for Active; 'I' for Inactive)
REMARK    1  A    between atoms: CD1_1  and  CG_2
REMARK    2  A    between atoms: CG_2  and  CD2_3
REMARK    3  A    between atoms: CG_2  and  CB_4
REMARK    4  A    between atoms: CB_4  and  CA_5
REMARK    5  A    between atoms: CA_9  and  CB_10
REMARK    6  A    between atoms: CB_10  and  OG_11
REMARK                            x       y       z     vdW  Elec       q    Type
REMARK                         _______ _______ _______ _____ _____    ______ ____
ROOT
ATOM      1  CA  LEU A   1       5.254   3.867  17.094  0.00  0.00    +0.000 C 
ATOM      2  N   LEU A   1       5.896   3.985  18.405  0.00  0.00    +0.000 N 
ATOM      3  C   SER A   2       6.730   5.033  18.720  0.00  0.00    +0.000 C 
ATOM      4  O   SER A   2       6.878   5.380  19.889  0.00  0.00    +0.000 OA
ATOM      5  CA  SER A   2       7.395   5.753  17.535  0.00  0.00    +0.000 C 
ATOM      6  N   SER A   2       7.339   4.955  16.311  0.00  0.00    +0.000 N 
ATOM      7  C   LEU A   1       6.290   4.135  15.982  0.00  0.00    +0.000 C 
ATOM      8  O   LEU A   1       6.172   3.724  14.834  0.00  0.00    +0.000 OA
ATOM      9  H   LEU A   1       5.452   3.551  19.205  0.00  0.00    +0.000 HD
ATOM     10  H   SER A   2       7.993   5.157  15.565  0.00  0.00    +0.000 HD
ENDROOT
BRANCH   1  11
ATOM     11  CB  LEU A   1       4.014   4.773  17.008  0.00  0.00    +0.000 C 
BRANCH  11  13
ATOM     12  CD1 LEU A   1       2.991   6.022  18.973  0.00  0.00    +0.000 C 
ATOM     13  CG  LEU A   1       3.061   4.697  18.217  0.00  0.00    +0.000 C 
ATOM     14  CD2 LEU A   1       1.658   4.278  17.772  0.00  0.00    +0.000 C 
ENDBRANCH  11  13
ENDBRANCH   1  11
BRANCH   5  15
ATOM     15  CB  SER A   2       6.830   7.162  17.346  0.00  0.00    +0.000 C 
BRANCH  15  16
ATOM     16  OG  SER A   2       7.886   8.114  17.209  0.00  0.00    +0.000 OA
ATOM     17  H   SER A   2       7.475   8.998  17.208  0.00  0.00    +0.000 HD
ENDBRANCH  15  16
ENDBRANCH   5  15
TORSDOF 4
ENDMDL
MODEL 3
REMARK VINA RESULT:      -5.9      3.034      4.432
REMARK  Name = 
REMARK  6 active torsions:
REMARK  status: ('A' for Active; 'I' for Inactive)
REMARK    1  A    between atoms: CD1_1  and  CG_2
REMARK    2  A    between atoms: CG_2  and  CD2_3
REMARK    3  A    between atoms: CG_2  and  CB_4
REMARK    4  A    between atoms: CB_4  and  CA_5
REMARK    5  A    between atoms: CA_9  and  CB_10
REMARK    6  A    between atoms: CB_10  and  OG_11
REMARK                            x       y       z     vdW  Elec       q    Type
REMARK                         _______ _______ _______ _____ _____    ______ ____
ROOT
ATOM      1  CA  LEU A   1       5.251   4.680  16.615  0.00  0.00    +0.000 C 
ATOM      2  N   LEU A   1       6.634   4.203  16.562  0.00  0.00    +0.000 N 
ATOM      3  C   SER A   2       7.586   4.613  17.466  0.00  0.00    +0.000 C 
ATOM      4  O   SER A   2       8.557   3.903  17.714  0.00  0.00    +0.000 OA
ATOM      5  CA  SER A   2       7.325   5.959  18.165  0.00  0.00    +0.000 C 
ATOM      6  N   SER A   2       6.317   6.752  17.463  0.00  0.00    +0.000 N 
ATOM      7  C   LEU A   1       5.237   6.211  16.813  0.00  0.00    +0.000 C 
ATOM      8  O   LEU A   1       4.293   6.926  16.497  0.00  0.00    +0.000 OA
ATOM      9  H   LEU A   1       6.821   3.301  16.141  0.00  0.00    +0.000 HD
ATOM     10  H   SER A   2       6.282   7.751  17.623  0.00  0.00    +0.000 HD
ENDROOT
BRANCH   1  11
ATOM     11  CB  LEU A   1       4.449   3.917  17.683  0.00  0.00    +0.000 C 
BRANCH  11  13
ATOM     12  CD1 LEU A   1       2.637   2.133  17.761  0.00  0.00    +0.000 C 
ATOM     13  CG  LEU A   1       3.014   3.530  17.273  0.00  0.00    +0.000 C 
ATOM     14  CD2 LEU A   1       2.007   4.554  17.804  0.00  0.00    +0.000 C 
ENDBRANCH  11  13
ENDBRANCH   1  11
BRANCH   5  15
ATOM     15  CB  SER A   2       6.995   5.766  19.647  0.00  0.00    +0.000 C 
BRANCH  15  16
ATOM     16  OG  SER A   2       8.161   5.384  20.377  0.00  0.00    +0.000 OA
ATOM     17  H   SER A   2       8.116   5.830  21.243  0.00  0.00    +0.000 HD
ENDBRANCH  15  16
ENDBRANCH   5  15
TORSDOF 4
ENDMDL
MODEL 4
REMARK VINA RESULT:      -5.9      2.840      4.885
REMARK  Name = 
REMARK  6 active torsions:
REMARK  status: ('A' for Active; 'I' for Inactive)
REMARK    1  A    between atoms: CD1_1  and  CG_2
REMARK    2  A    between atoms: CG_2  and  CD2_3
REMARK    3  A    between atoms: CG_2  and  CB_4
REMARK    4  A    between atoms: CB_4  and  CA_5
REMARK    5  A    between atoms: CA_9  and  CB_10
REMARK    6  A    between atoms: CB_10  and  OG_11
REMARK                            x       y       z     vdW  Elec       q    Type
REMARK                         _______ _______ _______ _____ _____    ______ ____
ROOT
ATOM      1  CA  LEU A   1       5.171   3.897  17.247  0.00  0.00    +0.000 C 
ATOM      2  N   LEU A   1       5.879   4.014  18.523  0.00  0.00    +0.000 N 
ATOM      3  C   SER A   2       6.752   5.045  18.785  0.00  0.00    +0.000 C 
ATOM      4  O   SER A   2       6.966   5.402  19.940  0.00  0.00    +0.000 OA
ATOM      5  CA  SER A   2       7.375   5.736  17.559  0.00  0.00    +0.000 C 
ATOM      6  N   SER A   2       7.240   4.926  16.349  0.00  0.00    +0.000 N 
ATOM      7  C   LEU A   1       6.157   4.128  16.083  0.00  0.00    +0.000 C 
ATOM      8  O   LEU A   1       5.973   3.707  14.946  0.00  0.00    +0.000 OA
ATOM      9  H   LEU A   1       5.464   3.601  19.349  0.00  0.00    +0.000 HD
ATOM     10  H   SER A   2       7.861   5.103  15.570  0.00  0.00    +0.000 HD
ENDROOT
BRANCH   1  11
ATOM     11  CB  LEU A   1       3.950   4.832  17.210  0.00  0.00    +0.000 C 
BRANCH  11  13
ATOM     12  CD1 LEU A   1       2.700   2.644  17.554  0.00  0.00    +0.000 C 
ATOM     13  CG  LEU A   1       2.604   4.168  17.563  0.00  0.00    +0.000 C 
ATOM     14  CD2 LEU A   1       2.107   4.649  18.929  0.00  0.00    +0.000 C 
ENDBRANCH  11  13
ENDBRANCH   1  11
BRANCH   5  15
ATOM     15  CB  SER A   2       6.835   7.156  17.381  0.00  0.00    +0.000 C 
BRANCH  15  16
ATOM     16  OG  SER A   2       7.904   8.078  17.163  0.00  0.00    +0.000 OA
ATOM     17  H   SER A   2       7.736   8.513  16.307  0.00  0.00    +0.000 HD
ENDBRANCH  15  16
ENDBRANCH   5  15
TORSDOF 4
ENDMDL
MODEL 5
REMARK VINA RESULT:      -5.9      2.957      4.023
REMARK  Name = 
REMARK  6 active torsions:
REMARK  status: ('A' for Active; 'I' for Inactive)
REMARK    1  A    between atoms: CD1_1  and  CG_2
REMARK    2  A    between atoms: CG_2  and  CD2_3
REMARK    3  A    between atoms: CG_2  and  CB_4
REMARK    4  A    between atoms: CB_4  and  CA_5
REMARK    5  A    between atoms: CA_9  and  CB_10
REMARK    6  A    between atoms: CB_10  and  OG_11
REMARK                            x       y       z     vdW  Elec       q    Type
REMARK                         _______ _______ _______ _____ _____    ______ ____
ROOT
ATOM      1  CA  LEU A   1       6.577   5.269  15.053  0.00  0.00    +0.000 C 
ATOM      2  N   LEU A   1       7.634   4.977  16.023  0.00  0.00    +0.000 N 
ATOM      3  C   SER A   2       7.360   4.694  17.342  0.00  0.00    +0.000 C 
ATOM      4  O   SER A   2       8.140   4.019  18.009  0.00  0.00    +0.000 OA
ATOM      5  CA  SER A   2       6.021   5.220  17.886  0.00  0.00    +0.000 C 
ATOM      6  N   SER A   2       5.455   6.260  17.029  0.00  0.00    +0.000 N 
ATOM      7  C   LEU A   1       5.576   6.273  15.663  0.00  0.00    +0.000 C 
ATOM      8  O   LEU A   1       4.851   6.998  14.991  0.00  0.00    +0.000 OA
ATOM      9  H   LEU A   1       8.509   4.592  15.688  0.00  0.00    +0.000 HD
ATOM     10  H   SER A   2       4.768   6.894  17.418  0.00  0.00    +0.000 HD
ENDROOT
BRANCH   1  11
ATOM     11  CB  LEU A   1       5.918   3.972  14.554  0.00  0.00    +0.000 C 
BRANCH  11  13
ATOM     12  CD1 LEU A   1       4.990   3.478  12.238  0.00  0.00    +0.000 C 
ATOM     13  CG  LEU A   1       6.247   3.587  13.098  0.00  0.00    +0.000 C 
ATOM     14  CD2 LEU A   1       7.215   4.599  12.479  0.00  0.00    +0.000 C 
ENDBRANCH  11  13
ENDBRANCH   1  11
BRANCH   5  15
ATOM     15  CB  SER A   2       5.038   4.079  18.156  0.00  0.00    +0.000 C 
BRANCH  15  16
ATOM     16  OG  SER A   2       5.468   3.297  19.271  0.00  0.00    +0.000 OA
ATOM     17  H   SER A   2       6.338   2.923  19.040  0.00  0.00    +0.000 HD
ENDBRANCH  15  16
ENDBRANCH   5  15
TORSDOF 4
ENDMDL
MODEL 6
REMARK VINA RESULT:      -5.9      2.336      4.636
REMARK  Name = 
REMARK  6 active torsions:
REMARK  status: ('A' for Active; 'I' for Inactive)
REMARK    1  A    between atoms: CD1_1  and  CG_2
REMARK    2  A    between atoms: CG_2  and  CD2_3
REMARK    3  A    between atoms: CG_2  and  CB_4
REMARK    4  A    between atoms: CB_4  and  CA_5
REMARK    5  A    between atoms: CA_9  and  CB_10
REMARK    6  A    between atoms: CB_10  and  OG_11
REMARK                            x       y       z     vdW  Elec       q    Type
REMARK                         _______ _______ _______ _____ _____    ______ ____
ROOT
ATOM      1  CA  LEU A   1       3.970   4.907  18.350  0.00  0.00    +0.000 C 
ATOM      2  N   LEU A   1       4.472   6.070  17.617  0.00  0.00    +0.000 N 
ATOM      3  C   SER A   2       5.426   5.959  16.632  0.00  0.00    +0.000 C 
ATOM      4  O   SER A   2       5.499   6.799  15.738  0.00  0.00    +0.000 OA
ATOM      5  CA  SER A   2       6.330   4.716  16.698  0.00  0.00    +0.000 C 
ATOM      6  N   SER A   2       6.280   4.074  18.010  0.00  0.00    +0.000 N 
ATOM      7  C   LEU A   1       5.154   4.020  18.791  0.00  0.00    +0.000 C 
ATOM      8  O   LEU A   1       5.099   3.235  19.731  0.00  0.00    +0.000 OA
ATOM      9  H   LEU A   1       3.876   6.884  17.529  0.00  0.00    +0.000 HD
ATOM     10  H   SER A   2       7.038   3.461  18.284  0.00  0.00    +0.000 HD
ENDROOT
BRANCH   1  11
ATOM     11  CB  LEU A   1       2.914   4.152  17.524  0.00  0.00    +0.000 C 
BRANCH  11  13
ATOM     12  CD1 LEU A   1       1.552   2.250  18.523  0.00  0.00    +0.000 C 
ATOM     13  CG  LEU A   1       1.638   3.758  18.295  0.00  0.00    +0.000 C 
ATOM     14  CD2 LEU A   1       1.570   4.492  19.637  0.00  0.00    +0.000 C 
ENDBRANCH  11  13
ENDBRANCH   1  11
BRANCH   5  15
ATOM     15  CB  SER A   2       6.030   3.744  15.555  0.00  0.00    +0.000 C 
BRANCH  15  16
ATOM     16  OG  SER A   2       5.286   4.394  14.523  0.00  0.00    +0.000 OA
ATOM     17  H   SER A   2       4.560   3.793  14.273  0.00  0.00    +0.000 HD
ENDBRANCH  15  16
ENDBRANCH   5  15
TORSDOF 4
ENDMDL
MODEL 7
REMARK VINA RESULT:      -5.9      2.107      4.583
REMARK  Name = 
REMARK  6 active torsions:
REMARK  status: ('A' for Active; 'I' for Inactive)
REMARK    1  A    between atoms: CD1_1  and  CG_2
REMARK    2  A    between atoms: CG_2  and  CD2_3
REMARK    3  A    between atoms: CG_2  and  CB_4
REMARK    4  A    between atoms: CB_4  and  CA_5
REMARK    5  A    between atoms: CA_9  and  CB_10
REMARK    6  A    between atoms: CB_10  and  OG_11
REMARK                            x       y       z     vdW  Elec       q    Type
REMARK                         _______ _______ _______ _____ _____    ______ ____
ROOT
ATOM      1  CA  LEU A   1       4.034   3.395  19.158  0.00  0.00    +0.000 C 
ATOM      2  N   LEU A   1       5.489   3.553  19.168  0.00  0.00    +0.000 N 
ATOM      3  C   SER A   2       6.141   4.388  18.289  0.00  0.00    +0.000 C 
ATOM      4  O   SER A   2       7.233   4.868  18.581  0.00  0.00    +0.000 OA
ATOM      5  CA  SER A   2       5.399   4.712  16.981  0.00  0.00    +0.000 C 
ATOM      6  N   SER A   2       4.311   3.770  16.724  0.00  0.00    +0.000 N 
ATOM      7  C   LEU A   1       3.541   3.205  17.708  0.00  0.00    +0.000 C 
ATOM      8  O   LEU A   1       2.482   2.660  17.419  0.00  0.00    +0.000 OA
ATOM      9  H   LEU A   1       5.991   3.383  20.030  0.00  0.00    +0.000 HD
ATOM     10  H   SER A   2       3.961   3.674  15.778  0.00  0.00    +0.000 HD
ENDROOT
BRANCH   1  11
ATOM     11  CB  LEU A   1       3.351   4.564  19.889  0.00  0.00    +0.000 C 
BRANCH  11  13
ATOM     12  CD1 LEU A   1       0.870   4.118  20.231  0.00  0.00    +0.000 C 
ATOM     13  CG  LEU A   1       2.248   4.158  20.887  0.00  0.00    +0.000 C 
ATOM     14  CD2 LEU A   1       2.564   2.799  21.517  0.00  0.00    +0.000 C 
ENDBRANCH  11  13
ENDBRANCH   1  11
BRANCH   5  15
ATOM     15  CB  SER A   2       4.936   6.170  16.946  0.00  0.00    +0.000 C 
BRANCH  15  16
ATOM     16  OG  SER A   2       6.040   7.044  16.709  0.00  0.00    +0.000 OA
ATOM     17  H   SER A   2       6.341   6.884  15.796  0.00  0.00    +0.000 HD
ENDBRANCH  15  16
ENDBRANCH   5  15
TORSDOF 4
ENDMDL
MODEL 8
REMARK VINA RESULT:      -5.8      2.221      3.245
REMARK  Name = 
REMARK  6 active torsions:
REMARK  status: ('A' for Active; 'I' for Inactive)
REMARK    1  A    between atoms: CD1_1  and  CG_2
REMARK    2  A    between atoms: CG_2  and  CD2_3
REMARK    3  A    between atoms: CG_2  and  CB_4
REMARK    4  A    between atoms: CB_4  and  CA_5
REMARK    5  A    between atoms: CA_9  and  CB_10
REMARK    6  A    between atoms: CB_10  and  OG_11
REMARK                            x       y       z     vdW  Elec       q    Type
REMARK                         _______ _______ _______ _____ _____    ______ ____
ROOT
ATOM      1  CA  LEU A   1       3.275   4.166  18.016  0.00  0.00    +0.000 C 
ATOM      2  N   LEU A   1       2.185   3.247  17.681  0.00  0.00    +0.000 N 
ATOM      3  C   SER A   2       1.469   2.578  18.647  0.00  0.00    +0.000 C 
ATOM      4  O   SER A   2       0.320   2.206  18.425  0.00  0.00    +0.000 OA
ATOM      5  CA  SER A   2       2.170   2.386  20.003  0.00  0.00    +0.000 C 
ATOM      6  N   SER A   2       3.614   2.597  19.906  0.00  0.00    +0.000 N 
ATOM      7  C   LEU A   1       4.196   3.517  19.072  0.00  0.00    +0.000 C 
ATOM      8  O   LEU A   1       5.365   3.842  19.241  0.00  0.00    +0.000 OA
ATOM      9  H   LEU A   1       1.686   3.382  16.811  0.00  0.00    +0.000 HD
ATOM     10  H   SER A   2       4.215   2.205  20.620  0.00  0.00    +0.000 HD
ENDROOT
BRANCH   1  11
ATOM     11  CB  LEU A   1       2.724   5.537  18.443  0.00  0.00    +0.000 C 
BRANCH  11  13
ATOM     12  CD1 LEU A   1       4.500   6.463  16.874  0.00  0.00    +0.000 C 
ATOM     13  CG  LEU A   1       3.620   6.742  18.091  0.00  0.00    +0.000 C 
ATOM     14  CD2 LEU A   1       2.770   7.990  17.843  0.00  0.00    +0.000 C 
ENDBRANCH  11  13
ENDBRANCH   1  11
BRANCH   5  15
ATOM     15  CB  SER A   2       1.522   3.240  21.095  0.00  0.00    +0.000 C 
BRANCH  15  16
ATOM     16  OG  SER A   2       1.429   2.508  22.318  0.00  0.00    +0.000 OA
ATOM     17  H   SER A   2       0.503   2.567  22.617  0.00  0.00    +0.000 HD
ENDBRANCH  15  16
ENDBRANCH   5  15
TORSDOF 4
ENDMDL
MODEL 9
REMARK VINA RESULT:      -5.8      1.809      3.106
REMARK  Name = 
REMARK  6 active torsions:
REMARK  status: ('A' for Active; 'I' for Inactive)
REMARK    1  A    between atoms: CD1_1  and  CG_2
REMARK    2  A    between atoms: CG_2  and  CD2_3
REMARK    3  A    between atoms: CG_2  and  CB_4
REMARK    4  A    between atoms: CB_4  and  CA_5
REMARK    5  A    between atoms: CA_9  and  CB_10
REMARK    6  A    between atoms: CB_10  and  OG_11
REMARK                            x       y       z     vdW  Elec       q    Type
REMARK                         _______ _______ _______ _____ _____    ______ ____
ROOT
ATOM      1  CA  LEU A   1       3.637   2.413  18.272  0.00  0.00    +0.000 C 
ATOM      2  N   LEU A   1       2.278   1.891  18.117  0.00  0.00    +0.000 N 
ATOM      3  C   SER A   2       1.238   2.308  18.915  0.00  0.00    +0.000 C 
ATOM      4  O   SER A   2       0.080   2.249  18.510  0.00  0.00    +0.000 OA
ATOM      5  CA  SER A   2       1.624   2.890  20.286  0.00  0.00    +0.000 C 
ATOM      6  N   SER A   2       2.991   2.538  20.663  0.00  0.00    +0.000 N 
ATOM      7  C   LEU A   1       4.023   2.419  19.767  0.00  0.00    +0.000 C 
ATOM      8  O   LEU A   1       5.182   2.405  20.167  0.00  0.00    +0.000 OA
ATOM      9  H   LEU A   1       1.993   1.541  17.211  0.00  0.00    +0.000 HD
ATOM     10  H   SER A   2       3.256   2.580  21.639  0.00  0.00    +0.000 HD
ENDROOT
BRANCH   1  11
ATOM     11  CB  LEU A   1       3.777   3.788  17.598  0.00  0.00    +0.000 C 
BRANCH  11  13
ATOM     12  CD1 LEU A   1       5.295   4.518  15.691  0.00  0.00    +0.000 C 
ATOM     13  CG  LEU A   1       5.211   4.168  17.175  0.00  0.00    +0.000 C 
ATOM     14  CD2 LEU A   1       5.728   5.338  18.016  0.00  0.00    +0.000 C 
ENDBRANCH  11  13
ENDBRANCH   1  11
BRANCH   5  15
ATOM     15  CB  SER A   2       1.365   4.397  20.348  0.00  0.00    +0.000 C 
BRANCH  15  16
ATOM     16  OG  SER A   2       2.333   5.041  21.177  0.00  0.00    +0.000 OA
ATOM     17  H   SER A   2       2.782   4.343  21.689  0.00  0.00    +0.000 HD
ENDBRANCH  15  16
ENDBRANCH   5  15
TORSDOF 4
ENDMDL
