MODEL 1
REMARK VINA RESULT:      -6.6      0.000      0.000
REMARK  Name = 
REMARK  4 active torsions:
REMARK  status: ('A' for Active; 'I' for Inactive)
REMARK    1  A    between atoms: N_2  and  C_4
REMARK    2  A    between atoms: C_7  and  N_8
REMARK    3  A    between atoms: N_8  and  C_9
REMARK    4  A    between atoms: C_9  and  C_10
REMARK                            x       y       z     vdW  Elec       q    Type
REMARK                         _______ _______ _______ _____ _____    ______ ____
ROOT
ATOM      1  N   UNL     1       4.401   3.926  16.157  0.00  0.00    +0.000 N 
ATOM      2  H   UNL     1       3.998   4.684  15.617  0.00  0.00    +0.000 HD
ENDROOT
BRANCH   1   6
ATOM      3  C   UNL     1       2.645   3.074  19.884  0.00  0.00    +0.000 A 
ATOM      4  C   UNL     1       3.172   2.045  19.097  0.00  0.00    +0.000 A 
ATOM      5  C   UNL     1       3.741   2.353  17.855  0.00  0.00    +0.000 A 
ATOM      6  C   UNL     1       3.772   3.669  17.370  0.00  0.00    +0.000 A 
ATOM      7  C   UNL     1       3.262   4.684  18.192  0.00  0.00    +0.000 A 
ATOM      8  C   UNL     1       2.693   4.397  19.438  0.00  0.00    +0.000 A 
BRANCH   3  10
ATOM      9  O   UNL     1       2.827   2.440  22.107  0.00  0.00    +0.000 OA
ATOM     10  N   UNL     1       2.059   2.766  21.193  0.00  0.00    +0.000 N 
ATOM     11  O   UNL     1       0.827   2.848  21.306  0.00  0.00    +0.000 OA
ENDBRANCH   3  10
ENDBRANCH   1   6
BRANCH   1  12
ATOM     12  C   UNL     1       5.853   3.847  16.026  0.00  0.00    +0.000 C 
BRANCH  12  13
ATOM     13  C   UNL     1       6.538   4.983  16.755  0.00  0.00    +0.000 A 
ATOM     14  C   UNL     1       6.339   6.303  16.316  0.00  0.00    +0.000 A 
ATOM     15  C   UNL     1       6.965   7.371  16.964  0.00  0.00    +0.000 A 
ATOM     16  C   UNL     1       7.783   7.130  18.066  0.00  0.00    +0.000 A 
ATOM     17 CL   UNL     1       8.585   8.441  18.840  0.00  0.00    +0.000 Cl
ATOM     18  C   UNL     1       7.959   5.835  18.541  0.00  0.00    +0.000 A 
ATOM     19  C   UNL     1       7.331   4.768  17.895  0.00  0.00    +0.000 A 
ENDBRANCH  12  13
ENDBRANCH   1  12
TORSDOF 4
ENDMDL
MODEL 2
REMARK VINA RESULT:      -6.6      4.596      6.270
REMARK  Name = 
REMARK  4 active torsions:
REMARK  status: ('A' for Active; 'I' for Inactive)
REMARK    1  A    between atoms: N_2  and  C_4
REMARK    2  A    between atoms: C_7  and  N_8
REMARK    3  A    between atoms: N_8  and  C_9
REMARK    4  A    between atoms: C_9  and  C_10
REMARK                            x       y       z     vdW  Elec       q    Type
REMARK                         _______ _______ _______ _____ _____    ______ ____
ROOT
ATOM      1  N   UNL     1       4.369   5.485  19.494  0.00  0.00    +0.000 N 
ATOM      2  H   UNL     1       4.853   6.150  20.089  0.00  0.00    +0.000 HD
ENDROOT
BRANCH   1   6
ATOM      3  C   UNL     1       6.216   4.946  15.752  0.00  0.00    +0.000 A 
ATOM      4  C   UNL     1       6.629   5.974  16.605  0.00  0.00    +0.000 A 
ATOM      5  C   UNL     1       5.991   6.140  17.840  0.00  0.00    +0.000 A 
ATOM      6  C   UNL     1       4.927   5.313  18.231  0.00  0.00    +0.000 A 
ATOM      7  C   UNL     1       4.552   4.273  17.369  0.00  0.00    +0.000 A 
ATOM      8  C   UNL     1       5.181   4.088  16.133  0.00  0.00    +0.000 A 
BRANCH   3  10
ATOM      9  O   UNL     1       7.870   5.461  14.211  0.00  0.00    +0.000 OA
ATOM     10  N   UNL     1       6.886   4.753  14.461  0.00  0.00    +0.000 N 
ATOM     11  O   UNL     1       6.425   3.894  13.696  0.00  0.00    +0.000 OA
ENDBRANCH   3  10
ENDBRANCH   1   6
BRANCH   1  12
ATOM     12  C   UNL     1       2.922   5.500  19.687  0.00  0.00    +0.000 C 
BRANCH  12  13
ATOM     13  C   UNL     1       2.349   6.883  19.466  0.00  0.00    +0.000 A 
ATOM     14  C   UNL     1       2.411   7.459  18.186  0.00  0.00    +0.000 A 
ATOM     15  C   UNL     1       1.898   8.738  17.954  0.00  0.00    +0.000 A 
ATOM     16  C   UNL     1       1.305   9.446  18.996  0.00  0.00    +0.000 A 
ATOM     17 CL   UNL     1       0.708  11.036  18.721  0.00  0.00    +0.000 Cl
ATOM     18  C   UNL     1       1.197   8.877  20.261  0.00  0.00    +0.000 A 
ATOM     19  C   UNL     1       1.707   7.598  20.491  0.00  0.00    +0.000 A 
ENDBRANCH  12  13
ENDBRANCH   1  12
TORSDOF 4
ENDMDL
MODEL 3
REMARK VINA RESULT:      -6.6      4.636      6.347
REMARK  Name = 
REMARK  4 active torsions:
REMARK  status: ('A' for Active; 'I' for Inactive)
REMARK    1  A    between atoms: N_2  and  C_4
REMARK    2  A    between atoms: C_7  and  N_8
REMARK    3  A    between atoms: N_8  and  C_9
REMARK    4  A    between atoms: C_9  and  C_10
REMARK                            x       y       z     vdW  Elec       q    Type
REMARK                         _______ _______ _______ _____ _____    ______ ____
ROOT
ATOM      1  N   UNL     1       4.278   5.630  19.564  0.00  0.00    +0.000 N 
ATOM      2  H   UNL     1       4.757   6.325  20.128  0.00  0.00    +0.000 HD
ENDROOT
BRANCH   1   6
ATOM      3  C   UNL     1       6.137   4.935  15.854  0.00  0.00    +0.000 A 
ATOM      4  C   UNL     1       6.469   6.061  16.614  0.00  0.00    +0.000 A 
ATOM      5  C   UNL     1       5.829   6.276  17.840  0.00  0.00    +0.000 A 
ATOM      6  C   UNL     1       4.839   5.400  18.313  0.00  0.00    +0.000 A 
ATOM      7  C   UNL     1       4.546   4.265  17.544  0.00  0.00    +0.000 A 
ATOM      8  C   UNL     1       5.179   4.030  16.318  0.00  0.00    +0.000 A 
BRANCH   3  10
ATOM      9  O   UNL     1       7.780   5.408  14.287  0.00  0.00    +0.000 OA
ATOM     10  N   UNL     1       6.812   4.692  14.575  0.00  0.00    +0.000 N 
ATOM     11  O   UNL     1       6.372   3.784  13.855  0.00  0.00    +0.000 OA
ENDBRANCH   3  10
ENDBRANCH   1   6
BRANCH   1  12
ATOM     12  C   UNL     1       2.830   5.648  19.753  0.00  0.00    +0.000 C 
BRANCH  12  13
ATOM     13  C   UNL     1       2.253   7.019  19.474  0.00  0.00    +0.000 A 
ATOM     14  C   UNL     1       1.661   7.743  20.522  0.00  0.00    +0.000 A 
ATOM     15  C   UNL     1       1.110   9.007  20.292  0.00  0.00    +0.000 A 
ATOM     16  C   UNL     1       1.162   9.564  19.017  0.00  0.00    +0.000 A 
ATOM     17 CL   UNL     1       0.450  11.104  18.726  0.00  0.00    +0.000 Cl
ATOM     18  C   UNL     1       1.780   8.881  17.975  0.00  0.00    +0.000 A 
ATOM     19  C   UNL     1       2.332   7.619  18.206  0.00  0.00    +0.000 A 
ENDBRANCH  12  13
ENDBRANCH   1  12
TORSDOF 4
ENDMDL
MODEL 4
REMARK VINA RESULT:      -6.5      5.103      6.667
REMARK  Name = 
REMARK  4 active torsions:
REMARK  status: ('A' for Active; 'I' for Inactive)
REMARK    1  A    between atoms: N_2  and  C_4
REMARK    2  A    between atoms: C_7  and  N_8
REMARK    3  A    between atoms: N_8  and  C_9
REMARK    4  A    between atoms: C_9  and  C_10
REMARK                            x       y       z     vdW  Elec       q    Type
REMARK                         _______ _______ _______ _____ _____    ______ ____
ROOT
ATOM      1  N   UNL     1       2.339   7.011  18.210  0.00  0.00    +0.000 N 
ATOM      2  H   UNL     1       1.721   6.496  18.829  0.00  0.00    +0.000 HD
ENDROOT
BRANCH   1   6
ATOM      3  C   UNL     1       6.232   5.422  18.067  0.00  0.00    +0.000 A 
ATOM      4  C   UNL     1       5.375   5.105  19.126  0.00  0.00    +0.000 A 
ATOM      5  C   UNL     1       4.088   5.655  19.157  0.00  0.00    +0.000 A 
ATOM      6  C   UNL     1       3.647   6.541  18.161  0.00  0.00    +0.000 A 
ATOM      7  C   UNL     1       4.516   6.819  17.098  0.00  0.00    +0.000 A 
ATOM      8  C   UNL     1       5.805   6.275  17.047  0.00  0.00    +0.000 A 
BRANCH   3  10
ATOM      9  O   UNL     1       8.251   4.851  19.056  0.00  0.00    +0.000 OA
ATOM     10  N   UNL     1       7.578   4.840  18.017  0.00  0.00    +0.000 N 
ATOM     11  O   UNL     1       7.963   4.373  16.935  0.00  0.00    +0.000 OA
ENDBRANCH   3  10
ENDBRANCH   1   6
BRANCH   1  12
ATOM     12  C   UNL     1       2.047   8.441  18.181  0.00  0.00    +0.000 C 
BRANCH  12  13
ATOM     13  C   UNL     1       1.328   8.886  19.436  0.00  0.00    +0.000 A 
ATOM     14  C   UNL     1       0.410   9.947  19.365  0.00  0.00    +0.000 A 
ATOM     15  C   UNL     1      -0.262  10.386  20.509  0.00  0.00    +0.000 A 
ATOM     16  C   UNL     1      -0.034   9.757  21.730  0.00  0.00    +0.000 A 
ATOM     17 CL   UNL     1      -0.832  10.321  23.146  0.00  0.00    +0.000 Cl
ATOM     18  C   UNL     1       0.840   8.677  21.813  0.00  0.00    +0.000 A 
ATOM     19  C   UNL     1       1.509   8.239  20.670  0.00  0.00    +0.000 A 
ENDBRANCH  12  13
ENDBRANCH   1  12
TORSDOF 4
ENDMDL
MODEL 5
REMARK VINA RESULT:      -6.5      4.555      6.468
REMARK  Name = 
REMARK  4 active torsions:
REMARK  status: ('A' for Active; 'I' for Inactive)
REMARK    1  A    between atoms: N_2  and  C_4
REMARK    2  A    between atoms: C_7  and  N_8
REMARK    3  A    between atoms: N_8  and  C_9
REMARK    4  A    between atoms: C_9  and  C_10
REMARK                            x       y       z     vdW  Elec       q    Type
REMARK                         _______ _______ _______ _____ _____    ______ ____
ROOT
ATOM      1  N   UNL     1       5.047   3.732  17.908  0.00  0.00    +0.000 N 
ATOM      2  H   UNL     1       5.483   4.091  18.752  0.00  0.00    +0.000 HD
ENDROOT
BRANCH   1   6
ATOM      3  C   UNL     1       7.036   4.803  14.360  0.00  0.00    +0.000 A 
ATOM      4  C   UNL     1       7.621   5.056  15.604  0.00  0.00    +0.000 A 
ATOM      5  C   UNL     1       6.934   4.701  16.771  0.00  0.00    +0.000 A 
ATOM      6  C   UNL     1       5.658   4.118  16.721  0.00  0.00    +0.000 A 
ATOM      7  C   UNL     1       5.108   3.851  15.460  0.00  0.00    +0.000 A 
ATOM      8  C   UNL     1       5.782   4.194  14.282  0.00  0.00    +0.000 A 
BRANCH   3  10
ATOM      9  O   UNL     1       8.688   5.964  13.219  0.00  0.00    +0.000 OA
ATOM     10  N   UNL     1       7.753   5.158  13.130  0.00  0.00    +0.000 N 
ATOM     11  O   UNL     1       7.379   4.631  12.072  0.00  0.00    +0.000 OA
ENDBRANCH   3  10
ENDBRANCH   1   6
BRANCH   1  12
ATOM     12  C   UNL     1       3.594   3.641  18.018  0.00  0.00    +0.000 C 
BRANCH  12  13
ATOM     13  C   UNL     1       3.016   4.842  18.734  0.00  0.00    +0.000 A 
ATOM     14  C   UNL     1       3.138   6.115  18.155  0.00  0.00    +0.000 A 
ATOM     15  C   UNL     1       2.623   7.243  18.798  0.00  0.00    +0.000 A 
ATOM     16  C   UNL     1       1.966   7.106  20.019  0.00  0.00    +0.000 A 
ATOM     17 CL   UNL     1       1.366   8.500  20.830  0.00  0.00    +0.000 Cl
ATOM     18  C   UNL     1       1.798   5.848  20.589  0.00  0.00    +0.000 A 
ATOM     19  C   UNL     1       2.312   4.721  19.945  0.00  0.00    +0.000 A 
ENDBRANCH  12  13
ENDBRANCH   1  12
TORSDOF 4
ENDMDL
MODEL 6
REMARK VINA RESULT:      -6.5      4.544      6.160
REMARK  Name = 
REMARK  4 active torsions:
REMARK  status: ('A' for Active; 'I' for Inactive)
REMARK    1  A    between atoms: N_2  and  C_4
REMARK    2  A    between atoms: C_7  and  N_8
REMARK    3  A    between atoms: N_8  and  C_9
REMARK    4  A    between atoms: C_9  and  C_10
REMARK                            x       y       z     vdW  Elec       q    Type
REMARK                         _______ _______ _______ _____ _____    ______ ____
ROOT
ATOM      1  N   UNL     1       4.352   5.355  19.547  0.00  0.00    +0.000 N 
ATOM      2  H   UNL     1       4.780   6.001  20.203  0.00  0.00    +0.000 HD
ENDROOT
BRANCH   1   6
ATOM      3  C   UNL     1       6.250   4.883  15.822  0.00  0.00    +0.000 A 
ATOM      4  C   UNL     1       5.408   3.884  16.320  0.00  0.00    +0.000 A 
ATOM      5  C   UNL     1       4.797   4.059  17.568  0.00  0.00    +0.000 A 
ATOM      6  C   UNL     1       5.031   5.206  18.343  0.00  0.00    +0.000 A 
ATOM      7  C   UNL     1       5.857   6.203  17.807  0.00  0.00    +0.000 A 
ATOM      8  C   UNL     1       6.473   6.048  16.560  0.00  0.00    +0.000 A 
BRANCH   3  10
ATOM      9  O   UNL     1       6.390   3.893  13.730  0.00  0.00    +0.000 OA
ATOM     10  N   UNL     1       6.885   4.717  14.510  0.00  0.00    +0.000 N 
ATOM     11  O   UNL     1       7.881   5.411  14.260  0.00  0.00    +0.000 OA
ENDBRANCH   3  10
ENDBRANCH   1   6
BRANCH   1  12
ATOM     12  C   UNL     1       2.894   5.382  19.596  0.00  0.00    +0.000 C 
BRANCH  12  13
ATOM     13  C   UNL     1       2.359   6.785  19.409  0.00  0.00    +0.000 A 
ATOM     14  C   UNL     1       2.405   7.376  18.136  0.00  0.00    +0.000 A 
ATOM     15  C   UNL     1       1.927   8.674  17.935  0.00  0.00    +0.000 A 
ATOM     16  C   UNL     1       1.385   9.386  19.002  0.00  0.00    +0.000 A 
ATOM     17 CL   UNL     1       0.832  10.997  18.763  0.00  0.00    +0.000 Cl
ATOM     18  C   UNL     1       1.292   8.803  20.262  0.00  0.00    +0.000 A 
ATOM     19  C   UNL     1       1.768   7.505  20.461  0.00  0.00    +0.000 A 
ENDBRANCH  12  13
ENDBRANCH   1  12
TORSDOF 4
ENDMDL
MODEL 7
REMARK VINA RESULT:      -6.4      4.368      6.082
REMARK  Name = 
REMARK  4 active torsions:
REMARK  status: ('A' for Active; 'I' for Inactive)
REMARK    1  A    between atoms: N_2  and  C_4
REMARK    2  A    between atoms: C_7  and  N_8
REMARK    3  A    between atoms: N_8  and  C_9
REMARK    4  A    between atoms: C_9  and  C_10
REMARK                            x       y       z     vdW  Elec       q    Type
REMARK                         _______ _______ _______ _____ _____    ______ ____
ROOT
ATOM      1  N   UNL     1       4.482   4.497  19.326  0.00  0.00    +0.000 N 
ATOM      2  H   UNL     1       4.918   5.009  20.087  0.00  0.00    +0.000 HD
ENDROOT
BRANCH   1   6
ATOM      3  C   UNL     1       6.422   4.727  15.600  0.00  0.00    +0.000 A 
ATOM      4  C   UNL     1       5.166   4.122  15.710  0.00  0.00    +0.000 A 
ATOM      5  C   UNL     1       4.546   4.047  16.963  0.00  0.00    +0.000 A 
ATOM      6  C   UNL     1       5.169   4.544  18.118  0.00  0.00    +0.000 A 
ATOM      7  C   UNL     1       6.414   5.170  17.975  0.00  0.00    +0.000 A 
ATOM      8  C   UNL     1       7.048   5.258  16.730  0.00  0.00    +0.000 A 
BRANCH   3  10
ATOM      9  O   UNL     1       8.007   5.629  14.168  0.00  0.00    +0.000 OA
ATOM     10  N   UNL     1       7.075   4.823  14.290  0.00  0.00    +0.000 N 
ATOM     11  O   UNL     1       6.654   4.093  13.382  0.00  0.00    +0.000 OA
ENDBRANCH   3  10
ENDBRANCH   1   6
BRANCH   1  12
ATOM     12  C   UNL     1       3.024   4.548  19.372  0.00  0.00    +0.000 C 
BRANCH  12  13
ATOM     13  C   UNL     1       2.522   5.974  19.446  0.00  0.00    +0.000 A 
ATOM     14  C   UNL     1       2.638   6.805  18.320  0.00  0.00    +0.000 A 
ATOM     15  C   UNL     1       2.191   8.128  18.362  0.00  0.00    +0.000 A 
ATOM     16  C   UNL     1       1.611   8.628  19.525  0.00  0.00    +0.000 A 
ATOM     17 CL   UNL     1       1.097  10.268  19.590  0.00  0.00    +0.000 Cl
ATOM     18  C   UNL     1       1.450   7.808  20.638  0.00  0.00    +0.000 A 
ATOM     19  C   UNL     1       1.894   6.486  20.595  0.00  0.00    +0.000 A 
ENDBRANCH  12  13
ENDBRANCH   1  12
TORSDOF 4
ENDMDL
MODEL 8
REMARK VINA RESULT:      -6.4      5.061      6.761
REMARK  Name = 
REMARK  4 active torsions:
REMARK  status: ('A' for Active; 'I' for Inactive)
REMARK    1  A    between atoms: N_2  and  C_4
REMARK    2  A    between atoms: C_7  and  N_8
REMARK    3  A    between atoms: N_8  and  C_9
REMARK    4  A    between atoms: C_9  and  C_10
REMARK                            x       y       z     vdW  Elec       q    Type
REMARK                         _______ _______ _______ _____ _____    ______ ____
ROOT
ATOM      1  N   UNL     1       2.290   6.846  18.213  0.00  0.00    +0.000 N 
ATOM      2  H   UNL     1       1.752   6.419  18.961  0.00  0.00    +0.000 HD
ENDROOT
BRANCH   1   6
ATOM      3  C   UNL     1       6.103   5.201  17.540  0.00  0.00    +0.000 A 
ATOM      4  C   UNL     1       5.767   6.451  17.012  0.00  0.00    +0.000 A 
ATOM      5  C   UNL     1       4.488   6.973  17.240  0.00  0.00    +0.000 A 
ATOM      6  C   UNL     1       3.524   6.255  17.966  0.00  0.00    +0.000 A 
ATOM      7  C   UNL     1       3.897   5.017  18.507  0.00  0.00    +0.000 A 
ATOM      8  C   UNL     1       5.172   4.481  18.293  0.00  0.00    +0.000 A 
BRANCH   3  10
ATOM      9  O   UNL     1       8.122   4.364  18.315  0.00  0.00    +0.000 OA
ATOM     10  N   UNL     1       7.445   4.651  17.319  0.00  0.00    +0.000 N 
ATOM     11  O   UNL     1       7.822   4.506  16.147  0.00  0.00    +0.000 OA
ENDBRANCH   3  10
ENDBRANCH   1   6
BRANCH   1  12
ATOM     12  C   UNL     1       2.115   8.293  18.146  0.00  0.00    +0.000 C 
BRANCH  12  13
ATOM     13  C   UNL     1       1.394   8.822  19.368  0.00  0.00    +0.000 A 
ATOM     14  C   UNL     1       1.571   8.179  20.604  0.00  0.00    +0.000 A 
ATOM     15  C   UNL     1       0.911   8.638  21.746  0.00  0.00    +0.000 A 
ATOM     16  C   UNL     1       0.081   9.754  21.667  0.00  0.00    +0.000 A 
ATOM     17 CL   UNL     1      -0.762  10.296  23.065  0.00  0.00    +0.000 Cl
ATOM     18  C   UNL     1      -0.074  10.429  20.460  0.00  0.00    +0.000 A 
ATOM     19  C   UNL     1       0.587   9.971  19.319  0.00  0.00    +0.000 A 
ENDBRANCH  12  13
ENDBRANCH   1  12
TORSDOF 4
ENDMDL
MODEL 9
REMARK VINA RESULT:      -6.4      5.326      7.004
REMARK  Name = 
REMARK  4 active torsions:
REMARK  status: ('A' for Active; 'I' for Inactive)
REMARK    1  A    between atoms: N_2  and  C_4
REMARK    2  A    between atoms: C_7  and  N_8
REMARK    3  A    between atoms: N_8  and  C_9
REMARK    4  A    between atoms: C_9  and  C_10
REMARK                            x       y       z     vdW  Elec       q    Type
REMARK                         _______ _______ _______ _____ _____    ______ ____
ROOT
ATOM      1  N   UNL     1       2.598   6.892  19.011  0.00  0.00    +0.000 N 
ATOM      2  H   UNL     1       2.532   6.711  20.008  0.00  0.00    +0.000 HD
ENDROOT
BRANCH   1   6
ATOM      3  C   UNL     1       6.073   5.436  17.138  0.00  0.00    +0.000 A 
ATOM      4  C   UNL     1       5.331   6.466  16.552  0.00  0.00    +0.000 A 
ATOM      5  C   UNL     1       4.172   6.926  17.189  0.00  0.00    +0.000 A 
ATOM      6  C   UNL     1       3.723   6.357  18.391  0.00  0.00    +0.000 A 
ATOM      7  C   UNL     1       4.501   5.345  18.970  0.00  0.00    +0.000 A 
ATOM      8  C   UNL     1       5.665   4.875  18.350  0.00  0.00    +0.000 A 
BRANCH   3  10
ATOM      9  O   UNL     1       7.495   5.290  15.311  0.00  0.00    +0.000 OA
ATOM     10  N   UNL     1       7.297   4.955  16.487  0.00  0.00    +0.000 N 
ATOM     11  O   UNL     1       8.060   4.240  17.152  0.00  0.00    +0.000 OA
ENDBRANCH   3  10
ENDBRANCH   1   6
BRANCH   1  12
ATOM     12  C   UNL     1       2.080   8.204  18.637  0.00  0.00    +0.000 C 
BRANCH  12  13
ATOM     13  C   UNL     1       1.290   8.830  19.767  0.00  0.00    +0.000 A 
ATOM     14  C   UNL     1       0.472   9.941  19.503  0.00  0.00    +0.000 A 
ATOM     15  C   UNL     1      -0.260  10.545  20.528  0.00  0.00    +0.000 A 
ATOM     16  C   UNL     1      -0.194  10.034  21.822  0.00  0.00    +0.000 A 
ATOM     17 CL   UNL     1      -1.066  10.801  23.091  0.00  0.00    +0.000 Cl
ATOM     18  C   UNL     1       0.578   8.909  22.095  0.00  0.00    +0.000 A 
ATOM     19  C   UNL     1       1.308   8.305  21.070  0.00  0.00    +0.000 A 
ENDBRANCH  12  13
ENDBRANCH   1  12
TORSDOF 4
ENDMDL
