MODEL 1
REMARK VINA RESULT:      -9.2      0.000      0.000
REMARK  Name = 
REMARK  10 active torsions:
REMARK  status: ('A' for Active; 'I' for Inactive)
REMARK    1  A    between atoms: C_2  and  C_4
REMARK    2  A    between atoms: C_9  and  C_10
REMARK    3  A    between atoms: C_12  and  C_13
REMARK    4  A    between atoms: C_13  and  C_14
REMARK    5  A    between atoms: C_13  and  C_18
REMARK    6  A    between atoms: C_14  and  C_15
REMARK    7  A    between atoms: C_15  and  O_17
REMARK    8  A    between atoms: C_18  and  O_20
REMARK    9  A    between atoms: C_22  and  C_23
REMARK   10  A    between atoms: C_30  and  O_31
REMARK                            x       y       z     vdW  Elec       q    Type
REMARK                         _______ _______ _______ _____ _____    ______ ____
ROOT
ATOM      1  C   UNL     1       2.969   6.462  18.839  0.00  0.00    +0.000 A 
ATOM      2  C   UNL     1       2.914   5.395  19.752  0.00  0.00    +0.000 A 
ATOM      3  C   UNL     1       3.610   4.203  19.516  0.00  0.00    +0.000 A 
ATOM      4  C   UNL     1       4.435   4.143  18.381  0.00  0.00    +0.000 A 
ATOM      5  C   UNL     1       4.579   5.206  17.459  0.00  0.00    +0.000 A 
ATOM      6  C   UNL     1       3.786   6.348  17.692  0.00  0.00    +0.000 A 
ENDROOT
BRANCH   1  12
ATOM      7  C   UNL     1      -0.295  11.423  19.415  0.00  0.00    +0.000 A 
ATOM      8  C   UNL     1      -0.172  11.163  20.788  0.00  0.00    +0.000 A 
ATOM      9  C   UNL     1       0.512  10.037  21.253  0.00  0.00    +0.000 A 
ATOM     10  C   UNL     1       1.082   9.217  20.279  0.00  0.00    +0.000 A 
ATOM     11  N   UNL     1       1.814   8.068  20.360  0.00  0.00    +0.000 N 
ATOM     12  C   UNL     1       2.163   7.662  19.091  0.00  0.00    +0.000 A 
ATOM     13  N   UNL     1       1.680   8.504  18.195  0.00  0.00    +0.000 NA
ATOM     14  C   UNL     1       0.997   9.459  18.914  0.00  0.00    +0.000 A 
ATOM     15  C   UNL     1       0.282  10.572  18.460  0.00  0.00    +0.000 A 
ATOM     16  H   UNL     1       2.052   7.553  21.196  0.00  0.00    +0.000 HD
BRANCH   7  18
ATOM     17  N   UNL     1      -0.796  13.117  17.787  0.00  0.00    +0.000 NA
ATOM     18  C   UNL     1      -1.029  12.635  18.963  0.00  0.00    +0.000 C 
ATOM     19  N   UNL     1      -1.930  13.239  19.790  0.00  0.00    +0.000 N 
ATOM     20  H   UNL     1      -1.412  13.912  17.612  0.00  0.00    +0.000 HD
ATOM     21  H   UNL     1      -2.143  14.206  19.578  0.00  0.00    +0.000 HD
ATOM     22  H   UNL     1      -1.773  13.100  20.784  0.00  0.00    +0.000 HD
ENDBRANCH   7  18
ENDBRANCH   1  12
BRANCH   5  23
ATOM     23  C   UNL     1       5.519   5.032  16.318  0.00  0.00    +0.000 A 
ATOM     24  C   UNL     1       5.095   4.404  15.131  0.00  0.00    +0.000 A 
ATOM     25  C   UNL     1       5.973   4.183  14.064  0.00  0.00    +0.000 A 
ATOM     26  C   UNL     1       7.289   4.625  14.135  0.00  0.00    +0.000 A 
ATOM     27  C   UNL     1       7.733   5.267  15.281  0.00  0.00    +0.000 A 
ATOM     28  C   UNL     1       6.864   5.436  16.359  0.00  0.00    +0.000 A 
ATOM     29  F   UNL     1       7.358   6.034  17.455  0.00  0.00    +0.000 F 
ENDBRANCH   5  23
BRANCH   6  30
ATOM     30  O   UNL     1       3.723   7.391  16.792  0.00  0.00    +0.000 OA
ATOM     31  H   UNL     1       3.578   7.034  15.900  0.00  0.00    +0.000 HD
ENDBRANCH   6  30
BRANCH   3  32
ATOM     32  C   UNL     1       3.402   2.993  20.423  0.00  0.00    +0.000 C 
BRANCH  32  33
ATOM     33  C   UNL     1       4.489   1.925  20.412  0.00  0.00    +0.000 C 
ATOM     34  O   UNL     1       5.202   1.700  21.391  0.00  0.00    +0.000 OA
BRANCH  33  35
ATOM     35  O   UNL     1       4.667   1.265  19.251  0.00  0.00    +0.000 OA
ATOM     36  H   UNL     1       5.529   1.420  18.813  0.00  0.00    +0.000 HD
ENDBRANCH  33  35
ENDBRANCH  32  33
BRANCH  32  37
ATOM     37  C   UNL     1       2.038   2.310  20.198  0.00  0.00    +0.000 C 
BRANCH  37  38
ATOM     38  C   UNL     1       1.582   2.316  18.756  0.00  0.00    +0.000 C 
ATOM     39  O   UNL     1       0.687   3.021  18.333  0.00  0.00    +0.000 OA
BRANCH  38  40
ATOM     40  O   UNL     1       2.268   1.469  17.956  0.00  0.00    +0.000 OA
ATOM     41  H   UNL     1       2.641   0.677  18.407  0.00  0.00    +0.000 HD
ENDBRANCH  38  40
ENDBRANCH  37  38
ENDBRANCH  32  37
ENDBRANCH   3  32
TORSDOF 10
ENDMDL
MODEL 2
REMARK VINA RESULT:      -9.1      0.863      1.199
REMARK  Name = 
REMARK  10 active torsions:
REMARK  status: ('A' for Active; 'I' for Inactive)
REMARK    1  A    between atoms: C_2  and  C_4
REMARK    2  A    between atoms: C_9  and  C_10
REMARK    3  A    between atoms: C_12  and  C_13
REMARK    4  A    between atoms: C_13  and  C_14
REMARK    5  A    between atoms: C_13  and  C_18
REMARK    6  A    between atoms: C_14  and  C_15
REMARK    7  A    between atoms: C_15  and  O_17
REMARK    8  A    between atoms: C_18  and  O_20
REMARK    9  A    between atoms: C_22  and  C_23
REMARK   10  A    between atoms: C_30  and  O_31
REMARK                            x       y       z     vdW  Elec       q    Type
REMARK                         _______ _______ _______ _____ _____    ______ ____
ROOT
ATOM      1  C   UNL     1       3.084   6.370  18.804  0.00  0.00    +0.000 A 
ATOM      2  C   UNL     1       3.049   5.293  19.706  0.00  0.00    +0.000 A 
ATOM      3  C   UNL     1       3.725   4.097  19.433  0.00  0.00    +0.000 A 
ATOM      4  C   UNL     1       4.511   4.043  18.271  0.00  0.00    +0.000 A 
ATOM      5  C   UNL     1       4.634   5.115  17.356  0.00  0.00    +0.000 A 
ATOM      6  C   UNL     1       3.860   6.262  17.629  0.00  0.00    +0.000 A 
ENDROOT
BRANCH   1  12
ATOM      7  C   UNL     1      -0.069  11.380  19.553  0.00  0.00    +0.000 A 
ATOM      8  C   UNL     1      -0.031  11.021  20.908  0.00  0.00    +0.000 A 
ATOM      9  C   UNL     1       0.595   9.844  21.329  0.00  0.00    +0.000 A 
ATOM     10  C   UNL     1       1.196   9.076  20.332  0.00  0.00    +0.000 A 
ATOM     11  N   UNL     1       1.890   7.902  20.370  0.00  0.00    +0.000 N 
ATOM     12  C   UNL     1       2.298   7.575  19.096  0.00  0.00    +0.000 A 
ATOM     13  N   UNL     1       1.890   8.492  18.238  0.00  0.00    +0.000 NA
ATOM     14  C   UNL     1       1.194   9.415  18.984  0.00  0.00    +0.000 A 
ATOM     15  C   UNL     1       0.537  10.579  18.573  0.00  0.00    +0.000 A 
ATOM     16  H   UNL     1       2.067   7.323  21.180  0.00  0.00    +0.000 HD
BRANCH   7  18
ATOM     17  N   UNL     1      -1.125  13.477  20.058  0.00  0.00    +0.000 NA
ATOM     18  C   UNL     1      -0.743  12.643  19.149  0.00  0.00    +0.000 C 
ATOM     19  N   UNL     1      -0.964  12.909  17.829  0.00  0.00    +0.000 N 
ATOM     20  H   UNL     1      -1.521  14.309  19.618  0.00  0.00    +0.000 HD
ATOM     21  H   UNL     1      -1.691  13.586  17.633  0.00  0.00    +0.000 HD
ATOM     22  H   UNL     1      -1.039  12.096  17.225  0.00  0.00    +0.000 HD
ENDBRANCH   7  18
ENDBRANCH   1  12
BRANCH   5  23
ATOM     23  C   UNL     1       5.533   4.946  16.182  0.00  0.00    +0.000 A 
ATOM     24  C   UNL     1       5.083   4.280  15.026  0.00  0.00    +0.000 A 
ATOM     25  C   UNL     1       5.926   4.063  13.929  0.00  0.00    +0.000 A 
ATOM     26  C   UNL     1       7.229   4.547  13.939  0.00  0.00    +0.000 A 
ATOM     27  C   UNL     1       7.696   5.227  15.053  0.00  0.00    +0.000 A 
ATOM     28  C   UNL     1       6.866   5.393  16.162  0.00  0.00    +0.000 A 
ATOM     29  F   UNL     1       7.383   6.029  17.225  0.00  0.00    +0.000 F 
ENDBRANCH   5  23
BRANCH   6  30
ATOM     30  O   UNL     1       3.777   7.316  16.744  0.00  0.00    +0.000 OA
ATOM     31  H   UNL     1       2.906   7.738  16.832  0.00  0.00    +0.000 HD
ENDBRANCH   6  30
BRANCH   3  32
ATOM     32  C   UNL     1       3.536   2.879  20.333  0.00  0.00    +0.000 C 
BRANCH  32  33
ATOM     33  C   UNL     1       4.591   1.783  20.244  0.00  0.00    +0.000 C 
ATOM     34  O   UNL     1       5.422   1.594  21.134  0.00  0.00    +0.000 OA
BRANCH  33  35
ATOM     35  O   UNL     1       4.602   1.054  19.111  0.00  0.00    +0.000 OA
ATOM     36  H   UNL     1       3.720   0.834  18.750  0.00  0.00    +0.000 HD
ENDBRANCH  33  35
ENDBRANCH  32  33
BRANCH  32  37
ATOM     37  C   UNL     1       2.144   2.236  20.177  0.00  0.00    +0.000 C 
BRANCH  37  38
ATOM     38  C   UNL     1       1.095   2.819  21.098  0.00  0.00    +0.000 C 
ATOM     39  O   UNL     1       1.044   2.595  22.292  0.00  0.00    +0.000 OA
BRANCH  38  40
ATOM     40  O   UNL     1       0.208   3.633  20.483  0.00  0.00    +0.000 OA
ATOM     41  H   UNL     1      -0.629   3.200  20.197  0.00  0.00    +0.000 HD
ENDBRANCH  38  40
ENDBRANCH  37  38
ENDBRANCH  32  37
ENDBRANCH   3  32
TORSDOF 10
ENDMDL
MODEL 3
REMARK VINA RESULT:      -9.0      0.689      2.024
REMARK  Name = 
REMARK  10 active torsions:
REMARK  status: ('A' for Active; 'I' for Inactive)
REMARK    1  A    between atoms: C_2  and  C_4
REMARK    2  A    between atoms: C_9  and  C_10
REMARK    3  A    between atoms: C_12  and  C_13
REMARK    4  A    between atoms: C_13  and  C_14
REMARK    5  A    between atoms: C_13  and  C_18
REMARK    6  A    between atoms: C_14  and  C_15
REMARK    7  A    between atoms: C_15  and  O_17
REMARK    8  A    between atoms: C_18  and  O_20
REMARK    9  A    between atoms: C_22  and  C_23
REMARK   10  A    between atoms: C_30  and  O_31
REMARK                            x       y       z     vdW  Elec       q    Type
REMARK                         _______ _______ _______ _____ _____    ______ ____
ROOT
ATOM      1  C   UNL     1       2.775   6.398  18.495  0.00  0.00    +0.000 A 
ATOM      2  C   UNL     1       2.499   5.233  19.231  0.00  0.00    +0.000 A 
ATOM      3  C   UNL     1       3.076   4.005  18.885  0.00  0.00    +0.000 A 
ATOM      4  C   UNL     1       4.008   3.994  17.836  0.00  0.00    +0.000 A 
ATOM      5  C   UNL     1       4.372   5.145  17.098  0.00  0.00    +0.000 A 
ATOM      6  C   UNL     1       3.694   6.337  17.424  0.00  0.00    +0.000 A 
ENDROOT
BRANCH   1  12
ATOM      7  C   UNL     1      -0.013  11.579  19.483  0.00  0.00    +0.000 A 
ATOM      8  C   UNL     1       0.142  11.232  20.833  0.00  0.00    +0.000 A 
ATOM      9  C   UNL     1       0.743  10.027  21.206  0.00  0.00    +0.000 A 
ATOM     10  C   UNL     1       1.198   9.218  20.165  0.00  0.00    +0.000 A 
ATOM     11  N   UNL     1       1.829   8.008  20.151  0.00  0.00    +0.000 N 
ATOM     12  C   UNL     1       2.088   7.647  18.847  0.00  0.00    +0.000 A 
ATOM     13  N   UNL     1       1.646   8.576  18.021  0.00  0.00    +0.000 NA
ATOM     14  C   UNL     1       1.079   9.544  18.819  0.00  0.00    +0.000 A 
ATOM     15  C   UNL     1       0.446  10.737  18.459  0.00  0.00    +0.000 A 
ATOM     16  H   UNL     1       2.055   7.427  20.947  0.00  0.00    +0.000 HD
BRANCH   7  18
ATOM     17  N   UNL     1      -1.102  13.639  20.070  0.00  0.00    +0.000 NA
ATOM     18  C   UNL     1      -0.656  12.874  19.130  0.00  0.00    +0.000 C 
ATOM     19  N   UNL     1      -0.783  13.241  17.822  0.00  0.00    +0.000 N 
ATOM     20  H   UNL     1      -1.465  14.504  19.668  0.00  0.00    +0.000 HD
ATOM     21  H   UNL     1      -1.493  13.936  17.627  0.00  0.00    +0.000 HD
ATOM     22  H   UNL     1      -0.815  12.477  17.153  0.00  0.00    +0.000 HD
ENDBRANCH   7  18
ENDBRANCH   1  12
BRANCH   5  23
ATOM     23  C   UNL     1       5.405   5.009  16.035  0.00  0.00    +0.000 A 
ATOM     24  C   UNL     1       5.118   4.317  14.843  0.00  0.00    +0.000 A 
ATOM     25  C   UNL     1       6.088   4.131  13.851  0.00  0.00    +0.000 A 
ATOM     26  C   UNL     1       7.360   4.671  14.002  0.00  0.00    +0.000 A 
ATOM     27  C   UNL     1       7.669   5.376  15.156  0.00  0.00    +0.000 A 
ATOM     28  C   UNL     1       6.712   5.512  16.161  0.00  0.00    +0.000 A 
ATOM     29  F   UNL     1       7.077   6.176  17.269  0.00  0.00    +0.000 F 
ENDBRANCH   5  23
BRANCH   6  30
ATOM     30  O   UNL     1       3.849   7.492  16.688  0.00  0.00    +0.000 OA
ATOM     31  H   UNL     1       4.622   7.397  16.105  0.00  0.00    +0.000 HD
ENDBRANCH   6  30
BRANCH   3  32
ATOM     32  C   UNL     1       2.633   2.719  19.580  0.00  0.00    +0.000 C 
BRANCH  32  33
ATOM     33  C   UNL     1       1.144   2.566  19.865  0.00  0.00    +0.000 C 
ATOM     34  O   UNL     1       0.331   2.273  18.987  0.00  0.00    +0.000 OA
BRANCH  33  35
ATOM     35  O   UNL     1       0.748   2.817  21.129  0.00  0.00    +0.000 OA
ATOM     36  H   UNL     1       0.677   2.030  21.706  0.00  0.00    +0.000 HD
ENDBRANCH  33  35
ENDBRANCH  32  33
BRANCH  32  37
ATOM     37  C   UNL     1       3.415   2.446  20.879  0.00  0.00    +0.000 C 
BRANCH  37  38
ATOM     38  C   UNL     1       4.666   1.620  20.678  0.00  0.00    +0.000 C 
ATOM     39  O   UNL     1       5.485   1.411  21.551  0.00  0.00    +0.000 OA
BRANCH  38  40
ATOM     40  O   UNL     1       4.799   1.113  19.432  0.00  0.00    +0.000 OA
ATOM     41  H   UNL     1       3.989   0.690  19.064  0.00  0.00    +0.000 HD
ENDBRANCH  38  40
ENDBRANCH  37  38
ENDBRANCH  32  37
ENDBRANCH   3  32
TORSDOF 10
ENDMDL
MODEL 4
REMARK VINA RESULT:      -8.9      0.796      1.512
REMARK  Name = 
REMARK  10 active torsions:
REMARK  status: ('A' for Active; 'I' for Inactive)
REMARK    1  A    between atoms: C_2  and  C_4
REMARK    2  A    between atoms: C_9  and  C_10
REMARK    3  A    between atoms: C_12  and  C_13
REMARK    4  A    between atoms: C_13  and  C_14
REMARK    5  A    between atoms: C_13  and  C_18
REMARK    6  A    between atoms: C_14  and  C_15
REMARK    7  A    between atoms: C_15  and  O_17
REMARK    8  A    between atoms: C_18  and  O_20
REMARK    9  A    between atoms: C_22  and  C_23
REMARK   10  A    between atoms: C_30  and  O_31
REMARK                            x       y       z     vdW  Elec       q    Type
REMARK                         _______ _______ _______ _____ _____    ______ ____
ROOT
ATOM      1  C   UNL     1       2.984   6.378  19.034  0.00  0.00    +0.000 A 
ATOM      2  C   UNL     1       2.929   5.253  19.874  0.00  0.00    +0.000 A 
ATOM      3  C   UNL     1       3.588   4.065  19.536  0.00  0.00    +0.000 A 
ATOM      4  C   UNL     1       4.379   4.064  18.376  0.00  0.00    +0.000 A 
ATOM      5  C   UNL     1       4.522   5.184  17.524  0.00  0.00    +0.000 A 
ATOM      6  C   UNL     1       3.764   6.326  17.858  0.00  0.00    +0.000 A 
ENDROOT
BRANCH   1  12
ATOM      7  C   UNL     1      -0.169  11.083  20.910  0.00  0.00    +0.000 A 
ATOM      8  C   UNL     1      -0.158  11.440  19.554  0.00  0.00    +0.000 A 
ATOM      9  C   UNL     1       0.508  10.659  18.605  0.00  0.00    +0.000 A 
ATOM     10  C   UNL     1       1.125   9.504  19.083  0.00  0.00    +0.000 A 
ATOM     11  N   UNL     1       1.839   8.520  18.462  0.00  0.00    +0.000 N 
ATOM     12  C   UNL     1       2.214   7.576  19.392  0.00  0.00    +0.000 A 
ATOM     13  N   UNL     1       1.772   7.916  20.589  0.00  0.00    +0.000 NA
ATOM     14  C   UNL     1       1.113   9.112  20.416  0.00  0.00    +0.000 A 
ATOM     15  C   UNL     1       0.471   9.919  21.360  0.00  0.00    +0.000 A 
ATOM     16  H   UNL     1       2.098   8.477  17.486  0.00  0.00    +0.000 HD
BRANCH   7  18
ATOM     17  N   UNL     1      -0.827  11.664  23.147  0.00  0.00    +0.000 NA
ATOM     18  C   UNL     1      -0.893  11.941  21.887  0.00  0.00    +0.000 C 
ATOM     19  N   UNL     1      -1.630  13.004  21.451  0.00  0.00    +0.000 N 
ATOM     20  H   UNL     1      -1.333  12.371  23.682  0.00  0.00    +0.000 HD
ATOM     21  H   UNL     1      -2.341  13.337  22.089  0.00  0.00    +0.000 HD
ATOM     22  H   UNL     1      -1.984  12.930  20.502  0.00  0.00    +0.000 HD
ENDBRANCH   7  18
ENDBRANCH   1  12
BRANCH   5  23
ATOM     23  C   UNL     1       5.424   5.069  16.346  0.00  0.00    +0.000 A 
ATOM     24  C   UNL     1       5.012   4.369  15.196  0.00  0.00    +0.000 A 
ATOM     25  C   UNL     1       5.861   4.202  14.095  0.00  0.00    +0.000 A 
ATOM     26  C   UNL     1       7.131   4.769  14.095  0.00  0.00    +0.000 A 
ATOM     27  C   UNL     1       7.559   5.483  15.205  0.00  0.00    +0.000 A 
ATOM     28  C   UNL     1       6.726   5.600  16.317  0.00  0.00    +0.000 A 
ATOM     29  F   UNL     1       7.206   6.273  17.374  0.00  0.00    +0.000 F 
ENDBRANCH   5  23
BRANCH   6  30
ATOM     30  O   UNL     1       3.701   7.429  17.034  0.00  0.00    +0.000 OA
ATOM     31  H   UNL     1       3.052   7.264  16.330  0.00  0.00    +0.000 HD
ENDBRANCH   6  30
BRANCH   3  32
ATOM     32  C   UNL     1       3.376   2.800  20.365  0.00  0.00    +0.000 C 
BRANCH  32  33
ATOM     33  C   UNL     1       4.490   1.760  20.337  0.00  0.00    +0.000 C 
ATOM     34  O   UNL     1       5.278   1.613  21.271  0.00  0.00    +0.000 OA
BRANCH  33  35
ATOM     35  O   UNL     1       4.602   1.034  19.207  0.00  0.00    +0.000 OA
ATOM     36  H   UNL     1       3.755   0.733  18.821  0.00  0.00    +0.000 HD
ENDBRANCH  33  35
ENDBRANCH  32  33
BRANCH  32  37
ATOM     37  C   UNL     1       2.040   2.100  20.049  0.00  0.00    +0.000 C 
BRANCH  37  38
ATOM     38  C   UNL     1       1.575   2.286  18.621  0.00  0.00    +0.000 C 
ATOM     39  O   UNL     1       0.684   3.044  18.294  0.00  0.00    +0.000 OA
BRANCH  38  40
ATOM     40  O   UNL     1       2.249   1.538  17.718  0.00  0.00    +0.000 OA
ATOM     41  H   UNL     1       2.976   2.007  17.247  0.00  0.00    +0.000 HD
ENDBRANCH  38  40
ENDBRANCH  37  38
ENDBRANCH  32  37
ENDBRANCH   3  32
TORSDOF 10
ENDMDL
MODEL 5
REMARK VINA RESULT:      -8.9      1.170      1.833
REMARK  Name = 
REMARK  10 active torsions:
REMARK  status: ('A' for Active; 'I' for Inactive)
REMARK    1  A    between atoms: C_2  and  C_4
REMARK    2  A    between atoms: C_9  and  C_10
REMARK    3  A    between atoms: C_12  and  C_13
REMARK    4  A    between atoms: C_13  and  C_14
REMARK    5  A    between atoms: C_13  and  C_18
REMARK    6  A    between atoms: C_14  and  C_15
REMARK    7  A    between atoms: C_15  and  O_17
REMARK    8  A    between atoms: C_18  and  O_20
REMARK    9  A    between atoms: C_22  and  C_23
REMARK   10  A    between atoms: C_30  and  O_31
REMARK                            x       y       z     vdW  Elec       q    Type
REMARK                         _______ _______ _______ _____ _____    ______ ____
ROOT
ATOM      1  C   UNL     1       3.148   6.209  18.824  0.00  0.00    +0.000 A 
ATOM      2  C   UNL     1       3.117   5.077  19.656  0.00  0.00    +0.000 A 
ATOM      3  C   UNL     1       3.775   3.895  19.294  0.00  0.00    +0.000 A 
ATOM      4  C   UNL     1       4.539   3.908  18.117  0.00  0.00    +0.000 A 
ATOM      5  C   UNL     1       4.658   5.035  17.270  0.00  0.00    +0.000 A 
ATOM      6  C   UNL     1       3.902   6.170  17.630  0.00  0.00    +0.000 A 
ENDROOT
BRANCH   1  12
ATOM      7  C   UNL     1      -0.054  10.847  20.782  0.00  0.00    +0.000 A 
ATOM      8  C   UNL     1       0.132  11.332  19.480  0.00  0.00    +0.000 A 
ATOM      9  C   UNL     1       0.882  10.617  18.541  0.00  0.00    +0.000 A 
ATOM     10  C   UNL     1       1.400   9.395  18.969  0.00  0.00    +0.000 A 
ATOM     11  N   UNL     1       2.150   8.445  18.340  0.00  0.00    +0.000 N 
ATOM     12  C   UNL     1       2.380   7.400  19.207  0.00  0.00    +0.000 A 
ATOM     13  N   UNL     1       1.807   7.642  20.373  0.00  0.00    +0.000 NA
ATOM     14  C   UNL     1       1.214   8.877  20.245  0.00  0.00    +0.000 A 
ATOM     15  C   UNL     1       0.489   9.617  21.184  0.00  0.00    +0.000 A 
ATOM     16  H   UNL     1       2.524   8.484  17.401  0.00  0.00    +0.000 HD
BRANCH   7  18
ATOM     17  N   UNL     1      -0.606  11.552  23.012  0.00  0.00    +0.000 NA
ATOM     18  C   UNL     1      -0.862  11.638  21.748  0.00  0.00    +0.000 C 
ATOM     19  N   UNL     1      -1.874  12.438  21.302  0.00  0.00    +0.000 N 
ATOM     20  H   UNL     1      -1.211  12.190  23.530  0.00  0.00    +0.000 HD
ATOM     21  H   UNL     1      -2.578  12.682  21.989  0.00  0.00    +0.000 HD
ATOM     22  H   UNL     1      -2.294  12.161  20.419  0.00  0.00    +0.000 HD
ENDBRANCH   7  18
ENDBRANCH   1  12
BRANCH   5  23
ATOM     23  C   UNL     1       5.534   4.933  16.072  0.00  0.00    +0.000 A 
ATOM     24  C   UNL     1       5.120   4.200  14.943  0.00  0.00    +0.000 A 
ATOM     25  C   UNL     1       5.947   4.047  13.824  0.00  0.00    +0.000 A 
ATOM     26  C   UNL     1       7.194   4.659  13.783  0.00  0.00    +0.000 A 
ATOM     27  C   UNL     1       7.623   5.407  14.870  0.00  0.00    +0.000 A 
ATOM     28  C   UNL     1       6.814   5.511  16.001  0.00  0.00    +0.000 A 
ATOM     29  F   UNL     1       7.295   6.219  17.035  0.00  0.00    +0.000 F 
ENDBRANCH   5  23
BRANCH   6  30
ATOM     30  O   UNL     1       3.814   7.279  16.816  0.00  0.00    +0.000 OA
ATOM     31  H   UNL     1       4.499   7.224  16.128  0.00  0.00    +0.000 HD
ENDBRANCH   6  30
BRANCH   3  32
ATOM     32  C   UNL     1       3.588   2.623  20.117  0.00  0.00    +0.000 C 
BRANCH  32  33
ATOM     33  C   UNL     1       4.575   1.488  19.871  0.00  0.00    +0.000 C 
ATOM     34  O   UNL     1       5.486   1.225  20.657  0.00  0.00    +0.000 OA
BRANCH  33  35
ATOM     35  O   UNL     1       4.431   0.811  18.715  0.00  0.00    +0.000 OA
ATOM     36  H   UNL     1       4.957  -0.011  18.647  0.00  0.00    +0.000 HD
ENDBRANCH  33  35
ENDBRANCH  32  33
BRANCH  32  37
ATOM     37  C   UNL     1       2.156   2.060  20.023  0.00  0.00    +0.000 C 
BRANCH  37  38
ATOM     38  C   UNL     1       1.181   2.707  20.982  0.00  0.00    +0.000 C 
ATOM     39  O   UNL     1       1.245   2.594  22.190  0.00  0.00    +0.000 OA
BRANCH  38  40
ATOM     40  O   UNL     1       0.221   3.444  20.380  0.00  0.00    +0.000 OA
ATOM     41  H   UNL     1      -0.102   3.088  19.520  0.00  0.00    +0.000 HD
ENDBRANCH  38  40
ENDBRANCH  37  38
ENDBRANCH  32  37
ENDBRANCH   3  32
TORSDOF 10
ENDMDL
MODEL 6
REMARK VINA RESULT:      -8.8      1.062      2.479
REMARK  Name = 
REMARK  10 active torsions:
REMARK  status: ('A' for Active; 'I' for Inactive)
REMARK    1  A    between atoms: C_2  and  C_4
REMARK    2  A    between atoms: C_9  and  C_10
REMARK    3  A    between atoms: C_12  and  C_13
REMARK    4  A    between atoms: C_13  and  C_14
REMARK    5  A    between atoms: C_13  and  C_18
REMARK    6  A    between atoms: C_14  and  C_15
REMARK    7  A    between atoms: C_15  and  O_17
REMARK    8  A    between atoms: C_18  and  O_20
REMARK    9  A    between atoms: C_22  and  C_23
REMARK   10  A    between atoms: C_30  and  O_31
REMARK                            x       y       z     vdW  Elec       q    Type
REMARK                         _______ _______ _______ _____ _____    ______ ____
ROOT
ATOM      1  C   UNL     1       2.809   6.383  18.737  0.00  0.00    +0.000 A 
ATOM      2  C   UNL     1       2.524   5.186  19.417  0.00  0.00    +0.000 A 
ATOM      3  C   UNL     1       3.059   3.965  18.988  0.00  0.00    +0.000 A 
ATOM      4  C   UNL     1       3.960   3.990  17.912  0.00  0.00    +0.000 A 
ATOM      5  C   UNL     1       4.333   5.170  17.227  0.00  0.00    +0.000 A 
ATOM      6  C   UNL     1       3.695   6.359  17.638  0.00  0.00    +0.000 A 
ENDROOT
BRANCH   1  12
ATOM      7  C   UNL     1       0.178  11.262  20.943  0.00  0.00    +0.000 A 
ATOM      8  C   UNL     1       0.130  11.660  19.598  0.00  0.00    +0.000 A 
ATOM      9  C   UNL     1       0.667  10.859  18.587  0.00  0.00    +0.000 A 
ATOM     10  C   UNL     1       1.218   9.643  18.991  0.00  0.00    +0.000 A 
ATOM     11  N   UNL     1       1.808   8.626  18.299  0.00  0.00    +0.000 N 
ATOM     12  C   UNL     1       2.164   7.626  19.176  0.00  0.00    +0.000 A 
ATOM     13  N   UNL     1       1.830   7.962  20.409  0.00  0.00    +0.000 NA
ATOM     14  C   UNL     1       1.261   9.212  20.312  0.00  0.00    +0.000 A 
ATOM     15  C   UNL     1       0.749  10.037  21.318  0.00  0.00    +0.000 A 
ATOM     16  H   UNL     1       1.998   8.593  17.307  0.00  0.00    +0.000 HD
BRANCH   7  18
ATOM     17  N   UNL     1      -0.771  11.635  23.118  0.00  0.00    +0.000 NA
ATOM     18  C   UNL     1      -0.409  12.144  21.987  0.00  0.00    +0.000 C 
ATOM     19  N   UNL     1      -0.573  13.477  21.745  0.00  0.00    +0.000 N 
ATOM     20  H   UNL     1      -1.104  12.374  23.738  0.00  0.00    +0.000 HD
ATOM     21  H   UNL     1      -1.253  13.949  22.329  0.00  0.00    +0.000 HD
ATOM     22  H   UNL     1      -0.676  13.735  20.768  0.00  0.00    +0.000 HD
ENDBRANCH   7  18
ENDBRANCH   1  12
BRANCH   5  23
ATOM     23  C   UNL     1       5.332   5.068  16.129  0.00  0.00    +0.000 A 
ATOM     24  C   UNL     1       5.008   4.411  14.926  0.00  0.00    +0.000 A 
ATOM     25  C   UNL     1       5.946   4.256  13.899  0.00  0.00    +0.000 A 
ATOM     26  C   UNL     1       7.222   4.794  14.026  0.00  0.00    +0.000 A 
ATOM     27  C   UNL     1       7.566   5.466  15.189  0.00  0.00    +0.000 A 
ATOM     28  C   UNL     1       6.641   5.570  16.228  0.00  0.00    +0.000 A 
ATOM     29  F   UNL     1       7.041   6.202  17.343  0.00  0.00    +0.000 F 
ENDBRANCH   5  23
BRANCH   6  30
ATOM     30  O   UNL     1       3.859   7.549  16.960  0.00  0.00    +0.000 OA
ATOM     31  H   UNL     1       3.121   8.143  17.178  0.00  0.00    +0.000 HD
ENDBRANCH   6  30
BRANCH   3  32
ATOM     32  C   UNL     1       2.603   2.655  19.624  0.00  0.00    +0.000 C 
BRANCH  32  33
ATOM     33  C   UNL     1       1.109   2.492  19.878  0.00  0.00    +0.000 C 
ATOM     34  O   UNL     1       0.322   2.156  18.991  0.00  0.00    +0.000 OA
BRANCH  33  35
ATOM     35  O   UNL     1       0.678   2.786  21.120  0.00  0.00    +0.000 OA
ATOM     36  H   UNL     1       1.166   3.505  21.570  0.00  0.00    +0.000 HD
ENDBRANCH  33  35
ENDBRANCH  32  33
BRANCH  32  37
ATOM     37  C   UNL     1       3.361   2.330  20.926  0.00  0.00    +0.000 C 
BRANCH  37  38
ATOM     38  C   UNL     1       4.660   1.586  20.707  0.00  0.00    +0.000 C 
ATOM     39  O   UNL     1       5.498   1.422  21.572  0.00  0.00    +0.000 OA
BRANCH  38  40
ATOM     40  O   UNL     1       4.813   1.097  19.457  0.00  0.00    +0.000 OA
ATOM     41  H   UNL     1       5.190   1.730  18.803  0.00  0.00    +0.000 HD
ENDBRANCH  38  40
ENDBRANCH  37  38
ENDBRANCH  32  37
ENDBRANCH   3  32
TORSDOF 10
ENDMDL
MODEL 7
REMARK VINA RESULT:      -8.6      4.547      9.894
REMARK  Name = 
REMARK  10 active torsions:
REMARK  status: ('A' for Active; 'I' for Inactive)
REMARK    1  A    between atoms: C_2  and  C_4
REMARK    2  A    between atoms: C_9  and  C_10
REMARK    3  A    between atoms: C_12  and  C_13
REMARK    4  A    between atoms: C_13  and  C_14
REMARK    5  A    between atoms: C_13  and  C_18
REMARK    6  A    between atoms: C_14  and  C_15
REMARK    7  A    between atoms: C_15  and  O_17
REMARK    8  A    between atoms: C_18  and  O_20
REMARK    9  A    between atoms: C_22  and  C_23
REMARK   10  A    between atoms: C_30  and  O_31
REMARK                            x       y       z     vdW  Elec       q    Type
REMARK                         _______ _______ _______ _____ _____    ______ ____
ROOT
ATOM      1  C   UNL     1       0.302   9.822  18.891  0.00  0.00    +0.000 A 
ATOM      2  C   UNL     1      -0.613  10.013  17.841  0.00  0.00    +0.000 A 
ATOM      3  C   UNL     1      -1.697  10.889  17.977  0.00  0.00    +0.000 A 
ATOM      4  C   UNL     1      -1.788  11.636  19.162  0.00  0.00    +0.000 A 
ATOM      5  C   UNL     1      -0.864  11.531  20.228  0.00  0.00    +0.000 A 
ATOM      6  C   UNL     1       0.156  10.569  20.080  0.00  0.00    +0.000 A 
ENDROOT
BRANCH   1  12
ATOM      7  C   UNL     1       4.605   5.694  18.674  0.00  0.00    +0.000 A 
ATOM      8  C   UNL     1       4.846   6.230  17.400  0.00  0.00    +0.000 A 
ATOM      9  C   UNL     1       4.062   7.269  16.892  0.00  0.00    +0.000 A 
ATOM     10  C   UNL     1       3.058   7.751  17.732  0.00  0.00    +0.000 A 
ATOM     11  N   UNL     1       2.131   8.741  17.581  0.00  0.00    +0.000 N 
ATOM     12  C   UNL     1       1.379   8.837  18.731  0.00  0.00    +0.000 A 
ATOM     13  N   UNL     1       1.785   7.945  19.616  0.00  0.00    +0.000 NA
ATOM     14  C   UNL     1       2.809   7.257  19.007  0.00  0.00    +0.000 A 
ATOM     15  C   UNL     1       3.580   6.196  19.491  0.00  0.00    +0.000 A 
ATOM     16  H   UNL     1       1.971   9.308  16.760  0.00  0.00    +0.000 HD
BRANCH   7  18
ATOM     17  N   UNL     1       6.606   4.871  19.718  0.00  0.00    +0.000 NA
ATOM     18  C   UNL     1       5.466   4.591  19.178  0.00  0.00    +0.000 C 
ATOM     19  N   UNL     1       5.058   3.294  19.059  0.00  0.00    +0.000 N 
ATOM     20  H   UNL     1       7.048   4.015  20.054  0.00  0.00    +0.000 HD
ATOM     21  H   UNL     1       5.791   2.597  19.107  0.00  0.00    +0.000 HD
ATOM     22  H   UNL     1       4.413   3.107  18.297  0.00  0.00    +0.000 HD
ENDBRANCH   7  18
ENDBRANCH   1  12
BRANCH   5  23
ATOM     23  C   UNL     1      -1.048  12.410  21.415  0.00  0.00    +0.000 A 
ATOM     24  C   UNL     1      -2.028  12.112  22.381  0.00  0.00    +0.000 A 
ATOM     25  C   UNL     1      -2.256  12.950  23.479  0.00  0.00    +0.000 A 
ATOM     26  C   UNL     1      -1.479  14.088  23.667  0.00  0.00    +0.000 A 
ATOM     27  C   UNL     1      -0.490  14.398  22.745  0.00  0.00    +0.000 A 
ATOM     28  C   UNL     1      -0.305  13.585  21.627  0.00  0.00    +0.000 A 
ATOM     29  F   UNL     1       0.643  13.953  20.752  0.00  0.00    +0.000 F 
ENDBRANCH   5  23
BRANCH   6  30
ATOM     30  O   UNL     1       1.030  10.266  21.102  0.00  0.00    +0.000 OA
ATOM     31  H   UNL     1       1.141   9.301  21.151  0.00  0.00    +0.000 HD
ENDBRANCH   6  30
BRANCH   3  32
ATOM     32  C   UNL     1      -2.778  10.954  16.901  0.00  0.00    +0.000 C 
BRANCH  32  33
ATOM     33  C   UNL     1      -4.193  11.282  17.361  0.00  0.00    +0.000 C 
ATOM     34  O   UNL     1      -4.800  10.584  18.175  0.00  0.00    +0.000 OA
BRANCH  33  35
ATOM     35  O   UNL     1      -4.774  12.356  16.791  0.00  0.00    +0.000 OA
ATOM     36  H   UNL     1      -4.160  12.968  16.336  0.00  0.00    +0.000 HD
ENDBRANCH  33  35
ENDBRANCH  32  33
BRANCH  32  37
ATOM     37  C   UNL     1      -2.825   9.685  16.028  0.00  0.00    +0.000 C 
BRANCH  37  38
ATOM     38  C   UNL     1      -3.227   9.944  14.593  0.00  0.00    +0.000 C 
ATOM     39  O   UNL     1      -2.452   9.910  13.658  0.00  0.00    +0.000 OA
BRANCH  38  40
ATOM     40  O   UNL     1      -4.542  10.210  14.426  0.00  0.00    +0.000 OA
ATOM     41  H   UNL     1      -4.897  10.016  13.529  0.00  0.00    +0.000 HD
ENDBRANCH  38  40
ENDBRANCH  37  38
ENDBRANCH  32  37
ENDBRANCH   3  32
TORSDOF 10
ENDMDL
MODEL 8
REMARK VINA RESULT:      -8.6      1.086      1.439
REMARK  Name = 
REMARK  10 active torsions:
REMARK  status: ('A' for Active; 'I' for Inactive)
REMARK    1  A    between atoms: C_2  and  C_4
REMARK    2  A    between atoms: C_9  and  C_10
REMARK    3  A    between atoms: C_12  and  C_13
REMARK    4  A    between atoms: C_13  and  C_14
REMARK    5  A    between atoms: C_13  and  C_18
REMARK    6  A    between atoms: C_14  and  C_15
REMARK    7  A    between atoms: C_15  and  O_17
REMARK    8  A    between atoms: C_18  and  O_20
REMARK    9  A    between atoms: C_22  and  C_23
REMARK   10  A    between atoms: C_30  and  O_31
REMARK                            x       y       z     vdW  Elec       q    Type
REMARK                         _______ _______ _______ _____ _____    ______ ____
ROOT
ATOM      1  C   UNL     1       3.085   6.444  18.452  0.00  0.00    +0.000 A 
ATOM      2  C   UNL     1       3.069   5.362  19.349  0.00  0.00    +0.000 A 
ATOM      3  C   UNL     1       3.777   4.185  19.076  0.00  0.00    +0.000 A 
ATOM      4  C   UNL     1       4.574   4.156  17.921  0.00  0.00    +0.000 A 
ATOM      5  C   UNL     1       4.678   5.235  17.012  0.00  0.00    +0.000 A 
ATOM      6  C   UNL     1       3.874   6.361  17.284  0.00  0.00    +0.000 A 
ENDROOT
BRANCH   1  12
ATOM      7  C   UNL     1      -0.244  11.340  19.188  0.00  0.00    +0.000 A 
ATOM      8  C   UNL     1      -0.065  11.073  20.553  0.00  0.00    +0.000 A 
ATOM      9  C   UNL     1       0.656   9.956  20.984  0.00  0.00    +0.000 A 
ATOM     10  C   UNL     1       1.204   9.153  19.983  0.00  0.00    +0.000 A 
ATOM     11  N   UNL     1       1.959   8.018  20.027  0.00  0.00    +0.000 N 
ATOM     12  C   UNL     1       2.267   7.627  18.743  0.00  0.00    +0.000 A 
ATOM     13  N   UNL     1       1.736   8.467  17.873  0.00  0.00    +0.000 NA
ATOM     14  C   UNL     1       1.063   9.404  18.624  0.00  0.00    +0.000 A 
ATOM     15  C   UNL     1       0.312  10.507  18.205  0.00  0.00    +0.000 A 
ATOM     16  H   UNL     1       2.238   7.501  20.850  0.00  0.00    +0.000 HD
BRANCH   7  18
ATOM     17  N   UNL     1      -0.807  13.061  17.608  0.00  0.00    +0.000 NA
ATOM     18  C   UNL     1      -1.016  12.542  18.773  0.00  0.00    +0.000 C 
ATOM     19  N   UNL     1      -1.928  13.098  19.622  0.00  0.00    +0.000 N 
ATOM     20  H   UNL     1      -1.446  13.842  17.459  0.00  0.00    +0.000 HD
ATOM     21  H   UNL     1      -2.170  14.063  19.437  0.00  0.00    +0.000 HD
ATOM     22  H   UNL     1      -1.759  12.938  20.611  0.00  0.00    +0.000 HD
ENDBRANCH   7  18
ENDBRANCH   1  12
BRANCH   5  23
ATOM     23  C   UNL     1       5.592   5.094  15.846  0.00  0.00    +0.000 A 
ATOM     24  C   UNL     1       5.202   4.346  14.718  0.00  0.00    +0.000 A 
ATOM     25  C   UNL     1       6.063   4.156  13.630  0.00  0.00    +0.000 A 
ATOM     26  C   UNL     1       7.321   4.746  13.619  0.00  0.00    +0.000 A 
ATOM     27  C   UNL     1       7.728   5.507  14.706  0.00  0.00    +0.000 A 
ATOM     28  C   UNL     1       6.883   5.648  15.807  0.00  0.00    +0.000 A 
ATOM     29  F   UNL     1       7.343   6.367  16.843  0.00  0.00    +0.000 F 
ENDBRANCH   5  23
BRANCH   6  30
ATOM     30  O   UNL     1       3.773   7.417  16.403  0.00  0.00    +0.000 OA
ATOM     31  H   UNL     1       2.840   7.681  16.328  0.00  0.00    +0.000 HD
ENDBRANCH   6  30
BRANCH   3  32
ATOM     32  C   UNL     1       3.609   2.957  19.968  0.00  0.00    +0.000 C 
BRANCH  32  33
ATOM     33  C   UNL     1       4.224   1.654  19.474  0.00  0.00    +0.000 C 
ATOM     34  O   UNL     1       3.730   0.998  18.555  0.00  0.00    +0.000 OA
BRANCH  33  35
ATOM     35  O   UNL     1       5.319   1.222  20.130  0.00  0.00    +0.000 OA
ATOM     36  H   UNL     1       5.641   1.818  20.837  0.00  0.00    +0.000 HD
ENDBRANCH  33  35
ENDBRANCH  32  33
BRANCH  32  37
ATOM     37  C   UNL     1       2.139   2.696  20.349  0.00  0.00    +0.000 C 
BRANCH  37  38
ATOM     38  C   UNL     1       1.836   2.926  21.813  0.00  0.00    +0.000 C 
ATOM     39  O   UNL     1       2.491   3.655  22.532  0.00  0.00    +0.000 OA
BRANCH  38  40
ATOM     40  O   UNL     1       0.754   2.255  22.266  0.00  0.00    +0.000 OA
ATOM     41  H   UNL     1       0.949   1.392  22.701  0.00  0.00    +0.000 HD
ENDBRANCH  38  40
ENDBRANCH  37  38
ENDBRANCH  32  37
ENDBRANCH   3  32
TORSDOF 10
ENDMDL
MODEL 9
REMARK VINA RESULT:      -8.6      4.583      9.844
REMARK  Name = 
REMARK  10 active torsions:
REMARK  status: ('A' for Active; 'I' for Inactive)
REMARK    1  A    between atoms: C_2  and  C_4
REMARK    2  A    between atoms: C_9  and  C_10
REMARK    3  A    between atoms: C_12  and  C_13
REMARK    4  A    between atoms: C_13  and  C_14
REMARK    5  A    between atoms: C_13  and  C_18
REMARK    6  A    between atoms: C_14  and  C_15
REMARK    7  A    between atoms: C_15  and  O_17
REMARK    8  A    between atoms: C_18  and  O_20
REMARK    9  A    between atoms: C_22  and  C_23
REMARK   10  A    between atoms: C_30  and  O_31
REMARK                            x       y       z     vdW  Elec       q    Type
REMARK                         _______ _______ _______ _____ _____    ______ ____
ROOT
ATOM      1  C   UNL     1       0.333   9.977  18.700  0.00  0.00    +0.000 A 
ATOM      2  C   UNL     1      -0.646  10.094  17.699  0.00  0.00    +0.000 A 
ATOM      3  C   UNL     1      -1.709  10.998  17.829  0.00  0.00    +0.000 A 
ATOM      4  C   UNL     1      -1.713  11.844  18.949  0.00  0.00    +0.000 A 
ATOM      5  C   UNL     1      -0.723  11.814  19.959  0.00  0.00    +0.000 A 
ATOM      6  C   UNL     1       0.273  10.824  19.829  0.00  0.00    +0.000 A 
ENDROOT
BRANCH   1  12
ATOM      7  C   UNL     1       4.706   6.039  17.714  0.00  0.00    +0.000 A 
ATOM      8  C   UNL     1       4.242   5.455  18.901  0.00  0.00    +0.000 A 
ATOM      9  C   UNL     1       3.183   6.017  19.619  0.00  0.00    +0.000 A 
ATOM     10  C   UNL     1       2.607   7.163  19.072  0.00  0.00    +0.000 A 
ATOM     11  N   UNL     1       1.574   7.957  19.478  0.00  0.00    +0.000 N 
ATOM     12  C   UNL     1       1.384   8.962  18.557  0.00  0.00    +0.000 A 
ATOM     13  N   UNL     1       2.258   8.849  17.573  0.00  0.00    +0.000 NA
ATOM     14  C   UNL     1       3.030   7.753  17.887  0.00  0.00    +0.000 A 
ATOM     15  C   UNL     1       4.111   7.199  17.194  0.00  0.00    +0.000 A 
ATOM     16  H   UNL     1       1.036   7.869  20.329  0.00  0.00    +0.000 HD
BRANCH   7  18
ATOM     17  N   UNL     1       6.626   6.143  16.273  0.00  0.00    +0.000 NA
ATOM     18  C   UNL     1       5.833   5.406  16.979  0.00  0.00    +0.000 C 
ATOM     19  N   UNL     1       6.019   4.055  17.040  0.00  0.00    +0.000 N 
ATOM     20  H   UNL     1       7.370   5.568  15.877  0.00  0.00    +0.000 HD
ATOM     21  H   UNL     1       6.566   3.652  16.290  0.00  0.00    +0.000 HD
ATOM     22  H   UNL     1       5.185   3.507  17.230  0.00  0.00    +0.000 HD
ENDBRANCH   7  18
ENDBRANCH   1  12
BRANCH   5  23
ATOM     23  C   UNL     1      -0.818  12.793  21.075  0.00  0.00    +0.000 A 
ATOM     24  C   UNL     1      -0.377  14.120  20.902  0.00  0.00    +0.000 A 
ATOM     25  C   UNL     1      -0.408  15.046  21.951  0.00  0.00    +0.000 A 
ATOM     26  C   UNL     1      -0.923  14.686  23.191  0.00  0.00    +0.000 A 
ATOM     27  C   UNL     1      -1.386  13.393  23.388  0.00  0.00    +0.000 A 
ATOM     28  C   UNL     1      -1.303  12.463  22.352  0.00  0.00    +0.000 A 
ATOM     29  F   UNL     1      -1.735  11.219  22.610  0.00  0.00    +0.000 F 
ENDBRANCH   5  23
BRANCH   6  30
ATOM     30  O   UNL     1       1.209  10.594  20.815  0.00  0.00    +0.000 OA
ATOM     31  H   UNL     1       2.017  10.235  20.410  0.00  0.00    +0.000 HD
ENDBRANCH   6  30
BRANCH   3  32
ATOM     32  C   UNL     1      -2.857  10.991  16.822  0.00  0.00    +0.000 C 
BRANCH  32  33
ATOM     33  C   UNL     1      -4.248  11.307  17.358  0.00  0.00    +0.000 C 
ATOM     34  O   UNL     1      -4.843  10.557  18.132  0.00  0.00    +0.000 OA
BRANCH  33  35
ATOM     35  O   UNL     1      -4.822  12.437  16.900  0.00  0.00    +0.000 OA
ATOM     36  H   UNL     1      -5.069  13.086  17.589  0.00  0.00    +0.000 HD
ENDBRANCH  33  35
ENDBRANCH  32  33
BRANCH  32  37
ATOM     37  C   UNL     1      -2.927   9.683  16.011  0.00  0.00    +0.000 C 
BRANCH  37  38
ATOM     38  C   UNL     1      -3.261   9.887  14.549  0.00  0.00    +0.000 C 
ATOM     39  O   UNL     1      -2.428   9.921  13.665  0.00  0.00    +0.000 OA
BRANCH  38  40
ATOM     40  O   UNL     1      -4.582  10.019  14.297  0.00  0.00    +0.000 OA
ATOM     41  H   UNL     1      -4.983  10.867  14.598  0.00  0.00    +0.000 HD
ENDBRANCH  38  40
ENDBRANCH  37  38
ENDBRANCH  32  37
ENDBRANCH   3  32
TORSDOF 10
ENDMDL
