MODEL 1
REMARK VINA RESULT:      -7.9      0.000      0.000
REMARK  Name = 
REMARK  13 active torsions:
REMARK  status: ('A' for Active; 'I' for Inactive)
REMARK    1  A    between atoms: C_1  and  O_2
REMARK    2  A    between atoms: O_2  and  C_3
REMARK    3  A    between atoms: C_7  and  C_8
REMARK    4  A    between atoms: C_11  and  O_12
REMARK    5  A    between atoms: O_12  and  C_13
REMARK    6  A    between atoms: C_13  and  C_14
REMARK    7  A    between atoms: C_14  and  C_15
REMARK    8  A    between atoms: C_15  and  N_16
REMARK    9  A    between atoms: N_19  and  C_20
REMARK   10  A    between atoms: C_29  and  O_30
REMARK   11  A    between atoms: O_30  and  C_31
REMARK   12  A    between atoms: C_32  and  O_33
REMARK   13  A    between atoms: O_33  and  C_34
REMARK                            x       y       z     vdW  Elec       q    Type
REMARK                         _______ _______ _______ _____ _____    ______ ____
ROOT
ATOM      1  C   UNL     1       2.691   4.126  20.298  0.00  0.00    +0.000 A 
ATOM      2  C   UNL     1       2.164   5.250  20.905  0.00  0.00    +0.000 A 
ATOM      3  C   UNL     1       2.103   6.449  20.204  0.00  0.00    +0.000 A 
ATOM      4  O   UNL     1       1.525   7.454  20.943  0.00  0.00    +0.000 OA
ATOM      5  C   UNL     1       1.229   8.627  20.309  0.00  0.00    +0.000 A 
ATOM      6  C   UNL     1       1.608   8.932  19.071  0.00  0.00    +0.000 A 
ATOM      7  C   UNL     1       2.424   7.965  18.319  0.00  0.00    +0.000 A 
ATOM      8  O   UNL     1       2.911   8.386  17.281  0.00  0.00    +0.000 OA
ATOM      9  C   UNL     1       2.582   6.586  18.884  0.00  0.00    +0.000 A 
ATOM     10  C   UNL     1       3.156   5.450  18.256  0.00  0.00    +0.000 A 
ATOM     11  C   UNL     1       3.215   4.217  18.989  0.00  0.00    +0.000 A 
ENDROOT
BRANCH   5  12
ATOM     12  C   UNL     1       0.380   9.529  21.076  0.00  0.00    +0.000 A 
ATOM     13  C   UNL     1       0.171   9.248  22.426  0.00  0.00    +0.000 A 
ATOM     14  C   UNL     1      -0.656  10.067  23.187  0.00  0.00    +0.000 A 
ATOM     15  C   UNL     1      -1.283  11.175  22.617  0.00  0.00    +0.000 A 
ATOM     16  C   UNL     1      -1.062  11.462  21.267  0.00  0.00    +0.000 A 
ATOM     17  C   UNL     1      -0.230  10.643  20.494  0.00  0.00    +0.000 A 
BRANCH  15  18
ATOM     18  O   UNL     1      -2.125  12.027  23.290  0.00  0.00    +0.000 OA
BRANCH  18  19
ATOM     19  C   UNL     1      -1.865  13.416  23.062  0.00  0.00    +0.000 C 
BRANCH  19  20
ATOM     20  C   UNL     1      -3.112  14.138  22.576  0.00  0.00    +0.000 C 
BRANCH  20  21
ATOM     21  C   UNL     1      -4.387  13.353  22.887  0.00  0.00    +0.000 C 
BRANCH  21  22
ATOM     22  N   UNL     1      -5.362  13.376  21.783  0.00  0.00    +0.000 NA
ATOM     23  C   UNL     1      -6.658  12.846  22.254  0.00  0.00    +0.000 C 
ATOM     24  C   UNL     1      -7.714  12.738  21.129  0.00  0.00    +0.000 C 
ATOM     25  N   UNL     1      -7.280  11.976  19.942  0.00  0.00    +0.000 NA
ATOM     26  C   UNL     1      -7.218  10.541  20.211  0.00  0.00    +0.000 C 
ATOM     27  C   UNL     1      -5.977  12.499  19.496  0.00  0.00    +0.000 C 
ATOM     28  C   UNL     1      -4.903  12.620  20.602  0.00  0.00    +0.000 C 
ENDBRANCH  21  22
ENDBRANCH  20  21
ENDBRANCH  19  20
ENDBRANCH  18  19
ENDBRANCH  15  18
ENDBRANCH   5  12
BRANCH   1  30
ATOM     29  C   UNL     1       1.572   2.503  21.613  0.00  0.00    +0.000 C 
ATOM     30  O   UNL     1       2.761   2.912  20.942  0.00  0.00    +0.000 OA
ENDBRANCH   1  30
BRANCH  10  31
ATOM     31  O   UNL     1       3.683   5.331  17.006  0.00  0.00    +0.000 OA
ATOM     32  C   UNL     1       4.998   5.650  16.613  0.00  0.00    +0.000 C 
ENDBRANCH  10  31
BRANCH  11  33
ATOM     33  O   UNL     1       3.740   3.013  18.563  0.00  0.00    +0.000 OA
ATOM     34  C   UNL     1       2.984   2.104  17.784  0.00  0.00    +0.000 C 
ENDBRANCH  11  33
TORSDOF 9
ENDMDL
MODEL 2
REMARK VINA RESULT:      -7.7      1.199      1.597
REMARK  Name = 
REMARK  13 active torsions:
REMARK  status: ('A' for Active; 'I' for Inactive)
REMARK    1  A    between atoms: C_1  and  O_2
REMARK    2  A    between atoms: O_2  and  C_3
REMARK    3  A    between atoms: C_7  and  C_8
REMARK    4  A    between atoms: C_11  and  O_12
REMARK    5  A    between atoms: O_12  and  C_13
REMARK    6  A    between atoms: C_13  and  C_14
REMARK    7  A    between atoms: C_14  and  C_15
REMARK    8  A    between atoms: C_15  and  N_16
REMARK    9  A    between atoms: N_19  and  C_20
REMARK   10  A    between atoms: C_29  and  O_30
REMARK   11  A    between atoms: O_30  and  C_31
REMARK   12  A    between atoms: C_32  and  O_33
REMARK   13  A    between atoms: O_33  and  C_34
REMARK                            x       y       z     vdW  Elec       q    Type
REMARK                         _______ _______ _______ _____ _____    ______ ____
ROOT
ATOM      1  C   UNL     1       2.808   4.067  20.379  0.00  0.00    +0.000 A 
ATOM      2  C   UNL     1       2.245   5.265  20.774  0.00  0.00    +0.000 A 
ATOM      3  C   UNL     1       2.294   6.365  19.925  0.00  0.00    +0.000 A 
ATOM      4  O   UNL     1       1.663   7.462  20.459  0.00  0.00    +0.000 OA
ATOM      5  C   UNL     1       1.470   8.548  19.652  0.00  0.00    +0.000 A 
ATOM      6  C   UNL     1       1.994   8.686  18.437  0.00  0.00    +0.000 A 
ATOM      7  C   UNL     1       2.863   7.622  17.912  0.00  0.00    +0.000 A 
ATOM      8  O   UNL     1       3.474   7.900  16.892  0.00  0.00    +0.000 OA
ATOM      9  C   UNL     1       2.922   6.326  18.662  0.00  0.00    +0.000 A 
ATOM     10  C   UNL     1       3.533   5.111  18.253  0.00  0.00    +0.000 A 
ATOM     11  C   UNL     1       3.478   3.983  19.137  0.00  0.00    +0.000 A 
ENDROOT
BRANCH   5  12
ATOM     12  C   UNL     1       0.563   9.550  20.197  0.00  0.00    +0.000 A 
ATOM     13  C   UNL     1      -0.131  10.365  19.304  0.00  0.00    +0.000 A 
ATOM     14  C   UNL     1      -0.984  11.354  19.782  0.00  0.00    +0.000 A 
ATOM     15  C   UNL     1      -1.159  11.542  21.153  0.00  0.00    +0.000 A 
ATOM     16  C   UNL     1      -0.472  10.715  22.047  0.00  0.00    +0.000 A 
ATOM     17  C   UNL     1       0.388   9.717  21.573  0.00  0.00    +0.000 A 
BRANCH  15  18
ATOM     18  O   UNL     1      -1.969  12.500  21.713  0.00  0.00    +0.000 OA
BRANCH  18  19
ATOM     19  C   UNL     1      -1.977  12.507  23.143  0.00  0.00    +0.000 C 
BRANCH  19  20
ATOM     20  C   UNL     1      -3.385  12.333  23.689  0.00  0.00    +0.000 C 
BRANCH  20  21
ATOM     21  C   UNL     1      -3.964  13.648  24.211  0.00  0.00    +0.000 C 
BRANCH  21  22
ATOM     22  N   UNL     1      -5.360  13.869  23.795  0.00  0.00    +0.000 NA
ATOM     23  C   UNL     1      -6.165  12.669  24.100  0.00  0.00    +0.000 C 
ATOM     24  C   UNL     1      -7.625  12.775  23.600  0.00  0.00    +0.000 C 
ATOM     25  N   UNL     1      -7.769  13.106  22.169  0.00  0.00    +0.000 NA
ATOM     26  C   UNL     1      -7.412  11.977  21.313  0.00  0.00    +0.000 C 
ATOM     27  C   UNL     1      -6.944  14.291  21.874  0.00  0.00    +0.000 C 
ATOM     28  C   UNL     1      -5.480  14.212  22.364  0.00  0.00    +0.000 C 
ENDBRANCH  21  22
ENDBRANCH  20  21
ENDBRANCH  19  20
ENDBRANCH  18  19
ENDBRANCH  15  18
ENDBRANCH   5  12
BRANCH   1  30
ATOM     29  C   UNL     1       1.484   2.567  21.649  0.00  0.00    +0.000 C 
ATOM     30  O   UNL     1       2.774   2.945  21.175  0.00  0.00    +0.000 OA
ENDBRANCH   1  30
BRANCH  10  31
ATOM     31  O   UNL     1       4.194   4.827  17.097  0.00  0.00    +0.000 OA
ATOM     32  C   UNL     1       5.565   5.027  16.840  0.00  0.00    +0.000 C 
ENDBRANCH  10  31
BRANCH  11  33
ATOM     33  O   UNL     1       4.016   2.728  18.931  0.00  0.00    +0.000 OA
ATOM     34  C   UNL     1       3.333   1.738  18.184  0.00  0.00    +0.000 C 
ENDBRANCH  11  33
TORSDOF 9
ENDMDL
MODEL 3
REMARK VINA RESULT:      -7.6      0.983      1.670
REMARK  Name = 
REMARK  13 active torsions:
REMARK  status: ('A' for Active; 'I' for Inactive)
REMARK    1  A    between atoms: C_1  and  O_2
REMARK    2  A    between atoms: O_2  and  C_3
REMARK    3  A    between atoms: C_7  and  C_8
REMARK    4  A    between atoms: C_11  and  O_12
REMARK    5  A    between atoms: O_12  and  C_13
REMARK    6  A    between atoms: C_13  and  C_14
REMARK    7  A    between atoms: C_14  and  C_15
REMARK    8  A    between atoms: C_15  and  N_16
REMARK    9  A    between atoms: N_19  and  C_20
REMARK   10  A    between atoms: C_29  and  O_30
REMARK   11  A    between atoms: O_30  and  C_31
REMARK   12  A    between atoms: C_32  and  O_33
REMARK   13  A    between atoms: O_33  and  C_34
REMARK                            x       y       z     vdW  Elec       q    Type
REMARK                         _______ _______ _______ _____ _____    ______ ____
ROOT
ATOM      1  C   UNL     1       2.630   4.044  20.310  0.00  0.00    +0.000 A 
ATOM      2  C   UNL     1       2.131   5.176  20.925  0.00  0.00    +0.000 A 
ATOM      3  C   UNL     1       2.072   6.375  20.223  0.00  0.00    +0.000 A 
ATOM      4  O   UNL     1       1.524   7.389  20.972  0.00  0.00    +0.000 OA
ATOM      5  C   UNL     1       1.231   8.565  20.342  0.00  0.00    +0.000 A 
ATOM      6  C   UNL     1       1.588   8.862  19.095  0.00  0.00    +0.000 A 
ATOM      7  C   UNL     1       2.374   7.883  18.328  0.00  0.00    +0.000 A 
ATOM      8  O   UNL     1       2.845   8.295  17.280  0.00  0.00    +0.000 OA
ATOM      9  C   UNL     1       2.525   6.503  18.893  0.00  0.00    +0.000 A 
ATOM     10  C   UNL     1       3.070   5.357  18.255  0.00  0.00    +0.000 A 
ATOM     11  C   UNL     1       3.127   4.126  18.990  0.00  0.00    +0.000 A 
ENDROOT
BRANCH   5  12
ATOM     12  C   UNL     1       0.410   9.480  21.125  0.00  0.00    +0.000 A 
ATOM     13  C   UNL     1       0.072  10.709  20.560  0.00  0.00    +0.000 A 
ATOM     14  C   UNL     1      -0.685  11.623  21.285  0.00  0.00    +0.000 A 
ATOM     15  C   UNL     1      -1.116  11.326  22.578  0.00  0.00    +0.000 A 
ATOM     16  C   UNL     1      -0.787  10.087  23.138  0.00  0.00    +0.000 A 
ATOM     17  C   UNL     1      -0.026   9.161  22.414  0.00  0.00    +0.000 A 
BRANCH  15  18
ATOM     18  O   UNL     1      -1.854  12.172  23.369  0.00  0.00    +0.000 OA
BRANCH  18  19
ATOM     19  C   UNL     1      -3.223  12.309  22.974  0.00  0.00    +0.000 C 
BRANCH  19  20
ATOM     20  C   UNL     1      -3.531  13.733  22.539  0.00  0.00    +0.000 C 
BRANCH  20  21
ATOM     21  C   UNL     1      -4.624  13.781  21.470  0.00  0.00    +0.000 C 
BRANCH  21  22
ATOM     22  N   UNL     1      -4.680  12.560  20.647  0.00  0.00    +0.000 NA
ATOM     23  C   UNL     1      -3.896  12.757  19.410  0.00  0.00    +0.000 C 
ATOM     24  C   UNL     1      -3.985  11.558  18.438  0.00  0.00    +0.000 C 
ATOM     25  N   UNL     1      -5.357  11.148  18.083  0.00  0.00    +0.000 NA
ATOM     26  C   UNL     1      -5.993  12.105  17.180  0.00  0.00    +0.000 C 
ATOM     27  C   UNL     1      -6.134  10.976  19.323  0.00  0.00    +0.000 C 
ATOM     28  C   UNL     1      -6.061  12.160  20.315  0.00  0.00    +0.000 C 
ENDBRANCH  21  22
ENDBRANCH  20  21
ENDBRANCH  19  20
ENDBRANCH  18  19
ENDBRANCH  15  18
ENDBRANCH   5  12
BRANCH   1  30
ATOM     29  C   UNL     1       1.544   2.475  21.715  0.00  0.00    +0.000 C 
ATOM     30  O   UNL     1       2.696   2.831  20.954  0.00  0.00    +0.000 OA
ENDBRANCH   1  30
BRANCH  10  31
ATOM     31  O   UNL     1       3.569   5.229  16.995  0.00  0.00    +0.000 OA
ATOM     32  C   UNL     1       4.866   5.570  16.565  0.00  0.00    +0.000 C 
ENDBRANCH  10  31
BRANCH  11  33
ATOM     33  O   UNL     1       3.626   2.913  18.556  0.00  0.00    +0.000 OA
ATOM     34  C   UNL     1       2.948   2.131  17.591  0.00  0.00    +0.000 C 
ENDBRANCH  11  33
TORSDOF 9
ENDMDL
MODEL 4
REMARK VINA RESULT:      -7.6      1.455      2.217
REMARK  Name = 
REMARK  13 active torsions:
REMARK  status: ('A' for Active; 'I' for Inactive)
REMARK    1  A    between atoms: C_1  and  O_2
REMARK    2  A    between atoms: O_2  and  C_3
REMARK    3  A    between atoms: C_7  and  C_8
REMARK    4  A    between atoms: C_11  and  O_12
REMARK    5  A    between atoms: O_12  and  C_13
REMARK    6  A    between atoms: C_13  and  C_14
REMARK    7  A    between atoms: C_14  and  C_15
REMARK    8  A    between atoms: C_15  and  N_16
REMARK    9  A    between atoms: N_19  and  C_20
REMARK   10  A    between atoms: C_29  and  O_30
REMARK   11  A    between atoms: O_30  and  C_31
REMARK   12  A    between atoms: C_32  and  O_33
REMARK   13  A    between atoms: O_33  and  C_34
REMARK                            x       y       z     vdW  Elec       q    Type
REMARK                         _______ _______ _______ _____ _____    ______ ____
ROOT
ATOM      1  C   UNL     1       2.756   3.638  20.141  0.00  0.00    +0.000 A 
ATOM      2  C   UNL     1       2.192   4.867  20.425  0.00  0.00    +0.000 A 
ATOM      3  C   UNL     1       2.482   5.963  19.619  0.00  0.00    +0.000 A 
ATOM      4  O   UNL     1       1.816   7.095  20.024  0.00  0.00    +0.000 OA
ATOM      5  C   UNL     1       1.860   8.190  19.209  0.00  0.00    +0.000 A 
ATOM      6  C   UNL     1       2.635   8.299  18.134  0.00  0.00    +0.000 A 
ATOM      7  C   UNL     1       3.534   7.186  17.789  0.00  0.00    +0.000 A 
ATOM      8  O   UNL     1       4.361   7.430  16.924  0.00  0.00    +0.000 OA
ATOM      9  C   UNL     1       3.358   5.888  18.517  0.00  0.00    +0.000 A 
ATOM     10  C   UNL     1       3.972   4.640  18.229  0.00  0.00    +0.000 A 
ATOM     11  C   UNL     1       3.667   3.516  19.067  0.00  0.00    +0.000 A 
ENDROOT
BRANCH   5  12
ATOM     12  C   UNL     1       0.918   9.244  19.564  0.00  0.00    +0.000 A 
ATOM     13  C   UNL     1       0.705   9.509  20.917  0.00  0.00    +0.000 A 
ATOM     14  C   UNL     1      -0.208  10.486  21.299  0.00  0.00    +0.000 A 
ATOM     15  C   UNL     1      -0.918  11.212  20.343  0.00  0.00    +0.000 A 
ATOM     16  C   UNL     1      -0.693  10.954  18.986  0.00  0.00    +0.000 A 
ATOM     17  C   UNL     1       0.225   9.973  18.594  0.00  0.00    +0.000 A 
BRANCH  15  18
ATOM     18  O   UNL     1      -1.846  12.183  20.630  0.00  0.00    +0.000 OA
BRANCH  18  19
ATOM     19  C   UNL     1      -2.680  12.550  19.526  0.00  0.00    +0.000 C 
BRANCH  19  20
ATOM     20  C   UNL     1      -4.119  12.116  19.755  0.00  0.00    +0.000 C 
BRANCH  20  21
ATOM     21  C   UNL     1      -4.890  13.119  20.614  0.00  0.00    +0.000 C 
BRANCH  21  22
ATOM     22  N   UNL     1      -5.594  12.489  21.745  0.00  0.00    +0.000 NA
ATOM     23  C   UNL     1      -7.053  12.636  21.566  0.00  0.00    +0.000 C 
ATOM     24  C   UNL     1      -7.869  12.092  22.762  0.00  0.00    +0.000 C 
ATOM     25  N   UNL     1      -7.483  12.640  24.077  0.00  0.00    +0.000 NA
ATOM     26  C   UNL     1      -7.915  14.027  24.235  0.00  0.00    +0.000 C 
ATOM     27  C   UNL     1      -6.023  12.507  24.233  0.00  0.00    +0.000 C 
ATOM     28  C   UNL     1      -5.183  13.042  23.050  0.00  0.00    +0.000 C 
ENDBRANCH  21  22
ENDBRANCH  20  21
ENDBRANCH  19  20
ENDBRANCH  18  19
ENDBRANCH  15  18
ENDBRANCH   5  12
BRANCH   1  30
ATOM     29  C   UNL     1       1.706   2.740  22.066  0.00  0.00    +0.000 C 
ATOM     30  O   UNL     1       2.491   2.519  20.896  0.00  0.00    +0.000 OA
ENDBRANCH   1  30
BRANCH  10  31
ATOM     31  O   UNL     1       4.844   4.319  17.234  0.00  0.00    +0.000 OA
ATOM     32  C   UNL     1       6.240   4.511  17.244  0.00  0.00    +0.000 C 
ENDBRANCH  10  31
BRANCH  11  33
ATOM     33  O   UNL     1       4.163   2.232  18.962  0.00  0.00    +0.000 OA
ATOM     34  C   UNL     1       3.505   1.239  18.197  0.00  0.00    +0.000 C 
ENDBRANCH  11  33
TORSDOF 9
ENDMDL
MODEL 5
REMARK VINA RESULT:      -7.5      1.820      2.508
REMARK  Name = 
REMARK  13 active torsions:
REMARK  status: ('A' for Active; 'I' for Inactive)
REMARK    1  A    between atoms: C_1  and  O_2
REMARK    2  A    between atoms: O_2  and  C_3
REMARK    3  A    between atoms: C_7  and  C_8
REMARK    4  A    between atoms: C_11  and  O_12
REMARK    5  A    between atoms: O_12  and  C_13
REMARK    6  A    between atoms: C_13  and  C_14
REMARK    7  A    between atoms: C_14  and  C_15
REMARK    8  A    between atoms: C_15  and  N_16
REMARK    9  A    between atoms: N_19  and  C_20
REMARK   10  A    between atoms: C_29  and  O_30
REMARK   11  A    between atoms: O_30  and  C_31
REMARK   12  A    between atoms: C_32  and  O_33
REMARK   13  A    between atoms: O_33  and  C_34
REMARK                            x       y       z     vdW  Elec       q    Type
REMARK                         _______ _______ _______ _____ _____    ______ ____
ROOT
ATOM      1  C   UNL     1       3.010   3.709  20.400  0.00  0.00    +0.000 A 
ATOM      2  C   UNL     1       2.428   4.950  20.575  0.00  0.00    +0.000 A 
ATOM      3  C   UNL     1       2.696   5.973  19.672  0.00  0.00    +0.000 A 
ATOM      4  O   UNL     1       2.014   7.127  19.977  0.00  0.00    +0.000 OA
ATOM      5  C   UNL     1       2.038   8.145  19.067  0.00  0.00    +0.000 A 
ATOM      6  C   UNL     1       2.806   8.168  17.981  0.00  0.00    +0.000 A 
ATOM      7  C   UNL     1       3.720   7.042  17.733  0.00  0.00    +0.000 A 
ATOM      8  O   UNL     1       4.540   7.220  16.845  0.00  0.00    +0.000 OA
ATOM      9  C   UNL     1       3.569   5.813  18.576  0.00  0.00    +0.000 A 
ATOM     10  C   UNL     1       4.201   4.554  18.398  0.00  0.00    +0.000 A 
ATOM     11  C   UNL     1       3.917   3.505  19.336  0.00  0.00    +0.000 A 
ENDROOT
BRANCH   5  12
ATOM     12  C   UNL     1       1.080   9.212  19.331  0.00  0.00    +0.000 A 
ATOM     13  C   UNL     1       0.671   9.418  20.648  0.00  0.00    +0.000 A 
ATOM     14  C   UNL     1      -0.263  10.407  20.939  0.00  0.00    +0.000 A 
ATOM     15  C   UNL     1      -0.800  11.202  19.927  0.00  0.00    +0.000 A 
ATOM     16  C   UNL     1      -0.378  11.002  18.608  0.00  0.00    +0.000 A 
ATOM     17  C   UNL     1       0.563  10.010  18.307  0.00  0.00    +0.000 A 
BRANCH  15  18
ATOM     18  O   UNL     1      -1.735  12.189  20.122  0.00  0.00    +0.000 OA
BRANCH  18  19
ATOM     19  C   UNL     1      -1.241  13.518  19.930  0.00  0.00    +0.000 C 
BRANCH  19  20
ATOM     20  C   UNL     1      -1.496  14.384  21.153  0.00  0.00    +0.000 C 
BRANCH  20  21
ATOM     21  C   UNL     1      -1.379  13.587  22.454  0.00  0.00    +0.000 C 
BRANCH  21  22
ATOM     22  N   UNL     1      -2.545  13.755  23.340  0.00  0.00    +0.000 NA
ATOM     23  C   UNL     1      -3.153  12.436  23.616  0.00  0.00    +0.000 C 
ATOM     24  C   UNL     1      -4.447  12.530  24.457  0.00  0.00    +0.000 C 
ATOM     25  N   UNL     1      -5.477  13.436  23.912  0.00  0.00    +0.000 NA
ATOM     26  C   UNL     1      -6.123  12.873  22.728  0.00  0.00    +0.000 C 
ATOM     27  C   UNL     1      -4.853  14.739  23.621  0.00  0.00    +0.000 C 
ATOM     28  C   UNL     1      -3.556  14.674  22.782  0.00  0.00    +0.000 C 
ENDBRANCH  21  22
ENDBRANCH  20  21
ENDBRANCH  19  20
ENDBRANCH  18  19
ENDBRANCH  15  18
ENDBRANCH   5  12
BRANCH   1  30
ATOM     29  C   UNL     1       1.433   2.570  21.753  0.00  0.00    +0.000 C 
ATOM     30  O   UNL     1       2.766   2.660  21.255  0.00  0.00    +0.000 OA
ENDBRANCH   1  30
BRANCH  10  31
ATOM     31  O   UNL     1       5.074   4.157  17.431  0.00  0.00    +0.000 OA
ATOM     32  C   UNL     1       4.771   3.897  16.080  0.00  0.00    +0.000 C 
ENDBRANCH  10  31
BRANCH  11  33
ATOM     33  O   UNL     1       4.434   2.225  19.344  0.00  0.00    +0.000 OA
ATOM     34  C   UNL     1       3.858   1.184  18.575  0.00  0.00    +0.000 C 
ENDBRANCH  11  33
TORSDOF 9
ENDMDL
MODEL 6
REMARK VINA RESULT:      -7.4      2.154      3.226
REMARK  Name = 
REMARK  13 active torsions:
REMARK  status: ('A' for Active; 'I' for Inactive)
REMARK    1  A    between atoms: C_1  and  O_2
REMARK    2  A    between atoms: O_2  and  C_3
REMARK    3  A    between atoms: C_7  and  C_8
REMARK    4  A    between atoms: C_11  and  O_12
REMARK    5  A    between atoms: O_12  and  C_13
REMARK    6  A    between atoms: C_13  and  C_14
REMARK    7  A    between atoms: C_14  and  C_15
REMARK    8  A    between atoms: C_15  and  N_16
REMARK    9  A    between atoms: N_19  and  C_20
REMARK   10  A    between atoms: C_29  and  O_30
REMARK   11  A    between atoms: O_30  and  C_31
REMARK   12  A    between atoms: C_32  and  O_33
REMARK   13  A    between atoms: O_33  and  C_34
REMARK                            x       y       z     vdW  Elec       q    Type
REMARK                         _______ _______ _______ _____ _____    ______ ____
ROOT
ATOM      1  C   UNL     1       2.671   4.109  20.323  0.00  0.00    +0.000 A 
ATOM      2  C   UNL     1       2.158   5.244  20.919  0.00  0.00    +0.000 A 
ATOM      3  C   UNL     1       2.109   6.437  20.206  0.00  0.00    +0.000 A 
ATOM      4  O   UNL     1       1.543   7.455  20.936  0.00  0.00    +0.000 OA
ATOM      5  C   UNL     1       1.259   8.625  20.290  0.00  0.00    +0.000 A 
ATOM      6  C   UNL     1       1.638   8.913  19.049  0.00  0.00    +0.000 A 
ATOM      7  C   UNL     1       2.441   7.930  18.305  0.00  0.00    +0.000 A 
ATOM      8  O   UNL     1       2.930   8.335  17.262  0.00  0.00    +0.000 OA
ATOM      9  C   UNL     1       2.586   6.555  18.884  0.00  0.00    +0.000 A 
ATOM     10  C   UNL     1       3.146   5.406  18.266  0.00  0.00    +0.000 A 
ATOM     11  C   UNL     1       3.193   4.181  19.011  0.00  0.00    +0.000 A 
ENDROOT
BRANCH   5  12
ATOM     12  C   UNL     1       0.421   9.544  21.051  0.00  0.00    +0.000 A 
ATOM     13  C   UNL     1       0.189   9.264  22.397  0.00  0.00    +0.000 A 
ATOM     14  C   UNL     1      -0.628  10.099  23.151  0.00  0.00    +0.000 A 
ATOM     15  C   UNL     1      -1.222  11.223  22.577  0.00  0.00    +0.000 A 
ATOM     16  C   UNL     1      -0.977  11.510  21.230  0.00  0.00    +0.000 A 
ATOM     17  C   UNL     1      -0.155  10.675  20.465  0.00  0.00    +0.000 A 
BRANCH  15  18
ATOM     18  O   UNL     1      -2.052  12.093  23.242  0.00  0.00    +0.000 OA
BRANCH  18  19
ATOM     19  C   UNL     1      -3.242  12.440  22.526  0.00  0.00    +0.000 C 
BRANCH  19  20
ATOM     20  C   UNL     1      -3.399  13.948  22.415  0.00  0.00    +0.000 C 
BRANCH  20  21
ATOM     21  C   UNL     1      -2.314  14.696  23.191  0.00  0.00    +0.000 C 
BRANCH  21  22
ATOM     22  N   UNL     1      -1.405  15.460  22.319  0.00  0.00    +0.000 NA
ATOM     23  C   UNL     1      -1.980  15.553  20.961  0.00  0.00    +0.000 C 
ATOM     24  C   UNL     1      -1.040  16.252  19.951  0.00  0.00    +0.000 C 
ATOM     25  N   UNL     1       0.317  15.678  19.865  0.00  0.00    +0.000 NA
ATOM     26  C   UNL     1       0.317  14.386  19.182  0.00  0.00    +0.000 C 
ATOM     27  C   UNL     1       0.870  15.570  21.227  0.00  0.00    +0.000 C 
ATOM     28  C   UNL     1      -0.050  14.877  22.258  0.00  0.00    +0.000 C 
ENDBRANCH  21  22
ENDBRANCH  20  21
ENDBRANCH  19  20
ENDBRANCH  18  19
ENDBRANCH  15  18
ENDBRANCH   5  12
BRANCH   1  30
ATOM     29  C   UNL     1       1.547   2.525  21.680  0.00  0.00    +0.000 C 
ATOM     30  O   UNL     1       2.729   2.901  20.978  0.00  0.00    +0.000 OA
ENDBRANCH   1  30
BRANCH  10  31
ATOM     31  O   UNL     1       3.669   5.269  17.016  0.00  0.00    +0.000 OA
ATOM     32  C   UNL     1       4.988   5.561  16.619  0.00  0.00    +0.000 C 
ENDBRANCH  10  31
BRANCH  11  33
ATOM     33  O   UNL     1       3.704   2.967  18.597  0.00  0.00    +0.000 OA
ATOM     34  C   UNL     1       2.934   2.056  17.833  0.00  0.00    +0.000 C 
ENDBRANCH  11  33
TORSDOF 9
ENDMDL
MODEL 7
REMARK VINA RESULT:      -7.4      3.463      4.753
REMARK  Name = 
REMARK  13 active torsions:
REMARK  status: ('A' for Active; 'I' for Inactive)
REMARK    1  A    between atoms: C_1  and  O_2
REMARK    2  A    between atoms: O_2  and  C_3
REMARK    3  A    between atoms: C_7  and  C_8
REMARK    4  A    between atoms: C_11  and  O_12
REMARK    5  A    between atoms: O_12  and  C_13
REMARK    6  A    between atoms: C_13  and  C_14
REMARK    7  A    between atoms: C_14  and  C_15
REMARK    8  A    between atoms: C_15  and  N_16
REMARK    9  A    between atoms: N_19  and  C_20
REMARK   10  A    between atoms: C_29  and  O_30
REMARK   11  A    between atoms: O_30  and  C_31
REMARK   12  A    between atoms: C_32  and  O_33
REMARK   13  A    between atoms: O_33  and  C_34
REMARK                            x       y       z     vdW  Elec       q    Type
REMARK                         _______ _______ _______ _____ _____    ______ ____
ROOT
ATOM      1  C   UNL     1       2.927   3.801  20.416  0.00  0.00    +0.000 A 
ATOM      2  C   UNL     1       2.348   5.035  20.642  0.00  0.00    +0.000 A 
ATOM      3  C   UNL     1       2.554   6.071  19.738  0.00  0.00    +0.000 A 
ATOM      4  O   UNL     1       1.884   7.215  20.098  0.00  0.00    +0.000 OA
ATOM      5  C   UNL     1       1.845   8.244  19.201  0.00  0.00    +0.000 A 
ATOM      6  C   UNL     1       2.546   8.287  18.071  0.00  0.00    +0.000 A 
ATOM      7  C   UNL     1       3.452   7.172  17.754  0.00  0.00    +0.000 A 
ATOM      8  O   UNL     1       4.215   7.366  16.821  0.00  0.00    +0.000 OA
ATOM      9  C   UNL     1       3.360   5.931  18.589  0.00  0.00    +0.000 A 
ATOM     10  C   UNL     1       3.989   4.679  18.357  0.00  0.00    +0.000 A 
ATOM     11  C   UNL     1       3.770   3.617  19.297  0.00  0.00    +0.000 A 
ENDROOT
BRANCH   5  12
ATOM     12  C   UNL     1       0.898   9.300  19.536  0.00  0.00    +0.000 A 
ATOM     13  C   UNL     1       0.402  10.093  18.501  0.00  0.00    +0.000 A 
ATOM     14  C   UNL     1      -0.481  11.130  18.781  0.00  0.00    +0.000 A 
ATOM     15  C   UNL     1      -0.884  11.390  20.091  0.00  0.00    +0.000 A 
ATOM     16  C   UNL     1      -0.396  10.585  21.126  0.00  0.00    +0.000 A 
ATOM     17  C   UNL     1       0.493   9.539  20.852  0.00  0.00    +0.000 A 
BRANCH  15  18
ATOM     18  O   UNL     1      -1.740  12.399  20.460  0.00  0.00    +0.000 OA
BRANCH  18  19
ATOM     19  C   UNL     1      -1.201  13.311  21.421  0.00  0.00    +0.000 C 
BRANCH  19  20
ATOM     20  C   UNL     1      -0.229  14.284  20.773  0.00  0.00    +0.000 C 
BRANCH  20  21
ATOM     21  C   UNL     1      -0.952  15.390  20.003  0.00  0.00    +0.000 C 
BRANCH  21  22
ATOM     22  N   UNL     1      -0.089  16.546  19.707  0.00  0.00    +0.000 NA
ATOM     23  C   UNL     1      -0.125  16.836  18.258  0.00  0.00    +0.000 C 
ATOM     24  C   UNL     1       0.836  17.974  17.843  0.00  0.00    +0.000 C 
ATOM     25  N   UNL     1       2.238  17.788  18.266  0.00  0.00    +0.000 NA
ATOM     26  C   UNL     1       2.906  16.750  17.484  0.00  0.00    +0.000 C 
ATOM     27  C   UNL     1       2.259  17.478  19.706  0.00  0.00    +0.000 C 
ATOM     28  C   UNL     1       1.305  16.344  20.150  0.00  0.00    +0.000 C 
ENDBRANCH  21  22
ENDBRANCH  20  21
ENDBRANCH  19  20
ENDBRANCH  18  19
ENDBRANCH  15  18
ENDBRANCH   5  12
BRANCH   1  30
ATOM     29  C   UNL     1       1.412   2.561  21.752  0.00  0.00    +0.000 C 
ATOM     30  O   UNL     1       2.742   2.739  21.271  0.00  0.00    +0.000 OA
ENDBRANCH   1  30
BRANCH  10  31
ATOM     31  O   UNL     1       4.805   4.301  17.335  0.00  0.00    +0.000 OA
ATOM     32  C   UNL     1       6.195   4.510  17.246  0.00  0.00    +0.000 C 
ENDBRANCH  10  31
BRANCH  11  33
ATOM     33  O   UNL     1       4.295   2.340  19.257  0.00  0.00    +0.000 OA
ATOM     34  C   UNL     1       3.722   1.323  18.456  0.00  0.00    +0.000 C 
ENDBRANCH  11  33
TORSDOF 9
ENDMDL
MODEL 8
REMARK VINA RESULT:      -7.3      3.555      4.915
REMARK  Name = 
REMARK  13 active torsions:
REMARK  status: ('A' for Active; 'I' for Inactive)
REMARK    1  A    between atoms: C_1  and  O_2
REMARK    2  A    between atoms: O_2  and  C_3
REMARK    3  A    between atoms: C_7  and  C_8
REMARK    4  A    between atoms: C_11  and  O_12
REMARK    5  A    between atoms: O_12  and  C_13
REMARK    6  A    between atoms: C_13  and  C_14
REMARK    7  A    between atoms: C_14  and  C_15
REMARK    8  A    between atoms: C_15  and  N_16
REMARK    9  A    between atoms: N_19  and  C_20
REMARK   10  A    between atoms: C_29  and  O_30
REMARK   11  A    between atoms: O_30  and  C_31
REMARK   12  A    between atoms: C_32  and  O_33
REMARK   13  A    between atoms: O_33  and  C_34
REMARK                            x       y       z     vdW  Elec       q    Type
REMARK                         _______ _______ _______ _____ _____    ______ ____
ROOT
ATOM      1  C   UNL     1       2.973   3.720  20.352  0.00  0.00    +0.000 A 
ATOM      2  C   UNL     1       2.413   4.965  20.565  0.00  0.00    +0.000 A 
ATOM      3  C   UNL     1       2.648   5.993  19.659  0.00  0.00    +0.000 A 
ATOM      4  O   UNL     1       1.992   7.151  20.006  0.00  0.00    +0.000 OA
ATOM      5  C   UNL     1       1.982   8.176  19.103  0.00  0.00    +0.000 A 
ATOM      6  C   UNL     1       2.698   8.202  17.983  0.00  0.00    +0.000 A 
ATOM      7  C   UNL     1       3.588   7.070  17.681  0.00  0.00    +0.000 A 
ATOM      8  O   UNL     1       4.366   7.247  16.756  0.00  0.00    +0.000 OA
ATOM      9  C   UNL     1       3.465   5.834  18.521  0.00  0.00    +0.000 A 
ATOM     10  C   UNL     1       4.076   4.571  18.302  0.00  0.00    +0.000 A 
ATOM     11  C   UNL     1       3.827   3.517  19.244  0.00  0.00    +0.000 A 
ENDROOT
BRANCH   5  12
ATOM     12  C   UNL     1       1.049   9.249  19.422  0.00  0.00    +0.000 A 
ATOM     13  C   UNL     1       0.532  10.007  18.371  0.00  0.00    +0.000 A 
ATOM     14  C   UNL     1      -0.339  11.059  18.635  0.00  0.00    +0.000 A 
ATOM     15  C   UNL     1      -0.708  11.369  19.943  0.00  0.00    +0.000 A 
ATOM     16  C   UNL     1      -0.199  10.600  20.995  0.00  0.00    +0.000 A 
ATOM     17  C   UNL     1       0.678   9.539  20.738  0.00  0.00    +0.000 A 
BRANCH  15  18
ATOM     18  O   UNL     1      -1.549  12.396  20.295  0.00  0.00    +0.000 OA
BRANCH  18  19
ATOM     19  C   UNL     1      -1.179  13.672  19.765  0.00  0.00    +0.000 C 
BRANCH  19  20
ATOM     20  C   UNL     1      -0.246  14.413  20.710  0.00  0.00    +0.000 C 
BRANCH  20  21
ATOM     21  C   UNL     1       1.225  14.172  20.368  0.00  0.00    +0.000 C 
BRANCH  21  22
ATOM     22  N   UNL     1       1.923  15.394  19.931  0.00  0.00    +0.000 NA
ATOM     23  C   UNL     1       1.099  16.578  20.250  0.00  0.00    +0.000 C 
ATOM     24  C   UNL     1       1.710  17.900  19.731  0.00  0.00    +0.000 C 
ATOM     25  N   UNL     1       2.037  17.910  18.292  0.00  0.00    +0.000 NA
ATOM     26  C   UNL     1       0.836  17.980  17.464  0.00  0.00    +0.000 C 
ATOM     27  C   UNL     1       2.840  16.714  17.983  0.00  0.00    +0.000 C 
ATOM     28  C   UNL     1       2.253  15.377  18.492  0.00  0.00    +0.000 C 
ENDBRANCH  21  22
ENDBRANCH  20  21
ENDBRANCH  19  20
ENDBRANCH  18  19
ENDBRANCH  15  18
ENDBRANCH   5  12
BRANCH   1  30
ATOM     29  C   UNL     1       1.468   2.612  21.809  0.00  0.00    +0.000 C 
ATOM     30  O   UNL     1       2.760   2.665  21.209  0.00  0.00    +0.000 OA
ENDBRANCH   1  30
BRANCH  10  31
ATOM     31  O   UNL     1       4.897   4.174  17.291  0.00  0.00    +0.000 OA
ATOM     32  C   UNL     1       6.256   4.509  17.131  0.00  0.00    +0.000 C 
ENDBRANCH  10  31
BRANCH  11  33
ATOM     33  O   UNL     1       4.330   2.231  19.216  0.00  0.00    +0.000 OA
ATOM     34  C   UNL     1       3.755   1.223  18.406  0.00  0.00    +0.000 C 
ENDBRANCH  11  33
TORSDOF 9
ENDMDL
MODEL 9
REMARK VINA RESULT:      -7.3      4.648     11.198
REMARK  Name = 
REMARK  13 active torsions:
REMARK  status: ('A' for Active; 'I' for Inactive)
REMARK    1  A    between atoms: C_1  and  O_2
REMARK    2  A    between atoms: O_2  and  C_3
REMARK    3  A    between atoms: C_7  and  C_8
REMARK    4  A    between atoms: C_11  and  O_12
REMARK    5  A    between atoms: O_12  and  C_13
REMARK    6  A    between atoms: C_13  and  C_14
REMARK    7  A    between atoms: C_14  and  C_15
REMARK    8  A    between atoms: C_15  and  N_16
REMARK    9  A    between atoms: N_19  and  C_20
REMARK   10  A    between atoms: C_29  and  O_30
REMARK   11  A    between atoms: O_30  and  C_31
REMARK   12  A    between atoms: C_32  and  O_33
REMARK   13  A    between atoms: O_33  and  C_34
REMARK                            x       y       z     vdW  Elec       q    Type
REMARK                         _______ _______ _______ _____ _____    ______ ____
ROOT
ATOM      1  C   UNL     1      -0.413  14.994  19.550  0.00  0.00    +0.000 A 
ATOM      2  C   UNL     1       0.295  13.834  19.304  0.00  0.00    +0.000 A 
ATOM      3  C   UNL     1       0.167  12.750  20.166  0.00  0.00    +0.000 A 
ATOM      4  O   UNL     1       0.915  11.671  19.758  0.00  0.00    +0.000 OA
ATOM      5  C   UNL     1       0.731  10.483  20.406  0.00  0.00    +0.000 A 
ATOM      6  C   UNL     1       0.004  10.329  21.509  0.00  0.00    +0.000 A 
ATOM      7  C   UNL     1      -0.638  11.510  22.108  0.00  0.00    +0.000 A 
ATOM      8  O   UNL     1      -1.110  11.342  23.221  0.00  0.00    +0.000 OA
ATOM      9  C   UNL     1      -0.649  12.783  21.316  0.00  0.00    +0.000 A 
ATOM     10  C   UNL     1      -1.360  13.978  21.603  0.00  0.00    +0.000 A 
ATOM     11  C   UNL     1      -1.220  15.091  20.707  0.00  0.00    +0.000 A 
ENDROOT
BRANCH   5  12
ATOM     12  C   UNL     1       1.346   9.337  19.747  0.00  0.00    +0.000 A 
ATOM     13  C   UNL     1       1.603   9.423  18.380  0.00  0.00    +0.000 A 
ATOM     14  C   UNL     1       2.162   8.341  17.707  0.00  0.00    +0.000 A 
ATOM     15  C   UNL     1       2.473   7.163  18.386  0.00  0.00    +0.000 A 
ATOM     16  C   UNL     1       2.226   7.083  19.760  0.00  0.00    +0.000 A 
ATOM     17  C   UNL     1       1.665   8.168  20.444  0.00  0.00    +0.000 A 
BRANCH  15  18
ATOM     18  O   UNL     1       3.013   6.044  17.800  0.00  0.00    +0.000 OA
BRANCH  18  19
ATOM     19  C   UNL     1       2.471   4.808  18.275  0.00  0.00    +0.000 C 
BRANCH  19  20
ATOM     20  C   UNL     1       3.440   3.658  18.050  0.00  0.00    +0.000 C 
BRANCH  20  21
ATOM     21  C   UNL     1       4.490   3.569  19.158  0.00  0.00    +0.000 C 
BRANCH  21  22
ATOM     22  N   UNL     1       5.824   4.021  18.725  0.00  0.00    +0.000 NA
ATOM     23  C   UNL     1       6.162   5.291  19.399  0.00  0.00    +0.000 C 
ATOM     24  C   UNL     1       7.505   5.892  18.923  0.00  0.00    +0.000 C 
ATOM     25  N   UNL     1       7.623   6.071  17.463  0.00  0.00    +0.000 NA
ATOM     26  C   UNL     1       6.799   7.179  16.985  0.00  0.00    +0.000 C 
ATOM     27  C   UNL     1       7.262   4.804  16.802  0.00  0.00    +0.000 C 
ATOM     28  C   UNL     1       5.924   4.180  17.261  0.00  0.00    +0.000 C 
ENDBRANCH  21  22
ENDBRANCH  20  21
ENDBRANCH  19  20
ENDBRANCH  18  19
ENDBRANCH  15  18
ENDBRANCH   5  12
BRANCH   1  30
ATOM     29  C   UNL     1       0.976  16.614  18.520  0.00  0.00    +0.000 C 
ATOM     30  O   UNL     1      -0.334  16.089  18.721  0.00  0.00    +0.000 OA
ENDBRANCH   1  30
BRANCH  10  31
ATOM     31  O   UNL     1      -2.199  14.254  22.639  0.00  0.00    +0.000 OA
ATOM     32  C   UNL     1      -1.827  14.609  23.950  0.00  0.00    +0.000 C 
ENDBRANCH  10  31
BRANCH  11  33
ATOM     33  O   UNL     1      -1.813  16.333  20.813  0.00  0.00    +0.000 OA
ATOM     34  C   UNL     1      -1.235  17.371  21.583  0.00  0.00    +0.000 C 
ENDBRANCH  11  33
TORSDOF 9
ENDMDL
