MODEL 1
REMARK VINA RESULT:      -7.4      0.000      0.000
REMARK  Name = 
REMARK  6 active torsions:
REMARK  status: ('A' for Active; 'I' for Inactive)
REMARK    1  A    between atoms: C_1  and  O_2
REMARK    2  A    between atoms: O_2  and  C_3
REMARK    3  A    between atoms: C_9  and  N_10
REMARK    4  A    between atoms: C_11  and  O_13
REMARK    5  A    between atoms: O_13  and  C_14
REMARK    6  A    between atoms: C_14  and  C_15
REMARK                            x       y       z     vdW  Elec       q    Type
REMARK                         _______ _______ _______ _____ _____    ______ ____
ROOT
ATOM      1  C   UNL     1       1.825   6.893  20.232  0.00  0.00    +0.000 A 
ATOM      2  O   UNL     1       2.054   7.850  19.212  0.00  0.00    +0.000 OA
ATOM      3  C   UNL     1       2.846   7.614  18.138  0.00  0.00    +0.000 A 
ATOM      4  O   UNL     1       3.058   8.473  17.292  0.00  0.00    +0.000 OA
ATOM      5  C   UNL     1       3.426   6.254  18.039  0.00  0.00    +0.000 A 
ATOM      6  C   UNL     1       4.224   5.968  16.923  0.00  0.00    +0.000 A 
ATOM      7  C   UNL     1       4.781   4.705  16.741  0.00  0.00    +0.000 A 
ATOM      8  C   UNL     1       4.512   3.717  17.686  0.00  0.00    +0.000 A 
ATOM      9  C   UNL     1       3.724   4.006  18.814  0.00  0.00    +0.000 A 
ATOM     10  C   UNL     1       3.181   5.285  19.012  0.00  0.00    +0.000 A 
ATOM     11  C   UNL     1       2.359   5.661  20.173  0.00  0.00    +0.000 A 
ATOM     12 CL   UNL     1       2.114   4.522  21.452  0.00  0.00    +0.000 Cl
ENDROOT
BRANCH   7  13
ATOM     13  N   UNL     1       5.590   4.383  15.635  0.00  0.00    +0.000 N 
ATOM     14  C   UNL     1       6.757   5.003  15.282  0.00  0.00    +0.000 C 
ATOM     15  O   UNL     1       7.341   5.901  15.872  0.00  0.00    +0.000 OA
ATOM     16  H   UNL     1       5.250   3.706  14.966  0.00  0.00    +0.000 HD
BRANCH  14  17
ATOM     17  O   UNL     1       7.166   4.550  14.068  0.00  0.00    +0.000 OA
BRANCH  17  18
ATOM     18  C   UNL     1       6.349   3.465  13.569  0.00  0.00    +0.000 C 
BRANCH  18  19
ATOM     19  C   UNL     1       6.311   3.400  12.016  0.00  0.00    +0.000 C 
ATOM     20 CL   UNL     1       7.077   1.914  11.335  0.00  0.00    +0.000 Cl
ATOM     21 CL   UNL     1       4.629   3.481  11.398  0.00  0.00    +0.000 Cl
ATOM     22 CL   UNL     1       7.214   4.802  11.333  0.00  0.00    +0.000 Cl
ENDBRANCH  18  19
ENDBRANCH  17  18
ENDBRANCH  14  17
ENDBRANCH   7  13
BRANCH   1  24
ATOM     23  C   UNL     1       0.935   8.670  21.490  0.00  0.00    +0.000 C 
ATOM     24  O   UNL     1       1.029   7.260  21.306  0.00  0.00    +0.000 OA
ENDBRANCH   1  24
TORSDOF 5
ENDMDL
MODEL 2
REMARK VINA RESULT:      -7.3      3.085      4.100
REMARK  Name = 
REMARK  6 active torsions:
REMARK  status: ('A' for Active; 'I' for Inactive)
REMARK    1  A    between atoms: C_1  and  O_2
REMARK    2  A    between atoms: O_2  and  C_3
REMARK    3  A    between atoms: C_9  and  N_10
REMARK    4  A    between atoms: C_11  and  O_13
REMARK    5  A    between atoms: O_13  and  C_14
REMARK    6  A    between atoms: C_14  and  C_15
REMARK                            x       y       z     vdW  Elec       q    Type
REMARK                         _______ _______ _______ _____ _____    ______ ____
ROOT
ATOM      1  C   UNL     1       0.326  10.578  20.182  0.00  0.00    +0.000 A 
ATOM      2  O   UNL     1       0.919  10.653  18.897  0.00  0.00    +0.000 OA
ATOM      3  C   UNL     1       1.649   9.648  18.357  0.00  0.00    +0.000 A 
ATOM      4  O   UNL     1       2.184   9.757  17.261  0.00  0.00    +0.000 OA
ATOM      5  C   UNL     1       1.749   8.407  19.160  0.00  0.00    +0.000 A 
ATOM      6  C   UNL     1       2.471   7.337  18.614  0.00  0.00    +0.000 A 
ATOM      7  C   UNL     1       2.586   6.126  19.293  0.00  0.00    +0.000 A 
ATOM      8  C   UNL     1       1.949   5.990  20.525  0.00  0.00    +0.000 A 
ATOM      9  C   UNL     1       1.237   7.068  21.081  0.00  0.00    +0.000 A 
ATOM     10  C   UNL     1       1.139   8.297  20.410  0.00  0.00    +0.000 A 
ATOM     11  C   UNL     1       0.422   9.469  20.936  0.00  0.00    +0.000 A 
ATOM     12 CL   UNL     1      -0.263   9.410  22.524  0.00  0.00    +0.000 Cl
ENDROOT
BRANCH   7  13
ATOM     13  N   UNL     1       3.306   5.031  18.777  0.00  0.00    +0.000 N 
ATOM     14  C   UNL     1       4.634   4.774  18.976  0.00  0.00    +0.000 C 
ATOM     15  O   UNL     1       5.427   5.399  19.667  0.00  0.00    +0.000 OA
ATOM     16  H   UNL     1       2.850   4.421  18.113  0.00  0.00    +0.000 HD
BRANCH  14  17
ATOM     17  O   UNL     1       5.022   3.740  18.186  0.00  0.00    +0.000 OA
BRANCH  17  18
ATOM     18  C   UNL     1       4.621   3.905  16.805  0.00  0.00    +0.000 C 
BRANCH  18  19
ATOM     19  C   UNL     1       5.664   4.690  15.961  0.00  0.00    +0.000 C 
ATOM     20 CL   UNL     1       7.306   4.744  16.709  0.00  0.00    +0.000 Cl
ATOM     21 CL   UNL     1       5.834   3.992  14.318  0.00  0.00    +0.000 Cl
ATOM     22 CL   UNL     1       5.126   6.399  15.778  0.00  0.00    +0.000 Cl
ENDBRANCH  18  19
ENDBRANCH  17  18
ENDBRANCH  14  17
ENDBRANCH   7  13
BRANCH   1  24
ATOM     23  C   UNL     1       0.483  12.750  21.070  0.00  0.00    +0.000 C 
ATOM     24  O   UNL     1      -0.366  11.684  20.650  0.00  0.00    +0.000 OA
ENDBRANCH   1  24
TORSDOF 5
ENDMDL
MODEL 3
REMARK VINA RESULT:      -7.2      0.094      1.053
REMARK  Name = 
REMARK  6 active torsions:
REMARK  status: ('A' for Active; 'I' for Inactive)
REMARK    1  A    between atoms: C_1  and  O_2
REMARK    2  A    between atoms: O_2  and  C_3
REMARK    3  A    between atoms: C_9  and  N_10
REMARK    4  A    between atoms: C_11  and  O_13
REMARK    5  A    between atoms: O_13  and  C_14
REMARK    6  A    between atoms: C_14  and  C_15
REMARK                            x       y       z     vdW  Elec       q    Type
REMARK                         _______ _______ _______ _____ _____    ______ ____
ROOT
ATOM      1  C   UNL     1       1.850   6.831  20.248  0.00  0.00    +0.000 A 
ATOM      2  O   UNL     1       2.090   7.794  19.237  0.00  0.00    +0.000 OA
ATOM      3  C   UNL     1       2.888   7.563  18.166  0.00  0.00    +0.000 A 
ATOM      4  O   UNL     1       3.109   8.428  17.329  0.00  0.00    +0.000 OA
ATOM      5  C   UNL     1       3.460   6.200  18.059  0.00  0.00    +0.000 A 
ATOM      6  C   UNL     1       4.263   5.920  16.945  0.00  0.00    +0.000 A 
ATOM      7  C   UNL     1       4.814   4.655  16.756  0.00  0.00    +0.000 A 
ATOM      8  C   UNL     1       4.534   3.660  17.690  0.00  0.00    +0.000 A 
ATOM      9  C   UNL     1       3.740   3.945  18.817  0.00  0.00    +0.000 A 
ATOM     10  C   UNL     1       3.203   5.225  19.022  0.00  0.00    +0.000 A 
ATOM     11  C   UNL     1       2.377   5.596  20.181  0.00  0.00    +0.000 A 
ATOM     12 CL   UNL     1       2.117   4.447  21.449  0.00  0.00    +0.000 Cl
ENDROOT
BRANCH   7  13
ATOM     13  N   UNL     1       5.628   4.338  15.652  0.00  0.00    +0.000 N 
ATOM     14  C   UNL     1       6.769   4.992  15.277  0.00  0.00    +0.000 C 
ATOM     15  O   UNL     1       7.323   5.925  15.842  0.00  0.00    +0.000 OA
ATOM     16  H   UNL     1       5.309   3.634  15.001  0.00  0.00    +0.000 HD
BRANCH  14  17
ATOM     17  O   UNL     1       7.187   4.527  14.071  0.00  0.00    +0.000 OA
BRANCH  17  18
ATOM     18  C   UNL     1       6.370   3.442  13.573  0.00  0.00    +0.000 C 
BRANCH  18  19
ATOM     19  C   UNL     1       6.262   3.427  12.022  0.00  0.00    +0.000 C 
ATOM     20 CL   UNL     1       4.564   3.482  11.414  0.00  0.00    +0.000 Cl
ATOM     21 CL   UNL     1       7.149   4.804  11.292  0.00  0.00    +0.000 Cl
ATOM     22 CL   UNL     1       6.988   1.907  11.383  0.00  0.00    +0.000 Cl
ENDBRANCH  18  19
ENDBRANCH  17  18
ENDBRANCH  14  17
ENDBRANCH   7  13
BRANCH   1  24
ATOM     23  C   UNL     1       0.672   8.567  21.311  0.00  0.00    +0.000 C 
ATOM     24  O   UNL     1       1.049   7.192  21.320  0.00  0.00    +0.000 OA
ENDBRANCH   1  24
TORSDOF 5
ENDMDL
MODEL 4
REMARK VINA RESULT:      -7.2      2.965      4.068
REMARK  Name = 
REMARK  6 active torsions:
REMARK  status: ('A' for Active; 'I' for Inactive)
REMARK    1  A    between atoms: C_1  and  O_2
REMARK    2  A    between atoms: O_2  and  C_3
REMARK    3  A    between atoms: C_9  and  N_10
REMARK    4  A    between atoms: C_11  and  O_13
REMARK    5  A    between atoms: O_13  and  C_14
REMARK    6  A    between atoms: C_14  and  C_15
REMARK                            x       y       z     vdW  Elec       q    Type
REMARK                         _______ _______ _______ _____ _____    ______ ____
ROOT
ATOM      1  C   UNL     1       0.236  10.399  20.265  0.00  0.00    +0.000 A 
ATOM      2  O   UNL     1       0.859  10.567  19.003  0.00  0.00    +0.000 OA
ATOM      3  C   UNL     1       1.644   9.622  18.431  0.00  0.00    +0.000 A 
ATOM      4  O   UNL     1       2.201   9.811  17.357  0.00  0.00    +0.000 OA
ATOM      5  C   UNL     1       1.773   8.344  19.170  0.00  0.00    +0.000 A 
ATOM      6  C   UNL     1       2.552   7.334  18.588  0.00  0.00    +0.000 A 
ATOM      7  C   UNL     1       2.700   6.095  19.205  0.00  0.00    +0.000 A 
ATOM      8  C   UNL     1       2.037   5.867  20.410  0.00  0.00    +0.000 A 
ATOM      9  C   UNL     1       1.268   6.885  21.002  0.00  0.00    +0.000 A 
ATOM     10  C   UNL     1       1.137   8.144  20.394  0.00  0.00    +0.000 A 
ATOM     11  C   UNL     1       0.359   9.256  20.962  0.00  0.00    +0.000 A 
ATOM     12 CL   UNL     1      -0.363   9.084  22.525  0.00  0.00    +0.000 Cl
ENDROOT
BRANCH   7  13
ATOM     13  N   UNL     1       3.477   5.059  18.653  0.00  0.00    +0.000 N 
ATOM     14  C   UNL     1       4.795   4.810  18.919  0.00  0.00    +0.000 C 
ATOM     15  O   UNL     1       5.527   5.390  19.708  0.00  0.00    +0.000 OA
ATOM     16  H   UNL     1       3.080   4.497  17.913  0.00  0.00    +0.000 HD
BRANCH  14  17
ATOM     17  O   UNL     1       5.257   3.851  18.076  0.00  0.00    +0.000 OA
BRANCH  17  18
ATOM     18  C   UNL     1       4.701   3.955  16.744  0.00  0.00    +0.000 C 
BRANCH  18  19
ATOM     19  C   UNL     1       5.564   4.831  15.794  0.00  0.00    +0.000 C 
ATOM     20 CL   UNL     1       5.080   6.570  15.774  0.00  0.00    +0.000 Cl
ATOM     21 CL   UNL     1       7.302   4.752  16.230  0.00  0.00    +0.000 Cl
ATOM     22 CL   UNL     1       5.395   4.231  14.103  0.00  0.00    +0.000 Cl
ENDBRANCH  18  19
ENDBRANCH  17  18
ENDBRANCH  14  17
ENDBRANCH   7  13
BRANCH   1  24
ATOM     23  C   UNL     1       0.279  12.474  21.371  0.00  0.00    +0.000 C 
ATOM     24  O   UNL     1      -0.511  11.450  20.772  0.00  0.00    +0.000 OA
ENDBRANCH   1  24
TORSDOF 5
ENDMDL
MODEL 5
REMARK VINA RESULT:      -7.2      0.151      1.075
REMARK  Name = 
REMARK  6 active torsions:
REMARK  status: ('A' for Active; 'I' for Inactive)
REMARK    1  A    between atoms: C_1  and  O_2
REMARK    2  A    between atoms: O_2  and  C_3
REMARK    3  A    between atoms: C_9  and  N_10
REMARK    4  A    between atoms: C_11  and  O_13
REMARK    5  A    between atoms: O_13  and  C_14
REMARK    6  A    between atoms: C_14  and  C_15
REMARK                            x       y       z     vdW  Elec       q    Type
REMARK                         _______ _______ _______ _____ _____    ______ ____
ROOT
ATOM      1  C   UNL     1       1.839   6.993  20.167  0.00  0.00    +0.000 A 
ATOM      2  O   UNL     1       2.068   7.925  19.125  0.00  0.00    +0.000 OA
ATOM      3  C   UNL     1       2.869   7.667  18.062  0.00  0.00    +0.000 A 
ATOM      4  O   UNL     1       3.080   8.507  17.196  0.00  0.00    +0.000 OA
ATOM      5  C   UNL     1       3.458   6.310  18.002  0.00  0.00    +0.000 A 
ATOM      6  C   UNL     1       4.265   6.002  16.898  0.00  0.00    +0.000 A 
ATOM      7  C   UNL     1       4.832   4.738  16.752  0.00  0.00    +0.000 A 
ATOM      8  C   UNL     1       4.564   3.772  17.719  0.00  0.00    +0.000 A 
ATOM      9  C   UNL     1       3.767   4.084  18.835  0.00  0.00    +0.000 A 
ATOM     10  C   UNL     1       3.213   5.364  18.997  0.00  0.00    +0.000 A 
ATOM     11  C   UNL     1       2.382   5.764  20.143  0.00  0.00    +0.000 A 
ATOM     12 CL   UNL     1       2.136   4.655  21.449  0.00  0.00    +0.000 Cl
ENDROOT
BRANCH   7  13
ATOM     13  N   UNL     1       5.651   4.394  15.659  0.00  0.00    +0.000 N 
ATOM     14  C   UNL     1       6.833   4.992  15.317  0.00  0.00    +0.000 C 
ATOM     15  O   UNL     1       7.424   5.885  15.908  0.00  0.00    +0.000 OA
ATOM     16  H   UNL     1       5.309   3.718  14.991  0.00  0.00    +0.000 HD
BRANCH  14  17
ATOM     17  O   UNL     1       7.250   4.522  14.113  0.00  0.00    +0.000 OA
BRANCH  17  18
ATOM     18  C   UNL     1       6.383   3.494  13.579  0.00  0.00    +0.000 C 
BRANCH  18  19
ATOM     19  C   UNL     1       6.361   3.468  12.025  0.00  0.00    +0.000 C 
ATOM     20 CL   UNL     1       7.135   4.911  11.266  0.00  0.00    +0.000 Cl
ATOM     21 CL   UNL     1       7.181   2.007  11.384  0.00  0.00    +0.000 Cl
ATOM     22 CL   UNL     1       4.655   3.436  11.448  0.00  0.00    +0.000 Cl
ENDBRANCH  18  19
ENDBRANCH  17  18
ENDBRANCH  14  17
ENDBRANCH   7  13
BRANCH   1  24
ATOM     23  C   UNL     1       1.394   8.642  21.786  0.00  0.00    +0.000 C 
ATOM     24  O   UNL     1       1.033   7.381  21.227  0.00  0.00    +0.000 OA
ENDBRANCH   1  24
TORSDOF 5
ENDMDL
MODEL 6
REMARK VINA RESULT:      -6.8      4.567      6.676
REMARK  Name = 
REMARK  6 active torsions:
REMARK  status: ('A' for Active; 'I' for Inactive)
REMARK    1  A    between atoms: C_1  and  O_2
REMARK    2  A    between atoms: O_2  and  C_3
REMARK    3  A    between atoms: C_9  and  N_10
REMARK    4  A    between atoms: C_11  and  O_13
REMARK    5  A    between atoms: O_13  and  C_14
REMARK    6  A    between atoms: C_14  and  C_15
REMARK                            x       y       z     vdW  Elec       q    Type
REMARK                         _______ _______ _______ _____ _____    ______ ____
ROOT
ATOM      1  C   UNL     1      -1.226  12.004  21.191  0.00  0.00    +0.000 A 
ATOM      2  O   UNL     1      -0.852  11.382  22.408  0.00  0.00    +0.000 OA
ATOM      3  C   UNL     1      -0.091  10.262  22.465  0.00  0.00    +0.000 A 
ATOM      4  O   UNL     1       0.184   9.724  23.530  0.00  0.00    +0.000 OA
ATOM      5  C   UNL     1       0.401   9.739  21.170  0.00  0.00    +0.000 A 
ATOM      6  C   UNL     1       1.218   8.600  21.198  0.00  0.00    +0.000 A 
ATOM      7  C   UNL     1       1.745   8.064  20.026  0.00  0.00    +0.000 A 
ATOM      8  C   UNL     1       1.461   8.696  18.818  0.00  0.00    +0.000 A 
ATOM      9  C   UNL     1       0.629   9.830  18.786  0.00  0.00    +0.000 A 
ATOM     10  C   UNL     1       0.077  10.359  19.963  0.00  0.00    +0.000 A 
ATOM     11  C   UNL     1      -0.809  11.532  20.003  0.00  0.00    +0.000 A 
ATOM     12 CL   UNL     1      -1.317  12.271  18.523  0.00  0.00    +0.000 Cl
ENDROOT
BRANCH   7  13
ATOM     13  N   UNL     1       2.565   6.919  20.016  0.00  0.00    +0.000 N 
ATOM     14  C   UNL     1       2.181   5.649  20.347  0.00  0.00    +0.000 C 
ATOM     15  O   UNL     1       1.066   5.256  20.658  0.00  0.00    +0.000 OA
ATOM     16  H   UNL     1       3.556   7.035  19.853  0.00  0.00    +0.000 HD
BRANCH  14  17
ATOM     17  O   UNL     1       3.272   4.841  20.395  0.00  0.00    +0.000 OA
BRANCH  17  18
ATOM     18  C   UNL     1       2.979   3.477  20.010  0.00  0.00    +0.000 C 
BRANCH  18  19
ATOM     19  C   UNL     1       3.360   3.170  18.534  0.00  0.00    +0.000 C 
ATOM     20 CL   UNL     1       3.584   1.411  18.196  0.00  0.00    +0.000 Cl
ATOM     21 CL   UNL     1       2.121   3.792  17.396  0.00  0.00    +0.000 Cl
ATOM     22 CL   UNL     1       4.922   3.973  18.136  0.00  0.00    +0.000 Cl
ENDBRANCH  18  19
ENDBRANCH  17  18
ENDBRANCH  14  17
ENDBRANCH   7  13
BRANCH   1  24
ATOM     23  C   UNL     1      -3.333  12.858  21.797  0.00  0.00    +0.000 C 
ATOM     24  O   UNL     1      -2.043  13.123  21.251  0.00  0.00    +0.000 OA
ENDBRANCH   1  24
TORSDOF 5
ENDMDL
MODEL 7
REMARK VINA RESULT:      -6.8      3.420      4.654
REMARK  Name = 
REMARK  6 active torsions:
REMARK  status: ('A' for Active; 'I' for Inactive)
REMARK    1  A    between atoms: C_1  and  O_2
REMARK    2  A    between atoms: O_2  and  C_3
REMARK    3  A    between atoms: C_9  and  N_10
REMARK    4  A    between atoms: C_11  and  O_13
REMARK    5  A    between atoms: O_13  and  C_14
REMARK    6  A    between atoms: C_14  and  C_15
REMARK                            x       y       z     vdW  Elec       q    Type
REMARK                         _______ _______ _______ _____ _____    ______ ____
ROOT
ATOM      1  C   UNL     1      -0.068  10.846  20.448  0.00  0.00    +0.000 A 
ATOM      2  O   UNL     1       0.534  11.031  19.180  0.00  0.00    +0.000 OA
ATOM      3  C   UNL     1       1.340  10.108  18.600  0.00  0.00    +0.000 A 
ATOM      4  O   UNL     1       1.880  10.312  17.520  0.00  0.00    +0.000 OA
ATOM      5  C   UNL     1       1.516   8.837  19.339  0.00  0.00    +0.000 A 
ATOM      6  C   UNL     1       2.318   7.849  18.751  0.00  0.00    +0.000 A 
ATOM      7  C   UNL     1       2.510   6.616  19.368  0.00  0.00    +0.000 A 
ATOM      8  C   UNL     1       1.868   6.371  20.580  0.00  0.00    +0.000 A 
ATOM      9  C   UNL     1       1.075   7.366  21.179  0.00  0.00    +0.000 A 
ATOM     10  C   UNL     1       0.900   8.619  20.571  0.00  0.00    +0.000 A 
ATOM     11  C   UNL     1       0.096   9.709  21.146  0.00  0.00    +0.000 A 
ATOM     12 CL   UNL     1      -0.603   9.519  22.718  0.00  0.00    +0.000 Cl
ENDROOT
BRANCH   7  13
ATOM     13  N   UNL     1       3.311   5.602  18.808  0.00  0.00    +0.000 N 
ATOM     14  C   UNL     1       2.888   4.614  17.963  0.00  0.00    +0.000 C 
ATOM     15  O   UNL     1       1.770   4.450  17.496  0.00  0.00    +0.000 OA
ATOM     16  H   UNL     1       4.267   5.511  19.123  0.00  0.00    +0.000 HD
BRANCH  14  17
ATOM     17  O   UNL     1       3.890   3.717  17.771  0.00  0.00    +0.000 OA
BRANCH  17  18
ATOM     18  C   UNL     1       5.175   4.203  18.226  0.00  0.00    +0.000 C 
BRANCH  18  19
ATOM     19  C   UNL     1       6.105   4.641  17.060  0.00  0.00    +0.000 C 
ATOM     20 CL   UNL     1       5.905   3.649  15.565  0.00  0.00    +0.000 Cl
ATOM     21 CL   UNL     1       5.834   6.358  16.616  0.00  0.00    +0.000 Cl
ATOM     22 CL   UNL     1       7.825   4.470  17.565  0.00  0.00    +0.000 Cl
ENDBRANCH  18  19
ENDBRANCH  17  18
ENDBRANCH  14  17
ENDBRANCH   7  13
BRANCH   1  24
ATOM     23  C   UNL     1      -0.074  12.939  21.523  0.00  0.00    +0.000 C 
ATOM     24  O   UNL     1      -0.841  11.876  20.962  0.00  0.00    +0.000 OA
ENDBRANCH   1  24
TORSDOF 5
ENDMDL
MODEL 8
REMARK VINA RESULT:      -6.8      3.178      4.280
REMARK  Name = 
REMARK  6 active torsions:
REMARK  status: ('A' for Active; 'I' for Inactive)
REMARK    1  A    between atoms: C_1  and  O_2
REMARK    2  A    between atoms: O_2  and  C_3
REMARK    3  A    between atoms: C_9  and  N_10
REMARK    4  A    between atoms: C_11  and  O_13
REMARK    5  A    between atoms: O_13  and  C_14
REMARK    6  A    between atoms: C_14  and  C_15
REMARK                            x       y       z     vdW  Elec       q    Type
REMARK                         _______ _______ _______ _____ _____    ______ ____
ROOT
ATOM      1  C   UNL     1      -0.043  10.670  20.381  0.00  0.00    +0.000 A 
ATOM      2  O   UNL     1       0.543  10.914  19.114  0.00  0.00    +0.000 OA
ATOM      3  C   UNL     1       1.392  10.048  18.510  0.00  0.00    +0.000 A 
ATOM      4  O   UNL     1       1.915  10.304  17.433  0.00  0.00    +0.000 OA
ATOM      5  C   UNL     1       1.637   8.771  19.219  0.00  0.00    +0.000 A 
ATOM      6  C   UNL     1       2.486   7.840  18.604  0.00  0.00    +0.000 A 
ATOM      7  C   UNL     1       2.743   6.604  19.191  0.00  0.00    +0.000 A 
ATOM      8  C   UNL     1       2.122   6.299  20.400  0.00  0.00    +0.000 A 
ATOM      9  C   UNL     1       1.282   7.237  21.026  0.00  0.00    +0.000 A 
ATOM     10  C   UNL     1       1.039   8.494  20.448  0.00  0.00    +0.000 A 
ATOM     11  C   UNL     1       0.183   9.527  21.051  0.00  0.00    +0.000 A 
ATOM     12 CL   UNL     1      -0.497   9.265  22.621  0.00  0.00    +0.000 Cl
ENDROOT
BRANCH   7  13
ATOM     13  N   UNL     1       3.593   5.646  18.605  0.00  0.00    +0.000 N 
ATOM     14  C   UNL     1       3.200   4.498  17.975  0.00  0.00    +0.000 C 
ATOM     15  O   UNL     1       2.061   4.111  17.755  0.00  0.00    +0.000 OA
ATOM     16  H   UNL     1       4.591   5.738  18.737  0.00  0.00    +0.000 HD
BRANCH  14  17
ATOM     17  O   UNL     1       4.289   3.736  17.696  0.00  0.00    +0.000 OA
BRANCH  17  18
ATOM     18  C   UNL     1       4.581   3.669  16.280  0.00  0.00    +0.000 C 
BRANCH  18  19
ATOM     19  C   UNL     1       5.803   4.539  15.872  0.00  0.00    +0.000 C 
ATOM     20 CL   UNL     1       7.132   4.539  17.094  0.00  0.00    +0.000 Cl
ATOM     21 CL   UNL     1       6.498   4.000  14.309  0.00  0.00    +0.000 Cl
ATOM     22 CL   UNL     1       5.283   6.253  15.678  0.00  0.00    +0.000 Cl
ENDBRANCH  18  19
ENDBRANCH  17  18
ENDBRANCH  14  17
ENDBRANCH   7  13
BRANCH   1  24
ATOM     23  C   UNL     1      -0.150  12.728  21.516  0.00  0.00    +0.000 C 
ATOM     24  O   UNL     1      -0.865  11.647  20.922  0.00  0.00    +0.000 OA
ENDBRANCH   1  24
TORSDOF 5
ENDMDL
MODEL 9
REMARK VINA RESULT:      -6.8      4.965      6.120
REMARK  Name = 
REMARK  6 active torsions:
REMARK  status: ('A' for Active; 'I' for Inactive)
REMARK    1  A    between atoms: C_1  and  O_2
REMARK    2  A    between atoms: O_2  and  C_3
REMARK    3  A    between atoms: C_9  and  N_10
REMARK    4  A    between atoms: C_11  and  O_13
REMARK    5  A    between atoms: O_13  and  C_14
REMARK    6  A    between atoms: C_14  and  C_15
REMARK                            x       y       z     vdW  Elec       q    Type
REMARK                         _______ _______ _______ _____ _____    ______ ____
ROOT
ATOM      1  C   UNL     1       2.263   3.549  18.296  0.00  0.00    +0.000 A 
ATOM      2  O   UNL     1       1.810   4.855  18.606  0.00  0.00    +0.000 OA
ATOM      3  C   UNL     1       2.586   5.959  18.478  0.00  0.00    +0.000 A 
ATOM      4  O   UNL     1       2.181   7.071  18.792  0.00  0.00    +0.000 OA
ATOM      5  C   UNL     1       3.943   5.744  17.924  0.00  0.00    +0.000 A 
ATOM      6  C   UNL     1       4.758   6.871  17.750  0.00  0.00    +0.000 A 
ATOM      7  C   UNL     1       6.035   6.757  17.207  0.00  0.00    +0.000 A 
ATOM      8  C   UNL     1       6.484   5.497  16.818  0.00  0.00    +0.000 A 
ATOM      9  C   UNL     1       5.673   4.363  17.006  0.00  0.00    +0.000 A 
ATOM     10  C   UNL     1       4.394   4.472  17.575  0.00  0.00    +0.000 A 
ATOM     11  C   UNL     1       3.498   3.330  17.812  0.00  0.00    +0.000 A 
ATOM     12 CL   UNL     1       4.055   1.723  17.487  0.00  0.00    +0.000 Cl
ENDROOT
BRANCH   7  13
ATOM     13  N   UNL     1       6.884   7.866  17.021  0.00  0.00    +0.000 N 
ATOM     14  C   UNL     1       7.945   8.211  17.810  0.00  0.00    +0.000 C 
ATOM     15  O   UNL     1       8.390   7.610  18.779  0.00  0.00    +0.000 OA
ATOM     16  H   UNL     1       6.647   8.543  16.308  0.00  0.00    +0.000 HD
BRANCH  14  17
ATOM     17  O   UNL     1       8.416   9.428  17.436  0.00  0.00    +0.000 OA
BRANCH  17  18
ATOM     18  C   UNL     1       9.120  10.111  18.501  0.00  0.00    +0.000 C 
BRANCH  18  19
ATOM     19  C   UNL     1       9.257  11.639  18.253  0.00  0.00    +0.000 C 
ATOM     20 CL   UNL     1      10.807  12.106  17.454  0.00  0.00    +0.000 Cl
ATOM     21 CL   UNL     1       7.912  12.262  17.243  0.00  0.00    +0.000 Cl
ATOM     22 CL   UNL     1       9.208  12.511  19.828  0.00  0.00    +0.000 Cl
ENDBRANCH  18  19
ENDBRANCH  17  18
ENDBRANCH  14  17
ENDBRANCH   7  13
BRANCH   1  24
ATOM     23  C   UNL     1       1.077   2.274  19.877  0.00  0.00    +0.000 C 
ATOM     24  O   UNL     1       1.395   2.488  18.504  0.00  0.00    +0.000 OA
ENDBRANCH   1  24
TORSDOF 5
ENDMDL
