MODEL 1
REMARK VINA RESULT:      -8.5      0.000      0.000
REMARK  Name = 
REMARK  5 active torsions:
REMARK  status: ('A' for Active; 'I' for Inactive)
REMARK    1  A    between atoms: C_1  and  C_2
REMARK    2  A    between atoms: C_2  and  S_3
REMARK    3  A    between atoms: S_3  and  C_4
REMARK    4  A    between atoms: C_7  and  C_8
REMARK    5  A    between atoms: C_10  and  C_11
REMARK                            x       y       z     vdW  Elec       q    Type
REMARK                         _______ _______ _______ _____ _____    ______ ____
ROOT
ATOM      1  C   UNL     1       4.307   5.339  17.271  0.00  0.00    +0.000 A 
ATOM      2  C   UNL     1       3.772   6.590  17.598  0.00  0.00    +0.000 A 
ATOM      3  C   UNL     1       2.661   6.685  18.419  0.00  0.00    +0.000 A 
ATOM      4  N   UNL     1       2.069   5.581  18.927  0.00  0.00    +0.000 NA
ATOM      5  C   UNL     1       2.561   4.368  18.625  0.00  0.00    +0.000 A 
ATOM      6  C   UNL     1       1.927   3.258  19.168  0.00  0.00    +0.000 A 
ATOM      7  C   UNL     1       2.364   1.956  18.919  0.00  0.00    +0.000 A 
ATOM      8  C   UNL     1       3.460   1.749  18.098  0.00  0.00    +0.000 A 
ATOM      9  C   UNL     1       4.112   2.845  17.536  0.00  0.00    +0.000 A 
ATOM     10  C   UNL     1       3.686   4.175  17.793  0.00  0.00    +0.000 A 
ENDROOT
BRANCH   3  11
ATOM     11  C   UNL     1       2.115   7.993  18.835  0.00  0.00    +0.000 A 
ATOM     12  C   UNL     1       1.640   8.213  20.142  0.00  0.00    +0.000 A 
ATOM     13  C   UNL     1       1.018   9.410  20.503  0.00  0.00    +0.000 A 
ATOM     14  C   UNL     1       0.878  10.429  19.565  0.00  0.00    +0.000 A 
ATOM     15  C   UNL     1       1.377  10.255  18.277  0.00  0.00    +0.000 A 
ATOM     16  C   UNL     1       1.995   9.053  17.917  0.00  0.00    +0.000 A 
ENDBRANCH   3  11
BRANCH   1  20
ATOM     17  C   UNL     1       6.606   4.920  14.649  0.00  0.00    +0.000 A 
ATOM     18  N   UNL     1       7.461   5.402  15.527  0.00  0.00    +0.000 NA
ATOM     19  N   UNL     1       6.747   5.650  16.679  0.00  0.00    +0.000 NA
ATOM     20  C   UNL     1       5.500   5.303  16.432  0.00  0.00    +0.000 A 
ATOM     21  O   UNL     1       5.338   4.841  15.151  0.00  0.00    +0.000 OA
BRANCH  17  22
ATOM     22  S   UNL     1       7.010   4.415  13.040  0.00  0.00    +0.000 S 
BRANCH  22  24
ATOM     23  C   UNL     1       5.888   2.409  11.556  0.00  0.00    +0.000 C 
ATOM     24  C   UNL     1       5.555   3.394  12.663  0.00  0.00    +0.000 C 
ENDBRANCH  22  24
ENDBRANCH  17  22
ENDBRANCH   1  20
TORSDOF 4
ENDMDL
MODEL 2
REMARK VINA RESULT:      -8.4      1.364      1.722
REMARK  Name = 
REMARK  5 active torsions:
REMARK  status: ('A' for Active; 'I' for Inactive)
REMARK    1  A    between atoms: C_1  and  C_2
REMARK    2  A    between atoms: C_2  and  S_3
REMARK    3  A    between atoms: S_3  and  C_4
REMARK    4  A    between atoms: C_7  and  C_8
REMARK    5  A    between atoms: C_10  and  C_11
REMARK                            x       y       z     vdW  Elec       q    Type
REMARK                         _______ _______ _______ _____ _____    ______ ____
ROOT
ATOM      1  C   UNL     1       4.401   5.265  18.560  0.00  0.00    +0.000 A 
ATOM      2  C   UNL     1       3.778   6.509  18.421  0.00  0.00    +0.000 A 
ATOM      3  C   UNL     1       2.654   6.819  19.169  0.00  0.00    +0.000 A 
ATOM      4  N   UNL     1       2.135   5.935  20.051  0.00  0.00    +0.000 NA
ATOM      5  C   UNL     1       2.713   4.732  20.200  0.00  0.00    +0.000 A 
ATOM      6  C   UNL     1       2.152   3.853  21.117  0.00  0.00    +0.000 A 
ATOM      7  C   UNL     1       2.681   2.582  21.348  0.00  0.00    +0.000 A 
ATOM      8  C   UNL     1       3.798   2.168  20.641  0.00  0.00    +0.000 A 
ATOM      9  C   UNL     1       4.377   3.029  19.711  0.00  0.00    +0.000 A 
ATOM     10  C   UNL     1       3.858   4.329  19.477  0.00  0.00    +0.000 A 
ENDROOT
BRANCH   3  11
ATOM     11  C   UNL     1       2.015   8.148  19.092  0.00  0.00    +0.000 A 
ATOM     12  C   UNL     1       2.187   8.986  17.974  0.00  0.00    +0.000 A 
ATOM     13  C   UNL     1       1.681  10.287  17.949  0.00  0.00    +0.000 A 
ATOM     14  C   UNL     1       0.966  10.773  19.040  0.00  0.00    +0.000 A 
ATOM     15  C   UNL     1       0.744   9.952  20.142  0.00  0.00    +0.000 A 
ATOM     16  C   UNL     1       1.257   8.651  20.166  0.00  0.00    +0.000 A 
ENDBRANCH   3  11
BRANCH   1  20
ATOM     17  C   UNL     1       6.742   4.823  15.978  0.00  0.00    +0.000 A 
ATOM     18  N   UNL     1       7.562   4.560  16.975  0.00  0.00    +0.000 NA
ATOM     19  N   UNL     1       6.826   4.681  18.133  0.00  0.00    +0.000 NA
ATOM     20  C   UNL     1       5.602   5.010  17.772  0.00  0.00    +0.000 A 
ATOM     21  O   UNL     1       5.482   5.129  16.411  0.00  0.00    +0.000 OA
BRANCH  17  22
ATOM     22  S   UNL     1       7.169   4.777  14.299  0.00  0.00    +0.000 S 
BRANCH  22  24
ATOM     23  C   UNL     1       6.114   3.319  12.238  0.00  0.00    +0.000 C 
ATOM     24  C   UNL     1       5.813   3.749  13.663  0.00  0.00    +0.000 C 
ENDBRANCH  22  24
ENDBRANCH  17  22
ENDBRANCH   1  20
TORSDOF 4
ENDMDL
MODEL 3
REMARK VINA RESULT:      -8.3      1.350      1.424
REMARK  Name = 
REMARK  5 active torsions:
REMARK  status: ('A' for Active; 'I' for Inactive)
REMARK    1  A    between atoms: C_1  and  C_2
REMARK    2  A    between atoms: C_2  and  S_3
REMARK    3  A    between atoms: S_3  and  C_4
REMARK    4  A    between atoms: C_7  and  C_8
REMARK    5  A    between atoms: C_10  and  C_11
REMARK                            x       y       z     vdW  Elec       q    Type
REMARK                         _______ _______ _______ _____ _____    ______ ____
ROOT
ATOM      1  C   UNL     1       4.353   5.338  18.596  0.00  0.00    +0.000 A 
ATOM      2  C   UNL     1       3.712   6.578  18.500  0.00  0.00    +0.000 A 
ATOM      3  C   UNL     1       2.590   6.849  19.265  0.00  0.00    +0.000 A 
ATOM      4  N   UNL     1       2.088   5.931  20.122  0.00  0.00    +0.000 NA
ATOM      5  C   UNL     1       2.684   4.731  20.228  0.00  0.00    +0.000 A 
ATOM      6  C   UNL     1       2.141   3.816  21.120  0.00  0.00    +0.000 A 
ATOM      7  C   UNL     1       2.688   2.545  21.308  0.00  0.00    +0.000 A 
ATOM      8  C   UNL     1       3.805   2.169  20.581  0.00  0.00    +0.000 A 
ATOM      9  C   UNL     1       4.367   3.067  19.675  0.00  0.00    +0.000 A 
ATOM     10  C   UNL     1       3.829   4.367  19.485  0.00  0.00    +0.000 A 
ENDROOT
BRANCH   3  11
ATOM     11  C   UNL     1       1.932   8.171  19.235  0.00  0.00    +0.000 A 
ATOM     12  C   UNL     1       1.214   8.663  20.342  0.00  0.00    +0.000 A 
ATOM     13  C   UNL     1       0.496   9.859  20.275  0.00  0.00    +0.000 A 
ATOM     14  C   UNL     1       0.499  10.604  19.099  0.00  0.00    +0.000 A 
ATOM     15  C   UNL     1       1.235  10.162  18.003  0.00  0.00    +0.000 A 
ATOM     16  C   UNL     1       1.949   8.962  18.071  0.00  0.00    +0.000 A 
ENDBRANCH   3  11
BRANCH   1  20
ATOM     17  C   UNL     1       6.661   4.905  15.982  0.00  0.00    +0.000 A 
ATOM     18  N   UNL     1       7.522   4.777  16.970  0.00  0.00    +0.000 NA
ATOM     19  N   UNL     1       6.807   4.920  18.139  0.00  0.00    +0.000 NA
ATOM     20  C   UNL     1       5.552   5.125  17.792  0.00  0.00    +0.000 A 
ATOM     21  O   UNL     1       5.391   5.139  16.430  0.00  0.00    +0.000 OA
BRANCH  17  22
ATOM     22  S   UNL     1       7.051   4.775  14.298  0.00  0.00    +0.000 S 
BRANCH  22  24
ATOM     23  C   UNL     1       5.851   3.315  12.320  0.00  0.00    +0.000 C 
ATOM     24  C   UNL     1       5.592   3.865  13.712  0.00  0.00    +0.000 C 
ENDBRANCH  22  24
ENDBRANCH  17  22
ENDBRANCH   1  20
TORSDOF 4
ENDMDL
MODEL 4
REMARK VINA RESULT:      -8.3      0.348      1.042
REMARK  Name = 
REMARK  5 active torsions:
REMARK  status: ('A' for Active; 'I' for Inactive)
REMARK    1  A    between atoms: C_1  and  C_2
REMARK    2  A    between atoms: C_2  and  S_3
REMARK    3  A    between atoms: S_3  and  C_4
REMARK    4  A    between atoms: C_7  and  C_8
REMARK    5  A    between atoms: C_10  and  C_11
REMARK                            x       y       z     vdW  Elec       q    Type
REMARK                         _______ _______ _______ _____ _____    ______ ____
ROOT
ATOM      1  C   UNL     1       4.263   5.430  17.288  0.00  0.00    +0.000 A 
ATOM      2  C   UNL     1       3.703   6.675  17.598  0.00  0.00    +0.000 A 
ATOM      3  C   UNL     1       2.560   6.755  18.377  0.00  0.00    +0.000 A 
ATOM      4  N   UNL     1       1.961   5.643  18.858  0.00  0.00    +0.000 NA
ATOM      5  C   UNL     1       2.477   4.437  18.570  0.00  0.00    +0.000 A 
ATOM      6  C   UNL     1       1.834   3.318  19.085  0.00  0.00    +0.000 A 
ATOM      7  C   UNL     1       2.294   2.022  18.848  0.00  0.00    +0.000 A 
ATOM      8  C   UNL     1       3.423   1.829  18.069  0.00  0.00    +0.000 A 
ATOM      9  C   UNL     1       4.084   2.934  17.537  0.00  0.00    +0.000 A 
ATOM     10  C   UNL     1       3.635   4.258  17.782  0.00  0.00    +0.000 A 
ENDROOT
BRANCH   3  11
ATOM     11  C   UNL     1       1.986   8.056  18.775  0.00  0.00    +0.000 A 
ATOM     12  C   UNL     1       1.954   9.151  17.890  0.00  0.00    +0.000 A 
ATOM     13  C   UNL     1       1.519  10.412  18.302  0.00  0.00    +0.000 A 
ATOM     14  C   UNL     1       1.081  10.602  19.610  0.00  0.00    +0.000 A 
ATOM     15  C   UNL     1       1.062   9.527  20.494  0.00  0.00    +0.000 A 
ATOM     16  C   UNL     1       1.503   8.266  20.080  0.00  0.00    +0.000 A 
ENDBRANCH   3  11
BRANCH   1  20
ATOM     17  C   UNL     1       6.654   5.108  14.734  0.00  0.00    +0.000 A 
ATOM     18  N   UNL     1       7.486   5.503  15.675  0.00  0.00    +0.000 NA
ATOM     19  N   UNL     1       6.733   5.700  16.812  0.00  0.00    +0.000 NA
ATOM     20  C   UNL     1       5.487   5.410  16.495  0.00  0.00    +0.000 A 
ATOM     21  O   UNL     1       5.364   5.037  15.181  0.00  0.00    +0.000 OA
BRANCH  17  22
ATOM     22  S   UNL     1       7.107   4.695  13.113  0.00  0.00    +0.000 S 
BRANCH  22  24
ATOM     23  C   UNL     1       5.020   3.457  11.849  0.00  0.00    +0.000 C 
ATOM     24  C   UNL     1       6.102   3.199  12.882  0.00  0.00    +0.000 C 
ENDBRANCH  22  24
ENDBRANCH  17  22
ENDBRANCH   1  20
TORSDOF 4
ENDMDL
MODEL 5
REMARK VINA RESULT:      -8.1      3.356      5.783
REMARK  Name = 
REMARK  5 active torsions:
REMARK  status: ('A' for Active; 'I' for Inactive)
REMARK    1  A    between atoms: C_1  and  C_2
REMARK    2  A    between atoms: C_2  and  S_3
REMARK    3  A    between atoms: S_3  and  C_4
REMARK    4  A    between atoms: C_7  and  C_8
REMARK    5  A    between atoms: C_10  and  C_11
REMARK                            x       y       z     vdW  Elec       q    Type
REMARK                         _______ _______ _______ _____ _____    ______ ____
ROOT
ATOM      1  C   UNL     1       6.030   5.774  17.233  0.00  0.00    +0.000 A 
ATOM      2  C   UNL     1       4.910   5.462  18.011  0.00  0.00    +0.000 A 
ATOM      3  C   UNL     1       3.946   4.589  17.535  0.00  0.00    +0.000 A 
ATOM      4  N   UNL     1       4.062   4.015  16.316  0.00  0.00    +0.000 NA
ATOM      5  C   UNL     1       5.126   4.303  15.548  0.00  0.00    +0.000 A 
ATOM      6  C   UNL     1       5.211   3.692  14.304  0.00  0.00    +0.000 A 
ATOM      7  C   UNL     1       6.279   3.920  13.434  0.00  0.00    +0.000 A 
ATOM      8  C   UNL     1       7.291   4.788  13.809  0.00  0.00    +0.000 A 
ATOM      9  C   UNL     1       7.228   5.418  15.050  0.00  0.00    +0.000 A 
ATOM     10  C   UNL     1       6.155   5.184  15.950  0.00  0.00    +0.000 A 
ENDROOT
BRANCH   3  11
ATOM     11  C   UNL     1       2.788   4.189  18.360  0.00  0.00    +0.000 A 
ATOM     12  C   UNL     1       2.435   4.895  19.527  0.00  0.00    +0.000 A 
ATOM     13  C   UNL     1       1.414   4.450  20.370  0.00  0.00    +0.000 A 
ATOM     14  C   UNL     1       0.704   3.297  20.050  0.00  0.00    +0.000 A 
ATOM     15  C   UNL     1       1.004   2.603  18.880  0.00  0.00    +0.000 A 
ATOM     16  C   UNL     1       2.030   3.048  18.041  0.00  0.00    +0.000 A 
ENDBRANCH   3  11
BRANCH   1  20
ATOM     17  C   UNL     1       8.073   8.519  18.032  0.00  0.00    +0.000 A 
ATOM     18  N   UNL     1       8.622   7.669  18.874  0.00  0.00    +0.000 NA
ATOM     19  N   UNL     1       7.948   6.476  18.727  0.00  0.00    +0.000 NA
ATOM     20  C   UNL     1       7.029   6.672  17.803  0.00  0.00    +0.000 A 
ATOM     21  O   UNL     1       7.046   7.957  17.326  0.00  0.00    +0.000 OA
BRANCH  17  22
ATOM     22  S   UNL     1       8.579  10.161  17.802  0.00  0.00    +0.000 S 
BRANCH  22  24
ATOM     23  C   UNL     1      10.589  11.341  19.235  0.00  0.00    +0.000 C 
ATOM     24  C   UNL     1       9.356  10.473  19.414  0.00  0.00    +0.000 C 
ENDBRANCH  22  24
ENDBRANCH  17  22
ENDBRANCH   1  20
TORSDOF 4
ENDMDL
MODEL 6
REMARK VINA RESULT:      -7.7      1.494      1.677
REMARK  Name = 
REMARK  5 active torsions:
REMARK  status: ('A' for Active; 'I' for Inactive)
REMARK    1  A    between atoms: C_1  and  C_2
REMARK    2  A    between atoms: C_2  and  S_3
REMARK    3  A    between atoms: S_3  and  C_4
REMARK    4  A    between atoms: C_7  and  C_8
REMARK    5  A    between atoms: C_10  and  C_11
REMARK                            x       y       z     vdW  Elec       q    Type
REMARK                         _______ _______ _______ _____ _____    ______ ____
ROOT
ATOM      1  C   UNL     1       3.805   5.835  18.455  0.00  0.00    +0.000 A 
ATOM      2  C   UNL     1       3.122   7.049  18.586  0.00  0.00    +0.000 A 
ATOM      3  C   UNL     1       2.161   7.211  19.571  0.00  0.00    +0.000 A 
ATOM      4  N   UNL     1       1.862   6.209  20.429  0.00  0.00    +0.000 NA
ATOM      5  C   UNL     1       2.501   5.032  20.319  0.00  0.00    +0.000 A 
ATOM      6  C   UNL     1       2.167   4.029  21.219  0.00  0.00    +0.000 A 
ATOM      7  C   UNL     1       2.777   2.773  21.193  0.00  0.00    +0.000 A 
ATOM      8  C   UNL     1       3.742   2.503  20.237  0.00  0.00    +0.000 A 
ATOM      9  C   UNL     1       4.092   3.491  19.319  0.00  0.00    +0.000 A 
ATOM     10  C   UNL     1       3.490   4.776  19.344  0.00  0.00    +0.000 A 
ENDROOT
BRANCH   3  11
ATOM     11  C   UNL     1       1.473   8.501  19.777  0.00  0.00    +0.000 A 
ATOM     12  C   UNL     1       0.915   8.850  21.023  0.00  0.00    +0.000 A 
ATOM     13  C   UNL     1       0.165  10.015  21.188  0.00  0.00    +0.000 A 
ATOM     14  C   UNL     1      -0.027  10.875  20.110  0.00  0.00    +0.000 A 
ATOM     15  C   UNL     1       0.549  10.577  18.878  0.00  0.00    +0.000 A 
ATOM     16  C   UNL     1       1.296   9.406  18.714  0.00  0.00    +0.000 A 
ENDBRANCH   3  11
BRANCH   1  20
ATOM     17  C   UNL     1       5.728   4.969  15.645  0.00  0.00    +0.000 A 
ATOM     18  N   UNL     1       6.547   5.888  16.114  0.00  0.00    +0.000 NA
ATOM     19  N   UNL     1       5.967   6.384  17.261  0.00  0.00    +0.000 NA
ATOM     20  C   UNL     1       4.831   5.737  17.422  0.00  0.00    +0.000 A 
ATOM     21  O   UNL     1       4.611   4.828  16.419  0.00  0.00    +0.000 OA
BRANCH  17  22
ATOM     22  S   UNL     1       6.010   4.015  14.226  0.00  0.00    +0.000 S 
BRANCH  22  24
ATOM     23  C   UNL     1       7.426   4.684  11.982  0.00  0.00    +0.000 C 
ATOM     24  C   UNL     1       7.356   4.973  13.472  0.00  0.00    +0.000 C 
ENDBRANCH  22  24
ENDBRANCH  17  22
ENDBRANCH   1  20
TORSDOF 4
ENDMDL
MODEL 7
REMARK VINA RESULT:      -7.7      3.023      6.683
REMARK  Name = 
REMARK  5 active torsions:
REMARK  status: ('A' for Active; 'I' for Inactive)
REMARK    1  A    between atoms: C_1  and  C_2
REMARK    2  A    between atoms: C_2  and  S_3
REMARK    3  A    between atoms: S_3  and  C_4
REMARK    4  A    between atoms: C_7  and  C_8
REMARK    5  A    between atoms: C_10  and  C_11
REMARK                            x       y       z     vdW  Elec       q    Type
REMARK                         _______ _______ _______ _____ _____    ______ ____
ROOT
ATOM      1  C   UNL     1       2.698   6.000  18.970  0.00  0.00    +0.000 A 
ATOM      2  C   UNL     1       3.665   6.062  17.960  0.00  0.00    +0.000 A 
ATOM      3  C   UNL     1       4.229   4.901  17.457  0.00  0.00    +0.000 A 
ATOM      4  N   UNL     1       3.862   3.686  17.921  0.00  0.00    +0.000 NA
ATOM      5  C   UNL     1       2.939   3.600  18.893  0.00  0.00    +0.000 A 
ATOM      6  C   UNL     1       2.586   2.334  19.342  0.00  0.00    +0.000 A 
ATOM      7  C   UNL     1       1.635   2.138  20.344  0.00  0.00    +0.000 A 
ATOM      8  C   UNL     1       1.019   3.235  20.924  0.00  0.00    +0.000 A 
ATOM      9  C   UNL     1       1.358   4.517  20.496  0.00  0.00    +0.000 A 
ATOM     10  C   UNL     1       2.314   4.729  19.468  0.00  0.00    +0.000 A 
ENDROOT
BRANCH   3  11
ATOM     11  C   UNL     1       5.202   4.932  16.346  0.00  0.00    +0.000 A 
ATOM     12  C   UNL     1       4.956   4.261  15.132  0.00  0.00    +0.000 A 
ATOM     13  C   UNL     1       5.923   4.193  14.126  0.00  0.00    +0.000 A 
ATOM     14  C   UNL     1       7.154   4.817  14.304  0.00  0.00    +0.000 A 
ATOM     15  C   UNL     1       7.408   5.523  15.477  0.00  0.00    +0.000 A 
ATOM     16  C   UNL     1       6.440   5.586  16.484  0.00  0.00    +0.000 A 
ENDBRANCH   3  11
BRANCH   1  20
ATOM     17  C   UNL     1       1.366   9.240  19.225  0.00  0.00    +0.000 A 
ATOM     18  N   UNL     1       1.258   8.930  20.500  0.00  0.00    +0.000 NA
ATOM     19  N   UNL     1       1.741   7.646  20.636  0.00  0.00    +0.000 NA
ATOM     20  C   UNL     1       2.114   7.253  19.434  0.00  0.00    +0.000 A 
ATOM     21  O   UNL     1       1.891   8.218  18.486  0.00  0.00    +0.000 OA
BRANCH  17  22
ATOM     22  S   UNL     1       0.922  10.766  18.531  0.00  0.00    +0.000 S 
BRANCH  22  24
ATOM     23  C   UNL     1      -1.573  10.136  17.602  0.00  0.00    +0.000 C 
ATOM     24  C   UNL     1      -0.872  10.724  18.813  0.00  0.00    +0.000 C 
ENDBRANCH  22  24
ENDBRANCH  17  22
ENDBRANCH   1  20
TORSDOF 4
ENDMDL
MODEL 8
REMARK VINA RESULT:      -7.7      3.261      7.094
REMARK  Name = 
REMARK  5 active torsions:
REMARK  status: ('A' for Active; 'I' for Inactive)
REMARK    1  A    between atoms: C_1  and  C_2
REMARK    2  A    between atoms: C_2  and  S_3
REMARK    3  A    between atoms: S_3  and  C_4
REMARK    4  A    between atoms: C_7  and  C_8
REMARK    5  A    between atoms: C_10  and  C_11
REMARK                            x       y       z     vdW  Elec       q    Type
REMARK                         _______ _______ _______ _____ _____    ______ ____
ROOT
ATOM      1  C   UNL     1       3.131   6.454  18.293  0.00  0.00    +0.000 A 
ATOM      2  C   UNL     1       4.006   6.268  17.217  0.00  0.00    +0.000 A 
ATOM      3  C   UNL     1       4.655   5.056  17.042  0.00  0.00    +0.000 A 
ATOM      4  N   UNL     1       4.458   4.027  17.896  0.00  0.00    +0.000 NA
ATOM      5  C   UNL     1       3.626   4.183  18.939  0.00  0.00    +0.000 A 
ATOM      6  C   UNL     1       3.449   3.102  19.793  0.00  0.00    +0.000 A 
ATOM      7  C   UNL     1       2.602   3.160  20.901  0.00  0.00    +0.000 A 
ATOM      8  C   UNL     1       1.916   4.332  21.174  0.00  0.00    +0.000 A 
ATOM      9  C   UNL     1       2.080   5.433  20.337  0.00  0.00    +0.000 A 
ATOM     10  C   UNL     1       2.927   5.382  19.198  0.00  0.00    +0.000 A 
ENDROOT
BRANCH   3  11
ATOM     11  C   UNL     1       5.531   4.809  15.879  0.00  0.00    +0.000 A 
ATOM     12  C   UNL     1       6.822   5.368  15.796  0.00  0.00    +0.000 A 
ATOM     13  C   UNL     1       7.605   5.231  14.648  0.00  0.00    +0.000 A 
ATOM     14  C   UNL     1       7.122   4.509  13.561  0.00  0.00    +0.000 A 
ATOM     15  C   UNL     1       5.867   3.910  13.632  0.00  0.00    +0.000 A 
ATOM     16  C   UNL     1       5.083   4.053  14.780  0.00  0.00    +0.000 A 
ENDBRANCH   3  11
BRANCH   1  20
ATOM     17  C   UNL     1       1.330   9.262  19.394  0.00  0.00    +0.000 A 
ATOM     18  N   UNL     1       1.553   9.693  18.171  0.00  0.00    +0.000 NA
ATOM     19  N   UNL     1       2.277   8.711  17.531  0.00  0.00    +0.000 NA
ATOM     20  C   UNL     1       2.450   7.740  18.405  0.00  0.00    +0.000 A 
ATOM     21  O   UNL     1       1.881   8.031  19.618  0.00  0.00    +0.000 OA
BRANCH  17  22
ATOM     22  S   UNL     1       0.428  10.117  20.603  0.00  0.00    +0.000 S 
BRANCH  22  24
ATOM     23  C   UNL     1      -0.046   9.533  23.233  0.00  0.00    +0.000 C 
ATOM     24  C   UNL     1       0.798   9.087  22.052  0.00  0.00    +0.000 C 
ENDBRANCH  22  24
ENDBRANCH  17  22
ENDBRANCH   1  20
TORSDOF 4
ENDMDL
MODEL 9
REMARK VINA RESULT:      -7.6      1.683      2.413
REMARK  Name = 
REMARK  5 active torsions:
REMARK  status: ('A' for Active; 'I' for Inactive)
REMARK    1  A    between atoms: C_1  and  C_2
REMARK    2  A    between atoms: C_2  and  S_3
REMARK    3  A    between atoms: S_3  and  C_4
REMARK    4  A    between atoms: C_7  and  C_8
REMARK    5  A    between atoms: C_10  and  C_11
REMARK                            x       y       z     vdW  Elec       q    Type
REMARK                         _______ _______ _______ _____ _____    ______ ____
ROOT
ATOM      1  C   UNL     1       3.318   6.111  18.743  0.00  0.00    +0.000 A 
ATOM      2  C   UNL     1       2.640   7.286  19.087  0.00  0.00    +0.000 A 
ATOM      3  C   UNL     1       1.781   7.307  20.175  0.00  0.00    +0.000 A 
ATOM      4  N   UNL     1       1.579   6.204  20.930  0.00  0.00    +0.000 NA
ATOM      5  C   UNL     1       2.216   5.063  20.616  0.00  0.00    +0.000 A 
ATOM      6  C   UNL     1       1.984   3.952  21.417  0.00  0.00    +0.000 A 
ATOM      7  C   UNL     1       2.600   2.722  21.178  0.00  0.00    +0.000 A 
ATOM      8  C   UNL     1       3.467   2.589  20.106  0.00  0.00    +0.000 A 
ATOM      9  C   UNL     1       3.713   3.687  19.285  0.00  0.00    +0.000 A 
ATOM     10  C   UNL     1       3.104   4.947  19.525  0.00  0.00    +0.000 A 
ENDROOT
BRANCH   3  11
ATOM     11  C   UNL     1       1.105   8.549  20.602  0.00  0.00    +0.000 A 
ATOM     12  C   UNL     1       0.907   9.624  19.714  0.00  0.00    +0.000 A 
ATOM     13  C   UNL     1       0.373  10.840  20.146  0.00  0.00    +0.000 A 
ATOM     14  C   UNL     1       0.002  11.000  21.477  0.00  0.00    +0.000 A 
ATOM     15  C   UNL     1       0.146   9.940  22.367  0.00  0.00    +0.000 A 
ATOM     16  C   UNL     1       0.686   8.725  21.933  0.00  0.00    +0.000 A 
ENDBRANCH   3  11
BRANCH   1  20
ATOM     17  C   UNL     1       5.811   5.451  16.358  0.00  0.00    +0.000 A 
ATOM     18  N   UNL     1       5.411   6.597  15.848  0.00  0.00    +0.000 NA
ATOM     19  N   UNL     1       4.393   7.055  16.656  0.00  0.00    +0.000 NA
ATOM     20  C   UNL     1       4.236   6.159  17.610  0.00  0.00    +0.000 A 
ATOM     21  O   UNL     1       5.101   5.104  17.473  0.00  0.00    +0.000 OA
BRANCH  17  22
ATOM     22  S   UNL     1       7.100   4.477  15.729  0.00  0.00    +0.000 S 
BRANCH  22  24
ATOM     23  C   UNL     1       6.070   3.724  13.309  0.00  0.00    +0.000 C 
ATOM     24  C   UNL     1       6.905   4.815  13.955  0.00  0.00    +0.000 C 
ENDBRANCH  22  24
ENDBRANCH  17  22
ENDBRANCH   1  20
TORSDOF 4
ENDMDL
