MODEL 1
REMARK VINA RESULT:      -8.2      0.000      0.000
REMARK  Name = 
REMARK  9 active torsions:
REMARK  status: ('A' for Active; 'I' for Inactive)
REMARK    1  A    between atoms: C_1  and  C_2
REMARK    2  A    between atoms: C_2  and  O_3
REMARK    3  A    between atoms: O_3  and  C_4
REMARK    4  A    between atoms: C_4  and  C_6
REMARK    5  A    between atoms: C_9  and  N_10
REMARK    6  A    between atoms: C_11  and  C_13
REMARK    7  A    between atoms: C_13  and  S_14
REMARK    8  A    between atoms: S_14  and  C_15
REMARK    9  A    between atoms: C_20  and  C_21
REMARK                            x       y       z     vdW  Elec       q    Type
REMARK                         _______ _______ _______ _____ _____    ______ ____
ROOT
ATOM      1  C   UNL     1       0.406   9.629  22.644  0.00  0.00    +0.000 C 
ENDROOT
BRANCH   1   3
ATOM      2  N   UNL     1       1.624   8.167  21.120  0.00  0.00    +0.000 N 
ATOM      3  C   UNL     1       0.389   8.447  21.680  0.00  0.00    +0.000 C 
ATOM      4  O   UNL     1      -0.655   7.852  21.430  0.00  0.00    +0.000 OA
ATOM      5  H   UNL     1       2.385   8.819  21.279  0.00  0.00    +0.000 HD
BRANCH   2   9
ATOM      6  C   UNL     1       2.674   4.978  18.523  0.00  0.00    +0.000 A 
ATOM      7  C   UNL     1       2.395   4.719  19.866  0.00  0.00    +0.000 A 
ATOM      8  C   UNL     1       2.034   5.760  20.728  0.00  0.00    +0.000 A 
ATOM      9  C   UNL     1       1.948   7.078  20.267  0.00  0.00    +0.000 A 
ATOM     10  C   UNL     1       2.229   7.326  18.911  0.00  0.00    +0.000 A 
ATOM     11 CL   UNL     1       2.092   8.921  18.249  0.00  0.00    +0.000 Cl
ATOM     12  C   UNL     1       2.591   6.291  18.044  0.00  0.00    +0.000 A 
BRANCH   6  13
ATOM     13  C   UNL     1       2.977   3.899  17.551  0.00  0.00    +0.000 C 
ATOM     14  O   UNL     1       2.117   3.314  16.913  0.00  0.00    +0.000 OA
BRANCH  13  15
ATOM     15  O   UNL     1       4.295   3.587  17.599  0.00  0.00    +0.000 OA
BRANCH  15  17
ATOM     16  C   UNL     1       6.429   4.507  17.081  0.00  0.00    +0.000 C 
ATOM     17  C   UNL     1       5.073   4.114  16.518  0.00  0.00    +0.000 C 
ENDBRANCH  15  17
ENDBRANCH  13  15
ENDBRANCH   6  13
ENDBRANCH   2   9
ENDBRANCH   1   3
BRANCH   1  18
ATOM     18  S   UNL     1      -0.804  10.910  22.141  0.00  0.00    +0.000 S 
BRANCH  18  19
ATOM     19  C   UNL     1       0.158  11.832  20.954  0.00  0.00    +0.000 A 
ATOM     20  N   UNL     1       1.301  12.363  21.464  0.00  0.00    +0.000 NA
ATOM     21  N   UNL     1       2.186  12.996  20.655  0.00  0.00    +0.000 NA
ATOM     22  C   UNL     1       1.895  13.090  19.354  0.00  0.00    +0.000 A 
ATOM     23  N   UNL     1       0.774  12.633  18.787  0.00  0.00    +0.000 NA
ATOM     24  C   UNL     1      -0.109  11.964  19.585  0.00  0.00    +0.000 A 
BRANCH  24  25
ATOM     25  C   UNL     1      -1.326  11.489  18.840  0.00  0.00    +0.000 A 
ATOM     26  C   UNL     1      -1.214  10.431  17.910  0.00  0.00    +0.000 A 
ATOM     27  C   UNL     1      -2.326   9.877  17.279  0.00  0.00    +0.000 A 
ATOM     28  C   UNL     1      -3.601  10.304  17.623  0.00  0.00    +0.000 A 
ATOM     29  C   UNL     1      -3.782  11.315  18.568  0.00  0.00    +0.000 A 
ATOM     30  C   UNL     1      -5.090  11.656  18.959  0.00  0.00    +0.000 A 
ATOM     31  C   UNL     1      -5.326  12.666  19.886  0.00  0.00    +0.000 A 
ATOM     32  C   UNL     1      -4.259  13.392  20.384  0.00  0.00    +0.000 A 
ATOM     33  C   UNL     1      -2.955  13.063  20.000  0.00  0.00    +0.000 A 
ATOM     34  C   UNL     1      -2.656  11.972  19.140  0.00  0.00    +0.000 A 
ENDBRANCH  24  25
ENDBRANCH  18  19
ENDBRANCH   1  18
TORSDOF 8
ENDMDL
MODEL 2
REMARK VINA RESULT:      -8.2      1.161      1.470
REMARK  Name = 
REMARK  9 active torsions:
REMARK  status: ('A' for Active; 'I' for Inactive)
REMARK    1  A    between atoms: C_1  and  C_2
REMARK    2  A    between atoms: C_2  and  O_3
REMARK    3  A    between atoms: O_3  and  C_4
REMARK    4  A    between atoms: C_4  and  C_6
REMARK    5  A    between atoms: C_9  and  N_10
REMARK    6  A    between atoms: C_11  and  C_13
REMARK    7  A    between atoms: C_13  and  S_14
REMARK    8  A    between atoms: S_14  and  C_15
REMARK    9  A    between atoms: C_20  and  C_21
REMARK                            x       y       z     vdW  Elec       q    Type
REMARK                         _______ _______ _______ _____ _____    ______ ____
ROOT
ATOM      1  C   UNL     1       0.696   9.838  22.380  0.00  0.00    +0.000 C 
ENDROOT
BRANCH   1   3
ATOM      2  N   UNL     1       1.799   8.221  20.928  0.00  0.00    +0.000 N 
ATOM      3  C   UNL     1       0.594   8.603  21.491  0.00  0.00    +0.000 C 
ATOM      4  O   UNL     1      -0.486   8.054  21.297  0.00  0.00    +0.000 OA
ATOM      5  H   UNL     1       2.598   8.838  21.034  0.00  0.00    +0.000 HD
BRANCH   2   9
ATOM      6  C   UNL     1       2.626   4.822  18.523  0.00  0.00    +0.000 A 
ATOM      7  C   UNL     1       2.229   4.656  19.851  0.00  0.00    +0.000 A 
ATOM      8  C   UNL     1       1.940   5.767  20.649  0.00  0.00    +0.000 A 
ATOM      9  C   UNL     1       2.045   7.065  20.138  0.00  0.00    +0.000 A 
ATOM     10  C   UNL     1       2.444   7.220  18.798  0.00  0.00    +0.000 A 
ATOM     11 CL   UNL     1       2.545   8.791  18.074  0.00  0.00    +0.000 Cl
ATOM     12  C   UNL     1       2.735   6.114  17.995  0.00  0.00    +0.000 A 
BRANCH   6  13
ATOM     13  C   UNL     1       2.860   3.674  17.613  0.00  0.00    +0.000 C 
ATOM     14  O   UNL     1       1.959   3.068  17.058  0.00  0.00    +0.000 OA
BRANCH  13  15
ATOM     15  O   UNL     1       4.172   3.337  17.618  0.00  0.00    +0.000 OA
BRANCH  15  17
ATOM     16  C   UNL     1       6.199   4.485  17.123  0.00  0.00    +0.000 C 
ATOM     17  C   UNL     1       4.934   3.883  16.534  0.00  0.00    +0.000 C 
ENDBRANCH  15  17
ENDBRANCH  13  15
ENDBRANCH   6  13
ENDBRANCH   2   9
ENDBRANCH   1   3
BRANCH   1  18
ATOM     18  S   UNL     1      -0.965  10.496  22.791  0.00  0.00    +0.000 S 
BRANCH  18  19
ATOM     19  C   UNL     1      -0.801  12.186  22.243  0.00  0.00    +0.000 A 
ATOM     20  N   UNL     1      -0.504  13.063  23.240  0.00  0.00    +0.000 NA
ATOM     21  N   UNL     1      -0.243  14.362  22.958  0.00  0.00    +0.000 NA
ATOM     22  C   UNL     1      -0.297  14.753  21.680  0.00  0.00    +0.000 A 
ATOM     23  N   UNL     1      -0.624  13.962  20.653  0.00  0.00    +0.000 NA
ATOM     24  C   UNL     1      -0.857  12.645  20.921  0.00  0.00    +0.000 A 
BRANCH  24  25
ATOM     25  C   UNL     1      -1.206  11.852  19.692  0.00  0.00    +0.000 A 
ATOM     26  C   UNL     1      -0.220  11.061  19.060  0.00  0.00    +0.000 A 
ATOM     27  C   UNL     1      -0.518  10.220  17.989  0.00  0.00    +0.000 A 
ATOM     28  C   UNL     1      -1.831  10.073  17.568  0.00  0.00    +0.000 A 
ATOM     29  C   UNL     1      -2.859  10.793  18.181  0.00  0.00    +0.000 A 
ATOM     30  C   UNL     1      -4.188  10.548  17.790  0.00  0.00    +0.000 A 
ATOM     31  C   UNL     1      -5.249  11.248  18.358  0.00  0.00    +0.000 A 
ATOM     32  C   UNL     1      -4.985  12.249  19.277  0.00  0.00    +0.000 A 
ATOM     33  C   UNL     1      -3.667  12.501  19.670  0.00  0.00    +0.000 A 
ATOM     34  C   UNL     1      -2.562  11.742  19.199  0.00  0.00    +0.000 A 
ENDBRANCH  24  25
ENDBRANCH  18  19
ENDBRANCH   1  18
TORSDOF 8
ENDMDL
MODEL 3
REMARK VINA RESULT:      -7.9      3.286      9.893
REMARK  Name = 
REMARK  9 active torsions:
REMARK  status: ('A' for Active; 'I' for Inactive)
REMARK    1  A    between atoms: C_1  and  C_2
REMARK    2  A    between atoms: C_2  and  O_3
REMARK    3  A    between atoms: O_3  and  C_4
REMARK    4  A    between atoms: C_4  and  C_6
REMARK    5  A    between atoms: C_9  and  N_10
REMARK    6  A    between atoms: C_11  and  C_13
REMARK    7  A    between atoms: C_13  and  S_14
REMARK    8  A    between atoms: S_14  and  C_15
REMARK    9  A    between atoms: C_20  and  C_21
REMARK                            x       y       z     vdW  Elec       q    Type
REMARK                         _______ _______ _______ _____ _____    ______ ____
ROOT
ATOM      1  C   UNL     1       2.474   7.369  18.076  0.00  0.00    +0.000 C 
ENDROOT
BRANCH   1   3
ATOM      2  N   UNL     1       1.063   9.054  19.133  0.00  0.00    +0.000 N 
ATOM      3  C   UNL     1       1.972   8.809  18.118  0.00  0.00    +0.000 C 
ATOM      4  O   UNL     1       2.344   9.631  17.286  0.00  0.00    +0.000 OA
ATOM      5  H   UNL     1       0.711   8.265  19.666  0.00  0.00    +0.000 HD
BRANCH   2   9
ATOM      6  C   UNL     1      -0.740  12.751  20.181  0.00  0.00    +0.000 A 
ATOM      7  C   UNL     1       0.392  12.309  20.869  0.00  0.00    +0.000 A 
ATOM      8  C   UNL     1       1.003  11.099  20.523  0.00  0.00    +0.000 A 
ATOM      9  C   UNL     1       0.495  10.307  19.488  0.00  0.00    +0.000 A 
ATOM     10  C   UNL     1      -0.645  10.765  18.801  0.00  0.00    +0.000 A 
ATOM     11 CL   UNL     1      -1.302   9.870  17.471  0.00  0.00    +0.000 Cl
ATOM     12  C   UNL     1      -1.261  11.972  19.142  0.00  0.00    +0.000 A 
BRANCH   6  13
ATOM     13  C   UNL     1      -1.372  14.065  20.453  0.00  0.00    +0.000 C 
ATOM     14  O   UNL     1      -2.572  14.207  20.618  0.00  0.00    +0.000 OA
BRANCH  13  15
ATOM     15  O   UNL     1      -0.453  15.054  20.346  0.00  0.00    +0.000 OA
BRANCH  15  17
ATOM     16  C   UNL     1      -0.857  16.874  18.864  0.00  0.00    +0.000 C 
ATOM     17  C   UNL     1      -0.212  15.505  19.007  0.00  0.00    +0.000 C 
ENDBRANCH  15  17
ENDBRANCH  13  15
ENDBRANCH   6  13
ENDBRANCH   2   9
ENDBRANCH   1   3
BRANCH   1  18
ATOM     18  S   UNL     1       2.371   6.586  19.730  0.00  0.00    +0.000 S 
BRANCH  18  19
ATOM     19  C   UNL     1       2.446   4.859  19.287  0.00  0.00    +0.000 A 
ATOM     20  N   UNL     1       1.289   4.181  19.510  0.00  0.00    +0.000 NA
ATOM     21  N   UNL     1       1.163   2.889  19.122  0.00  0.00    +0.000 NA
ATOM     22  C   UNL     1       2.208   2.304  18.528  0.00  0.00    +0.000 A 
ATOM     23  N   UNL     1       3.391   2.890  18.315  0.00  0.00    +0.000 NA
ATOM     24  C   UNL     1       3.519   4.201  18.671  0.00  0.00    +0.000 A 
BRANCH  24  25
ATOM     25  C   UNL     1       4.885   4.756  18.377  0.00  0.00    +0.000 A 
ATOM     26  C   UNL     1       5.730   5.148  19.440  0.00  0.00    +0.000 A 
ATOM     27  C   UNL     1       7.045   5.560  19.229  0.00  0.00    +0.000 A 
ATOM     28  C   UNL     1       7.590   5.510  17.955  0.00  0.00    +0.000 A 
ATOM     29  C   UNL     1       6.821   5.089  16.868  0.00  0.00    +0.000 A 
ATOM     30  C   UNL     1       7.435   4.963  15.608  0.00  0.00    +0.000 A 
ATOM     31  C   UNL     1       6.711   4.561  14.489  0.00  0.00    +0.000 A 
ATOM     32  C   UNL     1       5.349   4.345  14.606  0.00  0.00    +0.000 A 
ATOM     33  C   UNL     1       4.729   4.470  15.853  0.00  0.00    +0.000 A 
ATOM     34  C   UNL     1       5.444   4.773  17.043  0.00  0.00    +0.000 A 
ENDBRANCH  24  25
ENDBRANCH  18  19
ENDBRANCH   1  18
TORSDOF 8
ENDMDL
MODEL 4
REMARK VINA RESULT:      -7.8      3.244      9.970
REMARK  Name = 
REMARK  9 active torsions:
REMARK  status: ('A' for Active; 'I' for Inactive)
REMARK    1  A    between atoms: C_1  and  C_2
REMARK    2  A    between atoms: C_2  and  O_3
REMARK    3  A    between atoms: O_3  and  C_4
REMARK    4  A    between atoms: C_4  and  C_6
REMARK    5  A    between atoms: C_9  and  N_10
REMARK    6  A    between atoms: C_11  and  C_13
REMARK    7  A    between atoms: C_13  and  S_14
REMARK    8  A    between atoms: S_14  and  C_15
REMARK    9  A    between atoms: C_20  and  C_21
REMARK                            x       y       z     vdW  Elec       q    Type
REMARK                         _______ _______ _______ _____ _____    ______ ____
ROOT
ATOM      1  C   UNL     1       2.773   6.989  18.304  0.00  0.00    +0.000 C 
ENDROOT
BRANCH   1   3
ATOM      2  N   UNL     1       1.281   8.572  19.405  0.00  0.00    +0.000 N 
ATOM      3  C   UNL     1       2.106   8.361  18.314  0.00  0.00    +0.000 C 
ATOM      4  O   UNL     1       2.290   9.158  17.399  0.00  0.00    +0.000 OA
ATOM      5  H   UNL     1       1.083   7.788  20.019  0.00  0.00    +0.000 HD
BRANCH   2   9
ATOM      6  C   UNL     1      -0.655  12.191  20.486  0.00  0.00    +0.000 A 
ATOM      7  C   UNL     1      -0.690  11.752  19.161  0.00  0.00    +0.000 A 
ATOM      8  C   UNL     1      -0.067  10.554  18.795  0.00  0.00    +0.000 A 
ATOM      9  C   UNL     1       0.603   9.774  19.744  0.00  0.00    +0.000 A 
ATOM     10  C   UNL     1       0.628  10.226  21.076  0.00  0.00    +0.000 A 
ATOM     11 CL   UNL     1       1.389   9.291  22.320  0.00  0.00    +0.000 Cl
ATOM     12  C   UNL     1       0.009  11.422  21.448  0.00  0.00    +0.000 A 
BRANCH   6  13
ATOM     13  C   UNL     1      -1.372  13.409  20.939  0.00  0.00    +0.000 C 
ATOM     14  O   UNL     1      -0.820  14.482  21.114  0.00  0.00    +0.000 OA
BRANCH  13  15
ATOM     15  O   UNL     1      -2.655  13.104  21.251  0.00  0.00    +0.000 OA
BRANCH  15  17
ATOM     16  C   UNL     1      -3.090  12.243  23.428  0.00  0.00    +0.000 C 
ATOM     17  C   UNL     1      -3.059  13.496  22.569  0.00  0.00    +0.000 C 
ENDBRANCH  15  17
ENDBRANCH  13  15
ENDBRANCH   6  13
ENDBRANCH   2   9
ENDBRANCH   1   3
BRANCH   1  18
ATOM     18  S   UNL     1       2.401   6.062  19.840  0.00  0.00    +0.000 S 
BRANCH  18  19
ATOM     19  C   UNL     1       2.607   4.382  19.276  0.00  0.00    +0.000 A 
ATOM     20  N   UNL     1       1.519   3.593  19.483  0.00  0.00    +0.000 NA
ATOM     21  N   UNL     1       1.489   2.324  19.009  0.00  0.00    +0.000 NA
ATOM     22  C   UNL     1       2.560   1.873  18.347  0.00  0.00    +0.000 A 
ATOM     23  N   UNL     1       3.681   2.572  18.143  0.00  0.00    +0.000 NA
ATOM     24  C   UNL     1       3.710   3.862  18.587  0.00  0.00    +0.000 A 
BRANCH  24  25
ATOM     25  C   UNL     1       5.014   4.551  18.295  0.00  0.00    +0.000 A 
ATOM     26  C   UNL     1       5.830   4.995  19.359  0.00  0.00    +0.000 A 
ATOM     27  C   UNL     1       7.098   5.535  19.147  0.00  0.00    +0.000 A 
ATOM     28  C   UNL     1       7.630   5.569  17.867  0.00  0.00    +0.000 A 
ATOM     29  C   UNL     1       6.892   5.104  16.776  0.00  0.00    +0.000 A 
ATOM     30  C   UNL     1       7.500   5.068  15.509  0.00  0.00    +0.000 A 
ATOM     31  C   UNL     1       6.805   4.627  14.386  0.00  0.00    +0.000 A 
ATOM     32  C   UNL     1       5.471   4.281  14.510  0.00  0.00    +0.000 A 
ATOM     33  C   UNL     1       4.856   4.315  15.765  0.00  0.00    +0.000 A 
ATOM     34  C   UNL     1       5.554   4.655  16.956  0.00  0.00    +0.000 A 
ENDBRANCH  24  25
ENDBRANCH  18  19
ENDBRANCH   1  18
TORSDOF 8
ENDMDL
MODEL 5
REMARK VINA RESULT:      -7.8      0.966      2.395
REMARK  Name = 
REMARK  9 active torsions:
REMARK  status: ('A' for Active; 'I' for Inactive)
REMARK    1  A    between atoms: C_1  and  C_2
REMARK    2  A    between atoms: C_2  and  O_3
REMARK    3  A    between atoms: O_3  and  C_4
REMARK    4  A    between atoms: C_4  and  C_6
REMARK    5  A    between atoms: C_9  and  N_10
REMARK    6  A    between atoms: C_11  and  C_13
REMARK    7  A    between atoms: C_13  and  S_14
REMARK    8  A    between atoms: S_14  and  C_15
REMARK    9  A    between atoms: C_20  and  C_21
REMARK                            x       y       z     vdW  Elec       q    Type
REMARK                         _______ _______ _______ _____ _____    ______ ____
ROOT
ATOM      1  C   UNL     1       0.350   9.752  22.897  0.00  0.00    +0.000 C 
ENDROOT
BRANCH   1   3
ATOM      2  N   UNL     1       1.595   8.392  21.302  0.00  0.00    +0.000 N 
ATOM      3  C   UNL     1       0.363   8.601  21.896  0.00  0.00    +0.000 C 
ATOM      4  O   UNL     1      -0.660   7.968  21.650  0.00  0.00    +0.000 OA
ATOM      5  H   UNL     1       2.331   9.072  21.466  0.00  0.00    +0.000 HD
BRANCH   2   9
ATOM      6  C   UNL     1       2.715   5.336  18.577  0.00  0.00    +0.000 A 
ATOM      7  C   UNL     1       2.594   5.046  19.937  0.00  0.00    +0.000 A 
ATOM      8  C   UNL     1       2.212   6.041  20.843  0.00  0.00    +0.000 A 
ATOM      9  C   UNL     1       1.947   7.344  20.409  0.00  0.00    +0.000 A 
ATOM     10  C   UNL     1       2.070   7.624  19.035  0.00  0.00    +0.000 A 
ATOM     11 CL   UNL     1       1.706   9.198  18.410  0.00  0.00    +0.000 Cl
ATOM     12  C   UNL     1       2.452   6.634  18.125  0.00  0.00    +0.000 A 
BRANCH   6  13
ATOM     13  C   UNL     1       3.033   4.297  17.568  0.00  0.00    +0.000 C 
ATOM     14  O   UNL     1       4.137   4.170  17.065  0.00  0.00    +0.000 OA
BRANCH  13  15
ATOM     15  O   UNL     1       1.905   3.638  17.208  0.00  0.00    +0.000 OA
BRANCH  15  17
ATOM     16  C   UNL     1       1.745   1.752  18.653  0.00  0.00    +0.000 C 
ATOM     17  C   UNL     1       1.149   3.105  18.302  0.00  0.00    +0.000 C 
ENDBRANCH  15  17
ENDBRANCH  13  15
ENDBRANCH   6  13
ENDBRANCH   2   9
ENDBRANCH   1   3
BRANCH   1  18
ATOM     18  S   UNL     1      -1.048  10.892  22.575  0.00  0.00    +0.000 S 
BRANCH  18  19
ATOM     19  C   UNL     1      -0.314  11.993  21.377  0.00  0.00    +0.000 A 
ATOM     20  N   UNL     1       0.981  12.311  21.641  0.00  0.00    +0.000 NA
ATOM     21  N   UNL     1       1.701  13.049  20.762  0.00  0.00    +0.000 NA
ATOM     22  C   UNL     1       1.097  13.461  19.642  0.00  0.00    +0.000 A 
ATOM     23  N   UNL     1      -0.182  13.227  19.334  0.00  0.00    +0.000 NA
ATOM     24  C   UNL     1      -0.908  12.456  20.196  0.00  0.00    +0.000 A 
BRANCH  24  25
ATOM     25  C   UNL     1      -2.327  12.252  19.744  0.00  0.00    +0.000 A 
ATOM     26  C   UNL     1      -3.372  12.980  20.355  0.00  0.00    +0.000 A 
ATOM     27  C   UNL     1      -4.688  12.915  19.899  0.00  0.00    +0.000 A 
ATOM     28  C   UNL     1      -4.989  12.186  18.758  0.00  0.00    +0.000 A 
ATOM     29  C   UNL     1      -3.993  11.480  18.080  0.00  0.00    +0.000 A 
ATOM     30  C   UNL     1      -4.318  10.830  16.876  0.00  0.00    +0.000 A 
ATOM     31  C   UNL     1      -3.367  10.100  16.169  0.00  0.00    +0.000 A 
ATOM     32  C   UNL     1      -2.094   9.959  16.695  0.00  0.00    +0.000 A 
ATOM     33  C   UNL     1      -1.762  10.599  17.893  0.00  0.00    +0.000 A 
ATOM     34  C   UNL     1      -2.666  11.441  18.595  0.00  0.00    +0.000 A 
ENDBRANCH  24  25
ENDBRANCH  18  19
ENDBRANCH   1  18
TORSDOF 8
ENDMDL
MODEL 6
REMARK VINA RESULT:      -7.8      1.213      2.343
REMARK  Name = 
REMARK  9 active torsions:
REMARK  status: ('A' for Active; 'I' for Inactive)
REMARK    1  A    between atoms: C_1  and  C_2
REMARK    2  A    between atoms: C_2  and  O_3
REMARK    3  A    between atoms: O_3  and  C_4
REMARK    4  A    between atoms: C_4  and  C_6
REMARK    5  A    between atoms: C_9  and  N_10
REMARK    6  A    between atoms: C_11  and  C_13
REMARK    7  A    between atoms: C_13  and  S_14
REMARK    8  A    between atoms: S_14  and  C_15
REMARK    9  A    between atoms: C_20  and  C_21
REMARK                            x       y       z     vdW  Elec       q    Type
REMARK                         _______ _______ _______ _____ _____    ______ ____
ROOT
ATOM      1  C   UNL     1      -0.504   9.347  21.357  0.00  0.00    +0.000 C 
ENDROOT
BRANCH   1   3
ATOM      2  N   UNL     1       0.809   7.649  20.202  0.00  0.00    +0.000 N 
ATOM      3  C   UNL     1       0.825   8.618  21.191  0.00  0.00    +0.000 C 
ATOM      4  O   UNL     1       1.782   8.878  21.914  0.00  0.00    +0.000 OA
ATOM      5  H   UNL     1      -0.079   7.413  19.772  0.00  0.00    +0.000 HD
BRANCH   2   9
ATOM      6  C   UNL     1       4.158   5.432  18.826  0.00  0.00    +0.000 A 
ATOM      7  C   UNL     1       3.441   4.991  19.940  0.00  0.00    +0.000 A 
ATOM      8  C   UNL     1       2.327   5.706  20.394  0.00  0.00    +0.000 A 
ATOM      9  C   UNL     1       1.911   6.874  19.748  0.00  0.00    +0.000 A 
ATOM     10  C   UNL     1       2.640   7.307  18.625  0.00  0.00    +0.000 A 
ATOM     11 CL   UNL     1       2.156   8.713  17.736  0.00  0.00    +0.000 Cl
ATOM     12  C   UNL     1       3.754   6.599  18.166  0.00  0.00    +0.000 A 
BRANCH   6  13
ATOM     13  C   UNL     1       5.292   4.665  18.256  0.00  0.00    +0.000 C 
ATOM     14  O   UNL     1       5.176   3.910  17.304  0.00  0.00    +0.000 OA
BRANCH  13  15
ATOM     15  O   UNL     1       6.395   4.824  19.026  0.00  0.00    +0.000 OA
BRANCH  15  17
ATOM     16  C   UNL     1       7.689   6.686  18.298  0.00  0.00    +0.000 C 
ATOM     17  C   UNL     1       7.584   5.170  18.304  0.00  0.00    +0.000 C 
ENDBRANCH  15  17
ENDBRANCH  13  15
ENDBRANCH   6  13
ENDBRANCH   2   9
ENDBRANCH   1   3
BRANCH   1  18
ATOM     18  S   UNL     1      -0.309  10.849  22.389  0.00  0.00    +0.000 S 
BRANCH  18  19
ATOM     19  C   UNL     1       0.245  12.026  21.167  0.00  0.00    +0.000 A 
ATOM     20  N   UNL     1       1.554  12.373  21.289  0.00  0.00    +0.000 NA
ATOM     21  N   UNL     1       2.142  13.173  20.367  0.00  0.00    +0.000 NA
ATOM     22  C   UNL     1       1.396  13.616  19.349  0.00  0.00    +0.000 A 
ATOM     23  N   UNL     1       0.095  13.355  19.186  0.00  0.00    +0.000 NA
ATOM     24  C   UNL     1      -0.500  12.523  20.089  0.00  0.00    +0.000 A 
BRANCH  24  25
ATOM     25  C   UNL     1      -1.958  12.294  19.802  0.00  0.00    +0.000 A 
ATOM     26  C   UNL     1      -2.938  13.033  20.502  0.00  0.00    +0.000 A 
ATOM     27  C   UNL     1      -4.295  12.943  20.195  0.00  0.00    +0.000 A 
ATOM     28  C   UNL     1      -4.711  12.177  19.116  0.00  0.00    +0.000 A 
ATOM     29  C   UNL     1      -3.786  11.457  18.355  0.00  0.00    +0.000 A 
ATOM     30  C   UNL     1      -4.234  10.767  17.214  0.00  0.00    +0.000 A 
ATOM     31  C   UNL     1      -3.357  10.024  16.429  0.00  0.00    +0.000 A 
ATOM     32  C   UNL     1      -2.034   9.908  16.817  0.00  0.00    +0.000 A 
ATOM     33  C   UNL     1      -1.579  10.589  17.951  0.00  0.00    +0.000 A 
ATOM     34  C   UNL     1      -2.411  11.445  18.722  0.00  0.00    +0.000 A 
ENDBRANCH  24  25
ENDBRANCH  18  19
ENDBRANCH   1  18
TORSDOF 8
ENDMDL
MODEL 7
REMARK VINA RESULT:      -7.7      3.317     10.154
REMARK  Name = 
REMARK  9 active torsions:
REMARK  status: ('A' for Active; 'I' for Inactive)
REMARK    1  A    between atoms: C_1  and  C_2
REMARK    2  A    between atoms: C_2  and  O_3
REMARK    3  A    between atoms: O_3  and  C_4
REMARK    4  A    between atoms: C_4  and  C_6
REMARK    5  A    between atoms: C_9  and  N_10
REMARK    6  A    between atoms: C_11  and  C_13
REMARK    7  A    between atoms: C_13  and  S_14
REMARK    8  A    between atoms: S_14  and  C_15
REMARK    9  A    between atoms: C_20  and  C_21
REMARK                            x       y       z     vdW  Elec       q    Type
REMARK                         _______ _______ _______ _____ _____    ______ ____
ROOT
ATOM      1  C   UNL     1       2.573   6.737  20.118  0.00  0.00    +0.000 C 
ENDROOT
BRANCH   1   3
ATOM      2  N   UNL     1       1.613   8.743  21.117  0.00  0.00    +0.000 N 
ATOM      3  C   UNL     1       1.394   7.410  20.815  0.00  0.00    +0.000 C 
ATOM      4  O   UNL     1       0.380   6.776  21.091  0.00  0.00    +0.000 OA
ATOM      5  H   UNL     1       2.544   9.122  20.982  0.00  0.00    +0.000 HD
BRANCH   2   9
ATOM      6  C   UNL     1      -1.232  11.480  22.678  0.00  0.00    +0.000 A 
ATOM      7  C   UNL     1      -0.842  10.373  23.435  0.00  0.00    +0.000 A 
ATOM      8  C   UNL     1       0.104   9.472  22.937  0.00  0.00    +0.000 A 
ATOM      9  C   UNL     1       0.678   9.657  21.675  0.00  0.00    +0.000 A 
ATOM     10  C   UNL     1       0.279  10.777  20.922  0.00  0.00    +0.000 A 
ATOM     11 CL   UNL     1       0.981  11.106  19.374  0.00  0.00    +0.000 Cl
ATOM     12  C   UNL     1      -0.668  11.680  21.413  0.00  0.00    +0.000 A 
BRANCH   6  13
ATOM     13  C   UNL     1      -2.167  12.508  23.196  0.00  0.00    +0.000 C 
ATOM     14  O   UNL     1      -1.809  13.619  23.548  0.00  0.00    +0.000 OA
BRANCH  13  15
ATOM     15  O   UNL     1      -3.406  11.978  23.344  0.00  0.00    +0.000 OA
BRANCH  15  17
ATOM     16  C   UNL     1      -5.478  13.038  23.846  0.00  0.00    +0.000 C 
ATOM     17  C   UNL     1      -4.168  12.531  24.424  0.00  0.00    +0.000 C 
ENDBRANCH  15  17
ENDBRANCH  13  15
ENDBRANCH   6  13
ENDBRANCH   2   9
ENDBRANCH   1   3
BRANCH   1  18
ATOM     18  S   UNL     1       2.077   6.059  18.489  0.00  0.00    +0.000 S 
BRANCH  18  19
ATOM     19  C   UNL     1       2.542   4.347  18.684  0.00  0.00    +0.000 A 
ATOM     20  N   UNL     1       1.503   3.524  18.988  0.00  0.00    +0.000 NA
ATOM     21  N   UNL     1       1.685   2.183  19.058  0.00  0.00    +0.000 NA
ATOM     22  C   UNL     1       2.911   1.701  18.833  0.00  0.00    +0.000 A 
ATOM     23  N   UNL     1       3.989   2.448  18.573  0.00  0.00    +0.000 NA
ATOM     24  C   UNL     1       3.812   3.797  18.466  0.00  0.00    +0.000 A 
BRANCH  24  25
ATOM     25  C   UNL     1       5.088   4.532  18.164  0.00  0.00    +0.000 A 
ATOM     26  C   UNL     1       5.883   5.028  19.221  0.00  0.00    +0.000 A 
ATOM     27  C   UNL     1       7.128   5.615  19.002  0.00  0.00    +0.000 A 
ATOM     28  C   UNL     1       7.662   5.646  17.722  0.00  0.00    +0.000 A 
ATOM     29  C   UNL     1       6.946   5.132  16.639  0.00  0.00    +0.000 A 
ATOM     30  C   UNL     1       7.558   5.097  15.373  0.00  0.00    +0.000 A 
ATOM     31  C   UNL     1       6.883   4.608  14.258  0.00  0.00    +0.000 A 
ATOM     32  C   UNL     1       5.564   4.210  14.385  0.00  0.00    +0.000 A 
ATOM     33  C   UNL     1       4.946   4.243  15.639  0.00  0.00    +0.000 A 
ATOM     34  C   UNL     1       5.626   4.633  16.825  0.00  0.00    +0.000 A 
ENDBRANCH  24  25
ENDBRANCH  18  19
ENDBRANCH   1  18
TORSDOF 8
ENDMDL
MODEL 8
REMARK VINA RESULT:      -7.7      3.149     10.005
REMARK  Name = 
REMARK  9 active torsions:
REMARK  status: ('A' for Active; 'I' for Inactive)
REMARK    1  A    between atoms: C_1  and  C_2
REMARK    2  A    between atoms: C_2  and  O_3
REMARK    3  A    between atoms: O_3  and  C_4
REMARK    4  A    between atoms: C_4  and  C_6
REMARK    5  A    between atoms: C_9  and  N_10
REMARK    6  A    between atoms: C_11  and  C_13
REMARK    7  A    between atoms: C_13  and  S_14
REMARK    8  A    between atoms: S_14  and  C_15
REMARK    9  A    between atoms: C_20  and  C_21
REMARK                            x       y       z     vdW  Elec       q    Type
REMARK                         _______ _______ _______ _____ _____    ______ ____
ROOT
ATOM      1  C   UNL     1       2.343   7.347  18.056  0.00  0.00    +0.000 C 
ENDROOT
BRANCH   1   3
ATOM      2  N   UNL     1       0.947   9.018  19.153  0.00  0.00    +0.000 N 
ATOM      3  C   UNL     1       1.906   8.803  18.178  0.00  0.00    +0.000 C 
ATOM      4  O   UNL     1       2.368   9.664  17.434  0.00  0.00    +0.000 OA
ATOM      5  H   UNL     1       0.527   8.211  19.602  0.00  0.00    +0.000 HD
BRANCH   2   9
ATOM      6  C   UNL     1      -0.748  12.709  20.385  0.00  0.00    +0.000 A 
ATOM      7  C   UNL     1       0.416  12.239  20.996  0.00  0.00    +0.000 A 
ATOM      8  C   UNL     1       0.992  11.031  20.590  0.00  0.00    +0.000 A 
ATOM      9  C   UNL     1       0.416  10.269  19.567  0.00  0.00    +0.000 A 
ATOM     10  C   UNL     1      -0.756  10.755  18.957  0.00  0.00    +0.000 A 
ATOM     11 CL   UNL     1      -1.500   9.899  17.648  0.00  0.00    +0.000 Cl
ATOM     12  C   UNL     1      -1.337  11.960  19.360  0.00  0.00    +0.000 A 
BRANCH   6  13
ATOM     13  C   UNL     1      -1.347  14.024  20.722  0.00  0.00    +0.000 C 
ATOM     14  O   UNL     1      -0.807  15.088  20.473  0.00  0.00    +0.000 OA
BRANCH  13  15
ATOM     15  O   UNL     1      -2.476  13.846  21.452  0.00  0.00    +0.000 OA
BRANCH  15  17
ATOM     16  C   UNL     1      -4.725  13.566  20.722  0.00  0.00    +0.000 C 
ATOM     17  C   UNL     1      -3.616  14.573  20.976  0.00  0.00    +0.000 C 
ENDBRANCH  15  17
ENDBRANCH  13  15
ENDBRANCH   6  13
ENDBRANCH   2   9
ENDBRANCH   1   3
BRANCH   1  18
ATOM     18  S   UNL     1       2.382   6.530  19.696  0.00  0.00    +0.000 S 
BRANCH  18  19
ATOM     19  C   UNL     1       2.465   4.814  19.214  0.00  0.00    +0.000 A 
ATOM     20  N   UNL     1       1.309   4.127  19.416  0.00  0.00    +0.000 NA
ATOM     21  N   UNL     1       1.188   2.844  18.997  0.00  0.00    +0.000 NA
ATOM     22  C   UNL     1       2.238   2.277  18.394  0.00  0.00    +0.000 A 
ATOM     23  N   UNL     1       3.420   2.871  18.198  0.00  0.00    +0.000 NA
ATOM     24  C   UNL     1       3.542   4.174  18.586  0.00  0.00    +0.000 A 
BRANCH  24  25
ATOM     25  C   UNL     1       4.908   4.740  18.310  0.00  0.00    +0.000 A 
ATOM     26  C   UNL     1       5.743   5.119  19.384  0.00  0.00    +0.000 A 
ATOM     27  C   UNL     1       7.057   5.542  19.189  0.00  0.00    +0.000 A 
ATOM     28  C   UNL     1       7.611   5.514  17.918  0.00  0.00    +0.000 A 
ATOM     29  C   UNL     1       6.852   5.106  16.819  0.00  0.00    +0.000 A 
ATOM     30  C   UNL     1       7.474   5.002  15.562  0.00  0.00    +0.000 A 
ATOM     31  C   UNL     1       6.760   4.614  14.432  0.00  0.00    +0.000 A 
ATOM     32  C   UNL     1       5.399   4.390  14.536  0.00  0.00    +0.000 A 
ATOM     33  C   UNL     1       4.770   4.492  15.781  0.00  0.00    +0.000 A 
ATOM     34  C   UNL     1       5.475   4.780  16.980  0.00  0.00    +0.000 A 
ENDBRANCH  24  25
ENDBRANCH  18  19
ENDBRANCH   1  18
TORSDOF 8
ENDMDL
MODEL 9
REMARK VINA RESULT:      -7.7      3.199      9.874
REMARK  Name = 
REMARK  9 active torsions:
REMARK  status: ('A' for Active; 'I' for Inactive)
REMARK    1  A    between atoms: C_1  and  C_2
REMARK    2  A    between atoms: C_2  and  O_3
REMARK    3  A    between atoms: O_3  and  C_4
REMARK    4  A    between atoms: C_4  and  C_6
REMARK    5  A    between atoms: C_9  and  N_10
REMARK    6  A    between atoms: C_11  and  C_13
REMARK    7  A    between atoms: C_13  and  S_14
REMARK    8  A    between atoms: S_14  and  C_15
REMARK    9  A    between atoms: C_20  and  C_21
REMARK                            x       y       z     vdW  Elec       q    Type
REMARK                         _______ _______ _______ _____ _____    ______ ____
ROOT
ATOM      1  C   UNL     1       2.532   7.393  18.149  0.00  0.00    +0.000 C 
ENDROOT
BRANCH   1   3
ATOM      2  N   UNL     1       0.906   8.825  19.266  0.00  0.00    +0.000 N 
ATOM      3  C   UNL     1       1.855   8.756  18.261  0.00  0.00    +0.000 C 
ATOM      4  O   UNL     1       2.137   9.666  17.487  0.00  0.00    +0.000 OA
ATOM      5  H   UNL     1       0.645   7.968  19.743  0.00  0.00    +0.000 HD
BRANCH   2   9
ATOM      6  C   UNL     1      -1.167  12.297  20.556  0.00  0.00    +0.000 A 
ATOM      7  C   UNL     1      -1.318  11.843  19.244  0.00  0.00    +0.000 A 
ATOM      8  C   UNL     1      -0.651  10.693  18.811  0.00  0.00    +0.000 A 
ATOM      9  C   UNL     1       0.180   9.975  19.678  0.00  0.00    +0.000 A 
ATOM     10  C   UNL     1       0.322  10.441  20.999  0.00  0.00    +0.000 A 
ATOM     11 CL   UNL     1       1.289   9.580  22.149  0.00  0.00    +0.000 Cl
ATOM     12  C   UNL     1      -0.340  11.591  21.437  0.00  0.00    +0.000 A 
BRANCH   6  13
ATOM     13  C   UNL     1      -1.919  13.461  21.085  0.00  0.00    +0.000 C 
ATOM     14  O   UNL     1      -2.587  13.417  22.104  0.00  0.00    +0.000 OA
BRANCH  13  15
ATOM     15  O   UNL     1      -1.858  14.492  20.208  0.00  0.00    +0.000 OA
BRANCH  15  17
ATOM     16  C   UNL     1      -0.253  15.578  18.825  0.00  0.00    +0.000 C 
ATOM     17  C   UNL     1      -0.642  15.248  20.256  0.00  0.00    +0.000 C 
ENDBRANCH  15  17
ENDBRANCH  13  15
ENDBRANCH   6  13
ENDBRANCH   2   9
ENDBRANCH   1   3
BRANCH   1  18
ATOM     18  S   UNL     1       2.402   6.459  19.720  0.00  0.00    +0.000 S 
BRANCH  18  19
ATOM     19  C   UNL     1       2.436   4.781  19.115  0.00  0.00    +0.000 A 
ATOM     20  N   UNL     1       1.259   4.116  19.266  0.00  0.00    +0.000 NA
ATOM     21  N   UNL     1       1.102   2.870  18.755  0.00  0.00    +0.000 NA
ATOM     22  C   UNL     1       2.137   2.317  18.114  0.00  0.00    +0.000 A 
ATOM     23  N   UNL     1       3.336   2.889  17.964  0.00  0.00    +0.000 NA
ATOM     24  C   UNL     1       3.496   4.156  18.445  0.00  0.00    +0.000 A 
BRANCH  24  25
ATOM     25  C   UNL     1       4.878   4.699  18.213  0.00  0.00    +0.000 A 
ATOM     26  C   UNL     1       5.695   5.040  19.314  0.00  0.00    +0.000 A 
ATOM     27  C   UNL     1       7.022   5.439  19.158  0.00  0.00    +0.000 A 
ATOM     28  C   UNL     1       7.605   5.425  17.900  0.00  0.00    +0.000 A 
ATOM     29  C   UNL     1       6.864   5.054  16.775  0.00  0.00    +0.000 A 
ATOM     30  C   UNL     1       7.515   4.963  15.532  0.00  0.00    +0.000 A 
ATOM     31  C   UNL     1       6.821   4.612  14.378  0.00  0.00    +0.000 A 
ATOM     32  C   UNL     1       5.453   4.413  14.445  0.00  0.00    +0.000 A 
ATOM     33  C   UNL     1       4.796   4.504  15.676  0.00  0.00    +0.000 A 
ATOM     34  C   UNL     1       5.479   4.754  16.898  0.00  0.00    +0.000 A 
ENDBRANCH  24  25
ENDBRANCH  18  19
ENDBRANCH   1  18
TORSDOF 8
ENDMDL
