MODEL 1
REMARK VINA RESULT:      -8.1      0.000      0.000
REMARK  Name = 
REMARK  8 active torsions:
REMARK  status: ('A' for Active; 'I' for Inactive)
REMARK    1  A    between atoms: C_1  and  C_2
REMARK    2  A    between atoms: C_2  and  C_3
REMARK    3  A    between atoms: C_6  and  N_7
REMARK    4  A    between atoms: C_8  and  C_10
REMARK    5  A    between atoms: C_10  and  C_11
REMARK    6  A    between atoms: C_11  and  N_12
REMARK    7  A    between atoms: C_13  and  C_15
REMARK    8  A    between atoms: C_15  and  N_16
REMARK                            x       y       z     vdW  Elec       q    Type
REMARK                         _______ _______ _______ _____ _____    ______ ____
ROOT
ATOM      1  N   UNL     1       8.138   7.649  18.260  0.00  0.00    +0.000 N 
ATOM      2  C   UNL     1       7.362   6.859  17.410  0.00  0.00    +0.000 C 
ATOM      3  O   UNL     1       6.777   7.332  16.440  0.00  0.00    +0.000 OA
ATOM      4  H   UNL     1       8.478   7.255  19.130  0.00  0.00    +0.000 HD
ENDROOT
BRANCH   1   5
ATOM      5  C   UNL     1       8.231   9.095  18.041  0.00  0.00    +0.000 C 
BRANCH   5   6
ATOM      6  C   UNL     1       9.207   9.819  18.966  0.00  0.00    +0.000 C 
BRANCH   6   8
ATOM      7  N   UNL     1      10.629  11.823  19.013  0.00  0.00    +0.000 N 
ATOM      8  C   UNL     1       9.439  11.275  18.558  0.00  0.00    +0.000 C 
ATOM      9  O   UNL     1       8.584  11.858  17.897  0.00  0.00    +0.000 OA
ATOM     10  H   UNL     1      11.241  11.225  19.554  0.00  0.00    +0.000 HD
BRANCH   7  14
ATOM     11  C   UNL     1      11.959  15.775  18.117  0.00  0.00    +0.000 A 
ATOM     12  C   UNL     1      12.126  15.255  19.404  0.00  0.00    +0.000 A 
ATOM     13  C   UNL     1      11.717  13.950  19.720  0.00  0.00    +0.000 A 
ATOM     14  C   UNL     1      11.132  13.128  18.753  0.00  0.00    +0.000 A 
ATOM     15  C   UNL     1      11.009  13.631  17.451  0.00  0.00    +0.000 A 
ATOM     16  C   UNL     1      11.414  14.937  17.135  0.00  0.00    +0.000 A 
BRANCH  11  18
ATOM     17  C   UNL     1      11.159  18.041  17.334  0.00  0.00    +0.000 C 
ATOM     18  C   UNL     1      12.333  17.202  17.809  0.00  0.00    +0.000 C 
ENDBRANCH  11  18
ENDBRANCH   7  14
ENDBRANCH   6   8
ENDBRANCH   5   6
ENDBRANCH   1   5
BRANCH   2  19
ATOM     19  C   UNL     1       7.345   5.346  17.747  0.00  0.00    +0.000 C 
BRANCH  19  20
ATOM     20  N   UNL     1       6.010   4.730  17.775  0.00  0.00    +0.000 N 
ATOM     21  C   UNL     1       5.615   3.940  16.692  0.00  0.00    +0.000 A 
ATOM     22  C   UNL     1       4.292   3.845  16.451  0.00  0.00    +0.000 A 
ATOM     23  C   UNL     1       3.544   3.432  17.656  0.00  0.00    +0.000 A 
ATOM     24  C   UNL     1       2.444   2.578  17.571  0.00  0.00    +0.000 A 
ATOM     25  C   UNL     1       1.847   2.115  18.744  0.00  0.00    +0.000 A 
ATOM     26  C   UNL     1       2.328   2.531  19.991  0.00  0.00    +0.000 A 
ATOM     27  C   UNL     1       3.387   3.444  20.075  0.00  0.00    +0.000 A 
ATOM     28  C   UNL     1       3.998   3.893  18.904  0.00  0.00    +0.000 A 
ATOM     29  C   UNL     1       5.199   4.799  18.924  0.00  0.00    +0.000 A 
ATOM     30  O   UNL     1       5.429   5.507  19.897  0.00  0.00    +0.000 OA
ENDBRANCH  19  20
ENDBRANCH   2  19
TORSDOF 7
ENDMDL
MODEL 2
REMARK VINA RESULT:      -8.1      1.909      2.417
REMARK  Name = 
REMARK  8 active torsions:
REMARK  status: ('A' for Active; 'I' for Inactive)
REMARK    1  A    between atoms: C_1  and  C_2
REMARK    2  A    between atoms: C_2  and  C_3
REMARK    3  A    between atoms: C_6  and  N_7
REMARK    4  A    between atoms: C_8  and  C_10
REMARK    5  A    between atoms: C_10  and  C_11
REMARK    6  A    between atoms: C_11  and  N_12
REMARK    7  A    between atoms: C_13  and  C_15
REMARK    8  A    between atoms: C_15  and  N_16
REMARK                            x       y       z     vdW  Elec       q    Type
REMARK                         _______ _______ _______ _____ _____    ______ ____
ROOT
ATOM      1  N   UNL     1       6.690   7.056  17.671  0.00  0.00    +0.000 N 
ATOM      2  C   UNL     1       6.626   6.146  16.615  0.00  0.00    +0.000 C 
ATOM      3  O   UNL     1       7.611   5.872  15.935  0.00  0.00    +0.000 OA
ATOM      4  H   UNL     1       5.831   7.370  18.108  0.00  0.00    +0.000 HD
ENDROOT
BRANCH   1   5
ATOM      5  C   UNL     1       7.943   7.756  17.966  0.00  0.00    +0.000 C 
BRANCH   5   6
ATOM      6  C   UNL     1       7.990   9.208  17.496  0.00  0.00    +0.000 C 
BRANCH   6   8
ATOM      7  N   UNL     1       8.939  11.418  17.999  0.00  0.00    +0.000 N 
ATOM      8  C   UNL     1       8.810  10.104  18.425  0.00  0.00    +0.000 C 
ATOM      9  O   UNL     1       9.306   9.624  19.441  0.00  0.00    +0.000 OA
ATOM     10  H   UNL     1       8.479  11.676  17.136  0.00  0.00    +0.000 HD
BRANCH   7  14
ATOM     11  C   UNL     1      11.077  14.597  19.876  0.00  0.00    +0.000 A 
ATOM     12  C   UNL     1       9.684  14.658  19.765  0.00  0.00    +0.000 A 
ATOM     13  C   UNL     1       8.955  13.616  19.172  0.00  0.00    +0.000 A 
ATOM     14  C   UNL     1       9.600  12.482  18.675  0.00  0.00    +0.000 A 
ATOM     15  C   UNL     1      10.991  12.396  18.830  0.00  0.00    +0.000 A 
ATOM     16  C   UNL     1      11.722  13.439  19.420  0.00  0.00    +0.000 A 
BRANCH  11  18
ATOM     17  C   UNL     1      10.999  16.712  21.258  0.00  0.00    +0.000 C 
ATOM     18  C   UNL     1      11.855  15.753  20.447  0.00  0.00    +0.000 C 
ENDBRANCH  11  18
ENDBRANCH   7  14
ENDBRANCH   6   8
ENDBRANCH   5   6
ENDBRANCH   1   5
BRANCH   2  19
ATOM     19  C   UNL     1       5.245   5.472  16.406  0.00  0.00    +0.000 C 
BRANCH  19  20
ATOM     20  N   UNL     1       4.455   5.279  17.631  0.00  0.00    +0.000 N 
ATOM     21  C   UNL     1       3.264   5.994  17.777  0.00  0.00    +0.000 A 
ATOM     22  C   UNL     1       2.851   6.248  19.035  0.00  0.00    +0.000 A 
ATOM     23  C   UNL     1       2.786   5.018  19.849  0.00  0.00    +0.000 A 
ATOM     24  C   UNL     1       1.778   4.826  20.796  0.00  0.00    +0.000 A 
ATOM     25  C   UNL     1       1.682   3.598  21.451  0.00  0.00    +0.000 A 
ATOM     26  C   UNL     1       2.609   2.583  21.184  0.00  0.00    +0.000 A 
ATOM     27  C   UNL     1       3.663   2.801  20.287  0.00  0.00    +0.000 A 
ATOM     28  C   UNL     1       3.749   4.022  19.616  0.00  0.00    +0.000 A 
ATOM     29  C   UNL     1       4.797   4.288  18.571  0.00  0.00    +0.000 A 
ATOM     30  O   UNL     1       5.844   3.651  18.562  0.00  0.00    +0.000 OA
ENDBRANCH  19  20
ENDBRANCH   2  19
TORSDOF 7
ENDMDL
MODEL 3
REMARK VINA RESULT:      -8.0      1.850      2.423
REMARK  Name = 
REMARK  8 active torsions:
REMARK  status: ('A' for Active; 'I' for Inactive)
REMARK    1  A    between atoms: C_1  and  C_2
REMARK    2  A    between atoms: C_2  and  C_3
REMARK    3  A    between atoms: C_6  and  N_7
REMARK    4  A    between atoms: C_8  and  C_10
REMARK    5  A    between atoms: C_10  and  C_11
REMARK    6  A    between atoms: C_11  and  N_12
REMARK    7  A    between atoms: C_13  and  C_15
REMARK    8  A    between atoms: C_15  and  N_16
REMARK                            x       y       z     vdW  Elec       q    Type
REMARK                         _______ _______ _______ _____ _____    ______ ____
ROOT
ATOM      1  N   UNL     1       6.520   6.997  17.351  0.00  0.00    +0.000 N 
ATOM      2  C   UNL     1       6.621   5.827  16.598  0.00  0.00    +0.000 C 
ATOM      3  O   UNL     1       7.678   5.210  16.498  0.00  0.00    +0.000 OA
ATOM      4  H   UNL     1       5.678   7.557  17.286  0.00  0.00    +0.000 HD
ENDROOT
BRANCH   1   5
ATOM      5  C   UNL     1       7.704   7.555  18.009  0.00  0.00    +0.000 C 
BRANCH   5   6
ATOM      6  C   UNL     1       8.223   8.854  17.397  0.00  0.00    +0.000 C 
BRANCH   6   8
ATOM      7  N   UNL     1       9.000  11.107  17.997  0.00  0.00    +0.000 N 
ATOM      8  C   UNL     1       8.812   9.806  18.439  0.00  0.00    +0.000 C 
ATOM      9  O   UNL     1       9.094   9.376  19.555  0.00  0.00    +0.000 OA
ATOM     10  H   UNL     1       8.726  11.321  17.047  0.00  0.00    +0.000 HD
BRANCH   7  14
ATOM     11  C   UNL     1      10.627  14.416  20.142  0.00  0.00    +0.000 A 
ATOM     12  C   UNL     1       9.272  14.403  19.795  0.00  0.00    +0.000 A 
ATOM     13  C   UNL     1       8.707  13.317  19.109  0.00  0.00    +0.000 A 
ATOM     14  C   UNL     1       9.483  12.212  18.753  0.00  0.00    +0.000 A 
ATOM     15  C   UNL     1      10.829  12.202  19.142  0.00  0.00    +0.000 A 
ATOM     16  C   UNL     1      11.397  13.289  19.825  0.00  0.00    +0.000 A 
BRANCH  11  18
ATOM     17  C   UNL     1      11.468  16.783  19.861  0.00  0.00    +0.000 C 
ATOM     18  C   UNL     1      11.239  15.619  20.811  0.00  0.00    +0.000 C 
ENDBRANCH  11  18
ENDBRANCH   7  14
ENDBRANCH   6   8
ENDBRANCH   5   6
ENDBRANCH   1   5
BRANCH   2  19
ATOM     19  C   UNL     1       5.299   5.338  15.953  0.00  0.00    +0.000 C 
BRANCH  19  20
ATOM     20  N   UNL     1       4.304   4.810  16.898  0.00  0.00    +0.000 N 
ATOM     21  C   UNL     1       4.272   3.434  17.135  0.00  0.00    +0.000 A 
ATOM     22  C   UNL     1       3.095   2.904  17.523  0.00  0.00    +0.000 A 
ATOM     23  C   UNL     1       2.533   3.614  18.690  0.00  0.00    +0.000 A 
ATOM     24  C   UNL     1       1.850   2.930  19.696  0.00  0.00    +0.000 A 
ATOM     25  C   UNL     1       1.448   3.622  20.839  0.00  0.00    +0.000 A 
ATOM     26  C   UNL     1       1.698   4.994  20.957  0.00  0.00    +0.000 A 
ATOM     27  C   UNL     1       2.321   5.694  19.916  0.00  0.00    +0.000 A 
ATOM     28  C   UNL     1       2.742   5.001  18.780  0.00  0.00    +0.000 A 
ATOM     29  C   UNL     1       3.500   5.671  17.668  0.00  0.00    +0.000 A 
ATOM     30  O   UNL     1       3.414   6.882  17.497  0.00  0.00    +0.000 OA
ENDBRANCH  19  20
ENDBRANCH   2  19
TORSDOF 7
ENDMDL
MODEL 4
REMARK VINA RESULT:      -8.0      1.654      2.294
REMARK  Name = 
REMARK  8 active torsions:
REMARK  status: ('A' for Active; 'I' for Inactive)
REMARK    1  A    between atoms: C_1  and  C_2
REMARK    2  A    between atoms: C_2  and  C_3
REMARK    3  A    between atoms: C_6  and  N_7
REMARK    4  A    between atoms: C_8  and  C_10
REMARK    5  A    between atoms: C_10  and  C_11
REMARK    6  A    between atoms: C_11  and  N_12
REMARK    7  A    between atoms: C_13  and  C_15
REMARK    8  A    between atoms: C_15  and  N_16
REMARK                            x       y       z     vdW  Elec       q    Type
REMARK                         _______ _______ _______ _____ _____    ______ ____
ROOT
ATOM      1  N   UNL     1       6.481   6.833  17.725  0.00  0.00    +0.000 N 
ATOM      2  C   UNL     1       5.912   6.177  16.633  0.00  0.00    +0.000 C 
ATOM      3  O   UNL     1       6.590   5.529  15.841  0.00  0.00    +0.000 OA
ATOM      4  H   UNL     1       5.918   7.478  18.266  0.00  0.00    +0.000 HD
ENDROOT
BRANCH   1   5
ATOM      5  C   UNL     1       7.933   6.805  17.927  0.00  0.00    +0.000 C 
BRANCH   5   6
ATOM      6  C   UNL     1       8.454   7.802  18.960  0.00  0.00    +0.000 C 
BRANCH   6   8
ATOM      7  N   UNL     1       9.434  10.053  19.068  0.00  0.00    +0.000 N 
ATOM      8  C   UNL     1       8.524   9.231  18.420  0.00  0.00    +0.000 C 
ATOM      9  O   UNL     1       7.786   9.562  17.496  0.00  0.00    +0.000 OA
ATOM     10  H   UNL     1       9.976   9.647  19.820  0.00  0.00    +0.000 HD
BRANCH   7  14
ATOM     11  C   UNL     1      10.351  14.060  17.928  0.00  0.00    +0.000 A 
ATOM     12  C   UNL     1       9.532  13.816  19.035  0.00  0.00    +0.000 A 
ATOM     13  C   UNL     1       9.232  12.507  19.444  0.00  0.00    +0.000 A 
ATOM     14  C   UNL     1       9.747  11.406  18.757  0.00  0.00    +0.000 A 
ATOM     15  C   UNL     1      10.608  11.648  17.678  0.00  0.00    +0.000 A 
ATOM     16  C   UNL     1      10.905  12.956  17.265  0.00  0.00    +0.000 A 
BRANCH  11  18
ATOM     17  C   UNL     1      11.715  16.168  18.219  0.00  0.00    +0.000 C 
ATOM     18  C   UNL     1      10.605  15.466  17.453  0.00  0.00    +0.000 C 
ENDBRANCH  11  18
ENDBRANCH   7  14
ENDBRANCH   6   8
ENDBRANCH   5   6
ENDBRANCH   1   5
BRANCH   2  19
ATOM     19  C   UNL     1       4.368   6.281  16.531  0.00  0.00    +0.000 C 
BRANCH  19  20
ATOM     20  N   UNL     1       3.625   5.321  17.360  0.00  0.00    +0.000 N 
ATOM     21  C   UNL     1       3.717   3.961  17.055  0.00  0.00    +0.000 A 
ATOM     22  C   UNL     1       2.678   3.179  17.411  0.00  0.00    +0.000 A 
ATOM     23  C   UNL     1       2.338   3.338  18.839  0.00  0.00    +0.000 A 
ATOM     24  C   UNL     1       1.919   2.252  19.611  0.00  0.00    +0.000 A 
ATOM     25  C   UNL     1       1.731   2.423  20.982  0.00  0.00    +0.000 A 
ATOM     26  C   UNL     1       1.927   3.678  21.570  0.00  0.00    +0.000 A 
ATOM     27  C   UNL     1       2.278   4.783  20.784  0.00  0.00    +0.000 A 
ATOM     28  C   UNL     1       2.487   4.611  19.415  0.00  0.00    +0.000 A 
ATOM     29  C   UNL     1       2.957   5.732  18.529  0.00  0.00    +0.000 A 
ATOM     30  O   UNL     1       2.772   6.900  18.853  0.00  0.00    +0.000 OA
ENDBRANCH  19  20
ENDBRANCH   2  19
TORSDOF 7
ENDMDL
MODEL 5
REMARK VINA RESULT:      -8.0      1.879      2.737
REMARK  Name = 
REMARK  8 active torsions:
REMARK  status: ('A' for Active; 'I' for Inactive)
REMARK    1  A    between atoms: C_1  and  C_2
REMARK    2  A    between atoms: C_2  and  C_3
REMARK    3  A    between atoms: C_6  and  N_7
REMARK    4  A    between atoms: C_8  and  C_10
REMARK    5  A    between atoms: C_10  and  C_11
REMARK    6  A    between atoms: C_11  and  N_12
REMARK    7  A    between atoms: C_13  and  C_15
REMARK    8  A    between atoms: C_15  and  N_16
REMARK                            x       y       z     vdW  Elec       q    Type
REMARK                         _______ _______ _______ _____ _____    ______ ____
ROOT
ATOM      1  N   UNL     1       6.688   6.060  17.804  0.00  0.00    +0.000 N 
ATOM      2  C   UNL     1       6.412   5.954  16.440  0.00  0.00    +0.000 C 
ATOM      3  O   UNL     1       7.305   5.913  15.599  0.00  0.00    +0.000 OA
ATOM      4  H   UNL     1       5.930   6.244  18.451  0.00  0.00    +0.000 HD
ENDROOT
BRANCH   1   5
ATOM      5  C   UNL     1       8.073   6.179  18.268  0.00  0.00    +0.000 C 
BRANCH   5   6
ATOM      6  C   UNL     1       8.342   7.378  19.175  0.00  0.00    +0.000 C 
BRANCH   6   8
ATOM      7  N   UNL     1       9.318   9.629  19.046  0.00  0.00    +0.000 N 
ATOM      8  C   UNL     1       8.549   8.676  18.395  0.00  0.00    +0.000 C 
ATOM      9  O   UNL     1       8.027   8.804  17.290  0.00  0.00    +0.000 OA
ATOM     10  H   UNL     1       9.684   9.390  19.959  0.00  0.00    +0.000 HD
BRANCH   7  14
ATOM     11  C   UNL     1      10.336  13.534  17.662  0.00  0.00    +0.000 A 
ATOM     12  C   UNL     1      11.339  12.658  18.089  0.00  0.00    +0.000 A 
ATOM     13  C   UNL     1      11.033  11.360  18.528  0.00  0.00    +0.000 A 
ATOM     14  C   UNL     1       9.714  10.903  18.550  0.00  0.00    +0.000 A 
ATOM     15  C   UNL     1       8.713  11.762  18.076  0.00  0.00    +0.000 A 
ATOM     16  C   UNL     1       9.017  13.061  17.640  0.00  0.00    +0.000 A 
BRANCH  11  18
ATOM     17  C   UNL     1       9.594  15.950  17.657  0.00  0.00    +0.000 C 
ATOM     18  C   UNL     1      10.667  14.948  17.263  0.00  0.00    +0.000 C 
ENDBRANCH  11  18
ENDBRANCH   7  14
ENDBRANCH   6   8
ENDBRANCH   5   6
ENDBRANCH   1   5
BRANCH   2  19
ATOM     19  C   UNL     1       4.909   5.834  16.077  0.00  0.00    +0.000 C 
BRANCH  19  20
ATOM     20  N   UNL     1       4.041   5.370  17.169  0.00  0.00    +0.000 N 
ATOM     21  C   UNL     1       3.313   6.317  17.894  0.00  0.00    +0.000 A 
ATOM     22  C   UNL     1       2.984   6.001  19.162  0.00  0.00    +0.000 A 
ATOM     23  C   UNL     1       2.299   4.695  19.240  0.00  0.00    +0.000 A 
ATOM     24  C   UNL     1       1.258   4.474  20.143  0.00  0.00    +0.000 A 
ATOM     25  C   UNL     1       0.557   3.268  20.094  0.00  0.00    +0.000 A 
ATOM     26  C   UNL     1       0.919   2.279  19.172  0.00  0.00    +0.000 A 
ATOM     27  C   UNL     1       2.010   2.473  18.315  0.00  0.00    +0.000 A 
ATOM     28  C   UNL     1       2.699   3.686  18.347  0.00  0.00    +0.000 A 
ATOM     29  C   UNL     1       3.818   3.998  17.391  0.00  0.00    +0.000 A 
ATOM     30  O   UNL     1       4.445   3.093  16.851  0.00  0.00    +0.000 OA
ENDBRANCH  19  20
ENDBRANCH   2  19
TORSDOF 7
ENDMDL
MODEL 6
REMARK VINA RESULT:      -8.0      6.678      8.726
REMARK  Name = 
REMARK  8 active torsions:
REMARK  status: ('A' for Active; 'I' for Inactive)
REMARK    1  A    between atoms: C_1  and  C_2
REMARK    2  A    between atoms: C_2  and  C_3
REMARK    3  A    between atoms: C_6  and  N_7
REMARK    4  A    between atoms: C_8  and  C_10
REMARK    5  A    between atoms: C_10  and  C_11
REMARK    6  A    between atoms: C_11  and  N_12
REMARK    7  A    between atoms: C_13  and  C_15
REMARK    8  A    between atoms: C_15  and  N_16
REMARK                            x       y       z     vdW  Elec       q    Type
REMARK                         _______ _______ _______ _____ _____    ______ ____
ROOT
ATOM      1  N   UNL     1       3.927   4.039  19.081  0.00  0.00    +0.000 N 
ATOM      2  C   UNL     1       5.108   4.781  19.060  0.00  0.00    +0.000 C 
ATOM      3  O   UNL     1       5.984   4.630  19.907  0.00  0.00    +0.000 OA
ATOM      4  H   UNL     1       3.168   4.296  18.461  0.00  0.00    +0.000 HD
ENDROOT
BRANCH   1   5
ATOM      5  C   UNL     1       3.677   3.082  20.162  0.00  0.00    +0.000 C 
BRANCH   5   6
ATOM      6  C   UNL     1       2.621   3.521  21.174  0.00  0.00    +0.000 C 
BRANCH   6   8
ATOM      7  N   UNL     1       2.356   5.938  20.815  0.00  0.00    +0.000 N 
ATOM      8  C   UNL     1       1.770   4.689  20.672  0.00  0.00    +0.000 C 
ATOM      9  O   UNL     1       0.654   4.465  20.211  0.00  0.00    +0.000 OA
ATOM     10  H   UNL     1       3.284   5.975  21.217  0.00  0.00    +0.000 HD
BRANCH   7  14
ATOM     11  C   UNL     1       0.812   9.773  19.763  0.00  0.00    +0.000 A 
ATOM     12  C   UNL     1       1.579   9.050  18.844  0.00  0.00    +0.000 A 
ATOM     13  C   UNL     1       2.081   7.777  19.157  0.00  0.00    +0.000 A 
ATOM     14  C   UNL     1       1.826   7.191  20.399  0.00  0.00    +0.000 A 
ATOM     15  C   UNL     1       1.017   7.893  21.302  0.00  0.00    +0.000 A 
ATOM     16  C   UNL     1       0.518   9.168  20.992  0.00  0.00    +0.000 A 
BRANCH  11  18
ATOM     17  C   UNL     1       0.768  12.196  20.480  0.00  0.00    +0.000 C 
ATOM     18  C   UNL     1       0.343  11.168  19.444  0.00  0.00    +0.000 C 
ENDBRANCH  11  18
ENDBRANCH   7  14
ENDBRANCH   6   8
ENDBRANCH   5   6
ENDBRANCH   1   5
BRANCH   2  19
ATOM     19  C   UNL     1       5.253   5.758  17.865  0.00  0.00    +0.000 C 
BRANCH  19  20
ATOM     20  N   UNL     1       5.637   5.131  16.592  0.00  0.00    +0.000 N 
ATOM     21  C   UNL     1       4.720   4.289  15.958  0.00  0.00    +0.000 A 
ATOM     22  C   UNL     1       5.221   3.330  15.154  0.00  0.00    +0.000 A 
ATOM     23  C   UNL     1       6.148   3.887  14.149  0.00  0.00    +0.000 A 
ATOM     24  C   UNL     1       6.200   3.380  12.849  0.00  0.00    +0.000 A 
ATOM     25  C   UNL     1       6.998   4.019  11.899  0.00  0.00    +0.000 A 
ATOM     26  C   UNL     1       7.763   5.136  12.258  0.00  0.00    +0.000 A 
ATOM     27  C   UNL     1       7.765   5.601  13.579  0.00  0.00    +0.000 A 
ATOM     28  C   UNL     1       6.952   4.976  14.526  0.00  0.00    +0.000 A 
ATOM     29  C   UNL     1       6.833   5.481  15.938  0.00  0.00    +0.000 A 
ATOM     30  O   UNL     1       7.724   6.164  16.431  0.00  0.00    +0.000 OA
ENDBRANCH  19  20
ENDBRANCH   2  19
TORSDOF 7
ENDMDL
MODEL 7
REMARK VINA RESULT:      -7.9      1.639      1.943
REMARK  Name = 
REMARK  8 active torsions:
REMARK  status: ('A' for Active; 'I' for Inactive)
REMARK    1  A    between atoms: C_1  and  C_2
REMARK    2  A    between atoms: C_2  and  C_3
REMARK    3  A    between atoms: C_6  and  N_7
REMARK    4  A    between atoms: C_8  and  C_10
REMARK    5  A    between atoms: C_10  and  C_11
REMARK    6  A    between atoms: C_11  and  N_12
REMARK    7  A    between atoms: C_13  and  C_15
REMARK    8  A    between atoms: C_15  and  N_16
REMARK                            x       y       z     vdW  Elec       q    Type
REMARK                         _______ _______ _______ _____ _____    ______ ____
ROOT
ATOM      1  N   UNL     1       7.336   7.003  18.171  0.00  0.00    +0.000 N 
ATOM      2  C   UNL     1       7.194   6.052  17.160  0.00  0.00    +0.000 C 
ATOM      3  O   UNL     1       7.416   6.320  15.983  0.00  0.00    +0.000 OA
ATOM      4  H   UNL     1       7.000   6.790  19.104  0.00  0.00    +0.000 HD
ENDROOT
BRANCH   1   5
ATOM      5  C   UNL     1       7.710   8.381  17.840  0.00  0.00    +0.000 C 
BRANCH   5   6
ATOM      6  C   UNL     1       9.059   8.829  18.399  0.00  0.00    +0.000 C 
BRANCH   6   8
ATOM      7  N   UNL     1       9.142  11.213  17.811  0.00  0.00    +0.000 N 
ATOM      8  C   UNL     1       9.059  10.292  18.844  0.00  0.00    +0.000 C 
ATOM      9  O   UNL     1       9.009  10.556  20.043  0.00  0.00    +0.000 OA
ATOM     10  H   UNL     1       9.182  10.853  16.867  0.00  0.00    +0.000 HD
BRANCH   7  14
ATOM     11  C   UNL     1       9.223  15.475  17.987  0.00  0.00    +0.000 A 
ATOM     12  C   UNL     1       8.000  14.796  17.990  0.00  0.00    +0.000 A 
ATOM     13  C   UNL     1       7.946  13.394  17.955  0.00  0.00    +0.000 A 
ATOM     14  C   UNL     1       9.116  12.632  17.918  0.00  0.00    +0.000 A 
ATOM     15  C   UNL     1      10.342  13.309  17.965  0.00  0.00    +0.000 A 
ATOM     16  C   UNL     1      10.398  14.711  17.996  0.00  0.00    +0.000 A 
BRANCH  11  18
ATOM     17  C   UNL     1       8.011  17.632  18.503  0.00  0.00    +0.000 C 
ATOM     18  C   UNL     1       9.268  16.980  17.949  0.00  0.00    +0.000 C 
ENDBRANCH  11  18
ENDBRANCH   7  14
ENDBRANCH   6   8
ENDBRANCH   5   6
ENDBRANCH   1   5
BRANCH   2  19
ATOM     19  C   UNL     1       6.797   4.632  17.639  0.00  0.00    +0.000 C 
BRANCH  19  20
ATOM     20  N   UNL     1       5.358   4.433  17.869  0.00  0.00    +0.000 N 
ATOM     21  C   UNL     1       4.641   3.637  16.973  0.00  0.00    +0.000 A 
ATOM     22  C   UNL     1       3.323   3.888  16.847  0.00  0.00    +0.000 A 
ATOM     23  C   UNL     1       2.638   3.889  18.155  0.00  0.00    +0.000 A 
ATOM     24  C   UNL     1       1.346   3.380  18.300  0.00  0.00    +0.000 A 
ATOM     25  C   UNL     1       0.789   3.285  19.575  0.00  0.00    +0.000 A 
ATOM     26  C   UNL     1       1.507   3.727  20.693  0.00  0.00    +0.000 A 
ATOM     27  C   UNL     1       2.774   4.303  20.540  0.00  0.00    +0.000 A 
ATOM     28  C   UNL     1       3.343   4.380  19.268  0.00  0.00    +0.000 A 
ATOM     29  C   UNL     1       4.736   4.899  19.043  0.00  0.00    +0.000 A 
ATOM     30  O   UNL     1       5.261   5.648  19.860  0.00  0.00    +0.000 OA
ENDBRANCH  19  20
ENDBRANCH   2  19
TORSDOF 7
ENDMDL
MODEL 8
REMARK VINA RESULT:      -7.9      1.714      2.520
REMARK  Name = 
REMARK  8 active torsions:
REMARK  status: ('A' for Active; 'I' for Inactive)
REMARK    1  A    between atoms: C_1  and  C_2
REMARK    2  A    between atoms: C_2  and  C_3
REMARK    3  A    between atoms: C_6  and  N_7
REMARK    4  A    between atoms: C_8  and  C_10
REMARK    5  A    between atoms: C_10  and  C_11
REMARK    6  A    between atoms: C_11  and  N_12
REMARK    7  A    between atoms: C_13  and  C_15
REMARK    8  A    between atoms: C_15  and  N_16
REMARK                            x       y       z     vdW  Elec       q    Type
REMARK                         _______ _______ _______ _____ _____    ______ ____
ROOT
ATOM      1  N   UNL     1       6.765   6.545  17.473  0.00  0.00    +0.000 N 
ATOM      2  C   UNL     1       6.890   5.157  17.525  0.00  0.00    +0.000 C 
ATOM      3  O   UNL     1       7.882   4.613  18.002  0.00  0.00    +0.000 OA
ATOM      4  H   UNL     1       6.008   6.955  16.938  0.00  0.00    +0.000 HD
ENDROOT
BRANCH   1   5
ATOM      5  C   UNL     1       7.854   7.402  17.947  0.00  0.00    +0.000 C 
BRANCH   5   6
ATOM      6  C   UNL     1       7.688   8.886  17.626  0.00  0.00    +0.000 C 
BRANCH   6   8
ATOM      7  N   UNL     1       8.907  11.010  17.823  0.00  0.00    +0.000 N 
ATOM      8  C   UNL     1       8.663   9.773  18.400  0.00  0.00    +0.000 C 
ATOM      9  O   UNL     1       9.171   9.348  19.435  0.00  0.00    +0.000 OA
ATOM     10  H   UNL     1       8.420  11.228  16.963  0.00  0.00    +0.000 HD
BRANCH   7  14
ATOM     11  C   UNL     1      11.448  14.162  19.167  0.00  0.00    +0.000 A 
ATOM     12  C   UNL     1      10.120  14.099  19.602  0.00  0.00    +0.000 A 
ATOM     13  C   UNL     1       9.269  13.060  19.192  0.00  0.00    +0.000 A 
ATOM     14  C   UNL     1       9.725  12.054  18.337  0.00  0.00    +0.000 A 
ATOM     15  C   UNL     1      11.069  12.089  17.940  0.00  0.00    +0.000 A 
ATOM     16  C   UNL     1      11.920  13.129  18.346  0.00  0.00    +0.000 A 
BRANCH  11  18
ATOM     17  C   UNL     1      11.924  16.629  18.895  0.00  0.00    +0.000 C 
ATOM     18  C   UNL     1      12.330  15.320  19.553  0.00  0.00    +0.000 C 
ENDBRANCH  11  18
ENDBRANCH   7  14
ENDBRANCH   6   8
ENDBRANCH   5   6
ENDBRANCH   1   5
BRANCH   2  19
ATOM     19  C   UNL     1       5.669   4.362  16.994  0.00  0.00    +0.000 C 
BRANCH  19  20
ATOM     20  N   UNL     1       4.782   3.818  18.033  0.00  0.00    +0.000 N 
ATOM     21  C   UNL     1       5.276   3.688  19.333  0.00  0.00    +0.000 A 
ATOM     22  C   UNL     1       4.719   2.737  20.110  0.00  0.00    +0.000 A 
ATOM     23  C   UNL     1       3.248   2.859  20.155  0.00  0.00    +0.000 A 
ATOM     24  C   UNL     1       2.533   2.595  21.325  0.00  0.00    +0.000 A 
ATOM     25  C   UNL     1       1.161   2.846  21.357  0.00  0.00    +0.000 A 
ATOM     26  C   UNL     1       0.505   3.325  20.216  0.00  0.00    +0.000 A 
ATOM     27  C   UNL     1       1.210   3.523  19.022  0.00  0.00    +0.000 A 
ATOM     28  C   UNL     1       2.586   3.292  18.993  0.00  0.00    +0.000 A 
ATOM     29  C   UNL     1       3.420   3.574  17.774  0.00  0.00    +0.000 A 
ATOM     30  O   UNL     1       2.906   3.604  16.662  0.00  0.00    +0.000 OA
ENDBRANCH  19  20
ENDBRANCH   2  19
TORSDOF 7
ENDMDL
MODEL 9
REMARK VINA RESULT:      -7.9      1.990      2.651
REMARK  Name = 
REMARK  8 active torsions:
REMARK  status: ('A' for Active; 'I' for Inactive)
REMARK    1  A    between atoms: C_1  and  C_2
REMARK    2  A    between atoms: C_2  and  C_3
REMARK    3  A    between atoms: C_6  and  N_7
REMARK    4  A    between atoms: C_8  and  C_10
REMARK    5  A    between atoms: C_10  and  C_11
REMARK    6  A    between atoms: C_11  and  N_12
REMARK    7  A    between atoms: C_13  and  C_15
REMARK    8  A    between atoms: C_15  and  N_16
REMARK                            x       y       z     vdW  Elec       q    Type
REMARK                         _______ _______ _______ _____ _____    ______ ____
ROOT
ATOM      1  N   UNL     1       7.196   6.580  17.439  0.00  0.00    +0.000 N 
ATOM      2  C   UNL     1       6.169   6.213  16.569  0.00  0.00    +0.000 C 
ATOM      3  O   UNL     1       5.710   6.994  15.740  0.00  0.00    +0.000 OA
ATOM      4  H   UNL     1       7.442   5.964  18.204  0.00  0.00    +0.000 HD
ENDROOT
BRANCH   1   5
ATOM      5  C   UNL     1       7.725   7.947  17.419  0.00  0.00    +0.000 C 
BRANCH   5   6
ATOM      6  C   UNL     1       8.557   8.328  18.642  0.00  0.00    +0.000 C 
BRANCH   6   8
ATOM      7  N   UNL     1       9.537  10.229  19.852  0.00  0.00    +0.000 N 
ATOM      8  C   UNL     1       8.823   9.831  18.731  0.00  0.00    +0.000 C 
ATOM      9  O   UNL     1       8.390  10.572  17.853  0.00  0.00    +0.000 OA
ATOM     10  H   UNL     1       9.829   9.508  20.499  0.00  0.00    +0.000 HD
BRANCH   7  14
ATOM     11  C   UNL     1      10.892  14.200  20.619  0.00  0.00    +0.000 A 
ATOM     12  C   UNL     1       9.700  13.744  21.191  0.00  0.00    +0.000 A 
ATOM     13  C   UNL     1       9.243  12.435  20.972  0.00  0.00    +0.000 A 
ATOM     14  C   UNL     1       9.969  11.545  20.176  0.00  0.00    +0.000 A 
ATOM     15  C   UNL     1      11.188  11.986  19.643  0.00  0.00    +0.000 A 
ATOM     16  C   UNL     1      11.644  13.296  19.858  0.00  0.00    +0.000 A 
BRANCH  11  18
ATOM     17  C   UNL     1      10.442  16.419  21.743  0.00  0.00    +0.000 C 
ATOM     18  C   UNL     1      11.334  15.629  20.800  0.00  0.00    +0.000 C 
ENDBRANCH  11  18
ENDBRANCH   7  14
ENDBRANCH   6   8
ENDBRANCH   5   6
ENDBRANCH   1   5
BRANCH   2  19
ATOM     19  C   UNL     1       5.697   4.740  16.687  0.00  0.00    +0.000 C 
BRANCH  19  20
ATOM     20  N   UNL     1       4.675   4.495  17.715  0.00  0.00    +0.000 N 
ATOM     21  C   UNL     1       4.265   5.562  18.518  0.00  0.00    +0.000 A 
ATOM     22  C   UNL     1       3.791   5.262  19.744  0.00  0.00    +0.000 A 
ATOM     23  C   UNL     1       2.713   4.254  19.682  0.00  0.00    +0.000 A 
ATOM     24  C   UNL     1       1.616   4.312  20.543  0.00  0.00    +0.000 A 
ATOM     25  C   UNL     1       0.562   3.415  20.364  0.00  0.00    +0.000 A 
ATOM     26  C   UNL     1       0.623   2.447  19.354  0.00  0.00    +0.000 A 
ATOM     27  C   UNL     1       1.756   2.344  18.537  0.00  0.00    +0.000 A 
ATOM     28  C   UNL     1       2.802   3.253  18.700  0.00  0.00    +0.000 A 
ATOM     29  C   UNL     1       4.005   3.260  17.796  0.00  0.00    +0.000 A 
ATOM     30  O   UNL     1       4.325   2.251  17.179  0.00  0.00    +0.000 OA
ENDBRANCH  19  20
ENDBRANCH   2  19
TORSDOF 7
ENDMDL
