MODEL 1
REMARK VINA RESULT:      -9.6      0.000      0.000
REMARK  Name = 
REMARK  6 active torsions:
REMARK  status: ('A' for Active; 'I' for Inactive)
REMARK    1  A    between atoms: S_2  and  N_4
REMARK    2  A    between atoms: S_2  and  C_23
REMARK    3  A    between atoms: N_4  and  C_5
REMARK    4  A    between atoms: C_5  and  C_6
REMARK    5  A    between atoms: C_6  and  N_7
REMARK    6  A    between atoms: C_10  and  C_11
REMARK                            x       y       z     vdW  Elec       q    Type
REMARK                         _______ _______ _______ _____ _____    ______ ____
ROOT
ATOM      1  C   UNL     1       7.932   7.702  17.829  0.00  0.00    +0.000 C 
ENDROOT
BRANCH   1   2
ATOM      2  N   UNL     1       7.042   6.952  16.907  0.00  0.00    +0.000 NA
ATOM      3  C   UNL     1       7.450   5.565  16.708  0.00  0.00    +0.000 C 
ATOM      4  C   UNL     1       6.470   4.687  15.936  0.00  0.00    +0.000 C 
ATOM      5  C   UNL     1       5.034   4.821  16.447  0.00  0.00    +0.000 C 
ATOM      6  C   UNL     1       4.654   6.304  16.393  0.00  0.00    +0.000 C 
ATOM      7  C   UNL     1       5.623   7.198  17.173  0.00  0.00    +0.000 C 
BRANCH   5   8
ATOM      8  C   UNL     1       4.772   4.185  17.793  0.00  0.00    +0.000 A 
ATOM      9  N   UNL     1       5.778   3.874  18.627  0.00  0.00    +0.000 NA
ATOM     10  O   UNL     1       5.196   3.382  19.777  0.00  0.00    +0.000 OA
ATOM     11  C   UNL     1       3.848   3.384  19.643  0.00  0.00    +0.000 A 
ATOM     12  C   UNL     1       2.925   2.969  20.602  0.00  0.00    +0.000 A 
ATOM     13  C   UNL     1       1.590   3.058  20.235  0.00  0.00    +0.000 A 
ATOM     14  F   UNL     1       0.645   2.682  21.110  0.00  0.00    +0.000 F 
ATOM     15  C   UNL     1       1.199   3.524  18.983  0.00  0.00    +0.000 A 
ATOM     16  C   UNL     1       2.151   3.944  18.039  0.00  0.00    +0.000 A 
ATOM     17  C   UNL     1       3.513   3.869  18.389  0.00  0.00    +0.000 A 
ENDBRANCH   5   8
ENDBRANCH   1   2
BRANCH   1  18
ATOM     18  C   UNL     1       7.921   9.263  17.871  0.00  0.00    +0.000 C 
BRANCH  18  19
ATOM     19  N   UNL     1       8.935   9.841  18.782  0.00  0.00    +0.000 NA
ATOM     20  H   UNL     1       8.637   9.915  19.752  0.00  0.00    +0.000 HD
BRANCH  19  22
ATOM     21  O   UNL     1      10.898  11.273  18.040  0.00  0.00    +0.000 OA
ATOM     22  S   UNL     1       9.515  11.386  18.439  0.00  0.00    +0.000 S 
ATOM     23  O   UNL     1       8.522  12.001  17.588  0.00  0.00    +0.000 OA
BRANCH  22  24
ATOM     24  C   UNL     1       9.433  12.209  20.008  0.00  0.00    +0.000 A 
ATOM     25  C   UNL     1       9.764  13.561  20.085  0.00  0.00    +0.000 A 
ATOM     26  C   UNL     1       9.586  14.244  21.286  0.00  0.00    +0.000 A 
ATOM     27  C   UNL     1       9.072  13.585  22.414  0.00  0.00    +0.000 A 
ATOM     28  C   UNL     1       8.859  14.274  23.617  0.00  0.00    +0.000 A 
ATOM     29  C   UNL     1       8.332  13.618  24.729  0.00  0.00    +0.000 A 
ATOM     30  C   UNL     1       8.020  12.264  24.656  0.00  0.00    +0.000 A 
ATOM     31  C   UNL     1       8.227  11.562  23.468  0.00  0.00    +0.000 A 
ATOM     32  C   UNL     1       8.749  12.208  22.334  0.00  0.00    +0.000 A 
ATOM     33  C   UNL     1       8.934  11.528  21.121  0.00  0.00    +0.000 A 
ENDBRANCH  22  24
ENDBRANCH  19  22
ENDBRANCH  18  19
ENDBRANCH   1  18
TORSDOF 6
ENDMDL
MODEL 2
REMARK VINA RESULT:      -9.4      3.102      9.677
REMARK  Name = 
REMARK  6 active torsions:
REMARK  status: ('A' for Active; 'I' for Inactive)
REMARK    1  A    between atoms: S_2  and  N_4
REMARK    2  A    between atoms: S_2  and  C_23
REMARK    3  A    between atoms: N_4  and  C_5
REMARK    4  A    between atoms: C_5  and  C_6
REMARK    5  A    between atoms: C_6  and  N_7
REMARK    6  A    between atoms: C_10  and  C_11
REMARK                            x       y       z     vdW  Elec       q    Type
REMARK                         _______ _______ _______ _____ _____    ______ ____
ROOT
ATOM      1  C   UNL     1       8.111   9.403  17.998  0.00  0.00    +0.000 C 
ENDROOT
BRANCH   1   2
ATOM      2  N   UNL     1       9.156  10.399  18.345  0.00  0.00    +0.000 NA
ATOM      3  C   UNL     1       8.915  11.717  17.767  0.00  0.00    +0.000 C 
ATOM      4  C   UNL     1       9.837  12.833  18.247  0.00  0.00    +0.000 C 
ATOM      5  C   UNL     1       9.976  12.864  19.771  0.00  0.00    +0.000 C 
ATOM      6  C   UNL     1      10.452  11.481  20.226  0.00  0.00    +0.000 C 
ATOM      7  C   UNL     1       9.530  10.350  19.760  0.00  0.00    +0.000 C 
BRANCH   5   8
ATOM      8  C   UNL     1       8.755  13.352  20.516  0.00  0.00    +0.000 A 
ATOM      9  N   UNL     1       7.919  14.252  19.973  0.00  0.00    +0.000 NA
ATOM     10  O   UNL     1       6.888  14.424  20.874  0.00  0.00    +0.000 OA
ATOM     11  C   UNL     1       7.099  13.643  21.962  0.00  0.00    +0.000 A 
ATOM     12  C   UNL     1       6.265  13.541  23.075  0.00  0.00    +0.000 A 
ATOM     13  C   UNL     1       6.693  12.675  24.072  0.00  0.00    +0.000 A 
ATOM     14  F   UNL     1       5.938  12.522  25.171  0.00  0.00    +0.000 F 
ATOM     15  C   UNL     1       7.884  11.963  23.970  0.00  0.00    +0.000 A 
ATOM     16  C   UNL     1       8.699  12.079  22.832  0.00  0.00    +0.000 A 
ATOM     17  C   UNL     1       8.286  12.946  21.802  0.00  0.00    +0.000 A 
ENDBRANCH   5   8
ENDBRANCH   1   2
BRANCH   1  18
ATOM     18  C   UNL     1       8.259   7.901  18.403  0.00  0.00    +0.000 C 
BRANCH  18  19
ATOM     19  N   UNL     1       7.381   6.989  17.637  0.00  0.00    +0.000 NA
ATOM     20  H   UNL     1       6.394   7.232  17.664  0.00  0.00    +0.000 HD
BRANCH  19  22
ATOM     21  O   UNL     1       8.030   4.619  16.990  0.00  0.00    +0.000 OA
ATOM     22  S   UNL     1       7.386   5.355  18.052  0.00  0.00    +0.000 S 
ATOM     23  O   UNL     1       7.857   5.296  19.418  0.00  0.00    +0.000 OA
BRANCH  22  24
ATOM     24  C   UNL     1       5.663   4.937  18.081  0.00  0.00    +0.000 A 
ATOM     25  C   UNL     1       5.094   4.319  16.969  0.00  0.00    +0.000 A 
ATOM     26  C   UNL     1       3.774   3.879  17.029  0.00  0.00    +0.000 A 
ATOM     27  C   UNL     1       3.016   4.046  18.199  0.00  0.00    +0.000 A 
ATOM     28  C   UNL     1       1.698   3.575  18.277  0.00  0.00    +0.000 A 
ATOM     29  C   UNL     1       0.956   3.730  19.448  0.00  0.00    +0.000 A 
ATOM     30  C   UNL     1       1.518   4.365  20.551  0.00  0.00    +0.000 A 
ATOM     31  C   UNL     1       2.829   4.841  20.490  0.00  0.00    +0.000 A 
ATOM     32  C   UNL     1       3.595   4.686  19.322  0.00  0.00    +0.000 A 
ATOM     33  C   UNL     1       4.925   5.129  19.251  0.00  0.00    +0.000 A 
ENDBRANCH  22  24
ENDBRANCH  19  22
ENDBRANCH  18  19
ENDBRANCH   1  18
TORSDOF 6
ENDMDL
MODEL 3
REMARK VINA RESULT:      -9.3      6.321      8.870
REMARK  Name = 
REMARK  6 active torsions:
REMARK  status: ('A' for Active; 'I' for Inactive)
REMARK    1  A    between atoms: S_2  and  N_4
REMARK    2  A    between atoms: S_2  and  C_23
REMARK    3  A    between atoms: N_4  and  C_5
REMARK    4  A    between atoms: C_5  and  C_6
REMARK    5  A    between atoms: C_6  and  N_7
REMARK    6  A    between atoms: C_10  and  C_11
REMARK                            x       y       z     vdW  Elec       q    Type
REMARK                         _______ _______ _______ _____ _____    ______ ____
ROOT
ATOM      1  C   UNL     1       1.841   6.911  20.438  0.00  0.00    +0.000 C 
ENDROOT
BRANCH   1   2
ATOM      2  N   UNL     1       1.834   5.526  19.901  0.00  0.00    +0.000 NA
ATOM      3  C   UNL     1       1.906   5.470  18.444  0.00  0.00    +0.000 C 
ATOM      4  C   UNL     1       2.106   4.083  17.841  0.00  0.00    +0.000 C 
ATOM      5  C   UNL     1       3.229   3.302  18.526  0.00  0.00    +0.000 C 
ATOM      6  C   UNL     1       2.915   3.244  20.023  0.00  0.00    +0.000 C 
ATOM      7  C   UNL     1       2.721   4.631  20.647  0.00  0.00    +0.000 C 
BRANCH   5   8
ATOM      8  C   UNL     1       4.627   3.796  18.227  0.00  0.00    +0.000 A 
ATOM      9  N   UNL     1       5.549   3.912  19.196  0.00  0.00    +0.000 NA
ATOM     10  O   UNL     1       6.716   4.315  18.581  0.00  0.00    +0.000 OA
ATOM     11  C   UNL     1       6.505   4.454  17.249  0.00  0.00    +0.000 A 
ATOM     12  C   UNL     1       7.455   4.835  16.302  0.00  0.00    +0.000 A 
ATOM     13  C   UNL     1       7.003   4.913  14.992  0.00  0.00    +0.000 A 
ATOM     14  F   UNL     1       7.862   5.268  14.025  0.00  0.00    +0.000 F 
ATOM     15  C   UNL     1       5.682   4.637  14.649  0.00  0.00    +0.000 A 
ATOM     16  C   UNL     1       4.750   4.246  15.624  0.00  0.00    +0.000 A 
ATOM     17  C   UNL     1       5.184   4.153  16.961  0.00  0.00    +0.000 A 
ENDBRANCH   5   8
ENDBRANCH   1   2
BRANCH   1  18
ATOM     18  C   UNL     1       1.723   8.146  19.489  0.00  0.00    +0.000 C 
BRANCH  18  19
ATOM     19  N   UNL     1       1.077   9.320  20.119  0.00  0.00    +0.000 NA
ATOM     20  H   UNL     1       0.103   9.179  20.374  0.00  0.00    +0.000 HD
BRANCH  19  22
ATOM     21  O   UNL     1       1.258  11.854  20.168  0.00  0.00    +0.000 OA
ATOM     22  S   UNL     1       1.041  10.763  19.247  0.00  0.00    +0.000 S 
ATOM     23  O   UNL     1       1.892  10.551  18.098  0.00  0.00    +0.000 OA
BRANCH  22  24
ATOM     24  C   UNL     1      -0.626  10.836  18.649  0.00  0.00    +0.000 A 
ATOM     25  C   UNL     1      -1.016   9.986  17.615  0.00  0.00    +0.000 A 
ATOM     26  C   UNL     1      -2.351   9.951  17.221  0.00  0.00    +0.000 A 
ATOM     27  C   UNL     1      -3.307  10.758  17.860  0.00  0.00    +0.000 A 
ATOM     28  C   UNL     1      -4.659  10.703  17.492  0.00  0.00    +0.000 A 
ATOM     29  C   UNL     1      -5.606  11.494  18.141  0.00  0.00    +0.000 A 
ATOM     30  C   UNL     1      -5.213  12.356  19.161  0.00  0.00    +0.000 A 
ATOM     31  C   UNL     1      -3.871  12.424  19.540  0.00  0.00    +0.000 A 
ATOM     32  C   UNL     1      -2.904  11.628  18.902  0.00  0.00    +0.000 A 
ATOM     33  C   UNL     1      -1.556  11.658  19.290  0.00  0.00    +0.000 A 
ENDBRANCH  22  24
ENDBRANCH  19  22
ENDBRANCH  18  19
ENDBRANCH   1  18
TORSDOF 6
ENDMDL
MODEL 4
REMARK VINA RESULT:      -9.2      6.254      8.760
REMARK  Name = 
REMARK  6 active torsions:
REMARK  status: ('A' for Active; 'I' for Inactive)
REMARK    1  A    between atoms: S_2  and  N_4
REMARK    2  A    between atoms: S_2  and  C_23
REMARK    3  A    between atoms: N_4  and  C_5
REMARK    4  A    between atoms: C_5  and  C_6
REMARK    5  A    between atoms: C_6  and  N_7
REMARK    6  A    between atoms: C_10  and  C_11
REMARK                            x       y       z     vdW  Elec       q    Type
REMARK                         _______ _______ _______ _____ _____    ______ ____
ROOT
ATOM      1  C   UNL     1       1.559   6.469  20.499  0.00  0.00    +0.000 C 
ENDROOT
BRANCH   1   2
ATOM      2  N   UNL     1       1.712   5.075  20.012  0.00  0.00    +0.000 NA
ATOM      3  C   UNL     1       1.782   4.973  18.558  0.00  0.00    +0.000 C 
ATOM      4  C   UNL     1       2.140   3.599  18.003  0.00  0.00    +0.000 C 
ATOM      5  C   UNL     1       3.350   2.980  18.706  0.00  0.00    +0.000 C 
ATOM      6  C   UNL     1       3.052   2.940  20.207  0.00  0.00    +0.000 C 
ATOM      7  C   UNL     1       2.700   4.317  20.782  0.00  0.00    +0.000 C 
BRANCH   5   8
ATOM      8  C   UNL     1       4.679   3.621  18.377  0.00  0.00    +0.000 A 
ATOM      9  N   UNL     1       5.583   3.886  19.334  0.00  0.00    +0.000 NA
ATOM     10  O   UNL     1       6.694   4.397  18.695  0.00  0.00    +0.000 OA
ATOM     11  C   UNL     1       6.465   4.455  17.360  0.00  0.00    +0.000 A 
ATOM     12  C   UNL     1       7.360   4.905  16.391  0.00  0.00    +0.000 A 
ATOM     13  C   UNL     1       6.900   4.874  15.082  0.00  0.00    +0.000 A 
ATOM     14  F   UNL     1       7.709   5.288  14.095  0.00  0.00    +0.000 F 
ATOM     15  C   UNL     1       5.620   4.431  14.760  0.00  0.00    +0.000 A 
ATOM     16  C   UNL     1       4.743   3.974  15.758  0.00  0.00    +0.000 A 
ATOM     17  C   UNL     1       5.187   3.989  17.094  0.00  0.00    +0.000 A 
ENDBRANCH   5   8
ENDBRANCH   1   2
BRANCH   1  18
ATOM     18  C   UNL     1       2.144   7.674  19.696  0.00  0.00    +0.000 C 
BRANCH  18  19
ATOM     19  N   UNL     1       1.380   8.930  19.868  0.00  0.00    +0.000 NA
ATOM     20  H   UNL     1       0.447   8.807  20.254  0.00  0.00    +0.000 HD
BRANCH  19  22
ATOM     21  O   UNL     1       2.041  10.984  18.526  0.00  0.00    +0.000 OA
ATOM     22  S   UNL     1       1.108   9.882  18.503  0.00  0.00    +0.000 S 
ATOM     23  O   UNL     1       1.037   8.964  17.389  0.00  0.00    +0.000 OA
BRANCH  22  24
ATOM     24  C   UNL     1      -0.530  10.508  18.763  0.00  0.00    +0.000 A 
ATOM     25  C   UNL     1      -0.782  11.317  19.870  0.00  0.00    +0.000 A 
ATOM     26  C   UNL     1      -2.033  11.911  20.016  0.00  0.00    +0.000 A 
ATOM     27  C   UNL     1      -3.038  11.708  19.056  0.00  0.00    +0.000 A 
ATOM     28  C   UNL     1      -4.289  12.329  19.179  0.00  0.00    +0.000 A 
ATOM     29  C   UNL     1      -5.277  12.136  18.214  0.00  0.00    +0.000 A 
ATOM     30  C   UNL     1      -5.031  11.313  17.119  0.00  0.00    +0.000 A 
ATOM     31  C   UNL     1      -3.792  10.686  16.982  0.00  0.00    +0.000 A 
ATOM     32  C   UNL     1      -2.782  10.875  17.940  0.00  0.00    +0.000 A 
ATOM     33  C   UNL     1      -1.518  10.279  17.803  0.00  0.00    +0.000 A 
ENDBRANCH  22  24
ENDBRANCH  19  22
ENDBRANCH  18  19
ENDBRANCH   1  18
TORSDOF 6
ENDMDL
MODEL 5
REMARK VINA RESULT:      -9.2      6.936     10.252
REMARK  Name = 
REMARK  6 active torsions:
REMARK  status: ('A' for Active; 'I' for Inactive)
REMARK    1  A    between atoms: S_2  and  N_4
REMARK    2  A    between atoms: S_2  and  C_23
REMARK    3  A    between atoms: N_4  and  C_5
REMARK    4  A    between atoms: C_5  and  C_6
REMARK    5  A    between atoms: C_6  and  N_7
REMARK    6  A    between atoms: C_10  and  C_11
REMARK                            x       y       z     vdW  Elec       q    Type
REMARK                         _______ _______ _______ _____ _____    ______ ____
ROOT
ATOM      1  C   UNL     1       0.928   7.792  20.953  0.00  0.00    +0.000 C 
ENDROOT
BRANCH   1   2
ATOM      2  N   UNL     1       1.028   9.220  20.560  0.00  0.00    +0.000 NA
ATOM      3  C   UNL     1       1.281   9.412  19.135  0.00  0.00    +0.000 C 
ATOM      4  C   UNL     1       1.194  10.849  18.631  0.00  0.00    +0.000 C 
ATOM      5  C   UNL     1      -0.067  11.566  19.118  0.00  0.00    +0.000 C 
ATOM      6  C   UNL     1      -0.093  11.484  20.647  0.00  0.00    +0.000 C 
ATOM      7  C   UNL     1      -0.017  10.045  21.168  0.00  0.00    +0.000 C 
BRANCH   5   8
ATOM      8  C   UNL     1      -1.354  11.107  18.472  0.00  0.00    +0.000 A 
ATOM      9  N   UNL     1      -1.356  10.178  17.502  0.00  0.00    +0.000 NA
ATOM     10  O   UNL     1      -2.679   9.943  17.187  0.00  0.00    +0.000 OA
ATOM     11  C   UNL     1      -3.476  10.730  17.950  0.00  0.00    +0.000 A 
ATOM     12  C   UNL     1      -4.870  10.762  17.922  0.00  0.00    +0.000 A 
ATOM     13  C   UNL     1      -5.471  11.656  18.797  0.00  0.00    +0.000 A 
ATOM     14  F   UNL     1      -6.810  11.737  18.830  0.00  0.00    +0.000 F 
ATOM     15  C   UNL     1      -4.728  12.475  19.642  0.00  0.00    +0.000 A 
ATOM     16  C   UNL     1      -3.325  12.414  19.655  0.00  0.00    +0.000 A 
ATOM     17  C   UNL     1      -2.689  11.511  18.781  0.00  0.00    +0.000 A 
ENDBRANCH   5   8
ENDBRANCH   1   2
BRANCH   1  18
ATOM     18  C   UNL     1       1.866   6.713  20.324  0.00  0.00    +0.000 C 
BRANCH  18  19
ATOM     19  N   UNL     1       2.242   5.632  21.263  0.00  0.00    +0.000 NA
ATOM     20  H   UNL     1       3.217   5.645  21.552  0.00  0.00    +0.000 HD
BRANCH  19  22
ATOM     21  O   UNL     1       2.509   3.163  21.800  0.00  0.00    +0.000 OA
ATOM     22  S   UNL     1       2.011   4.038  20.765  0.00  0.00    +0.000 S 
ATOM     23  O   UNL     1       0.646   3.965  20.294  0.00  0.00    +0.000 OA
BRANCH  22  24
ATOM     24  C   UNL     1       3.057   3.901  19.340  0.00  0.00    +0.000 A 
ATOM     25  C   UNL     1       2.498   3.525  18.120  0.00  0.00    +0.000 A 
ATOM     26  C   UNL     1       3.288   3.532  16.972  0.00  0.00    +0.000 A 
ATOM     27  C   UNL     1       4.636   3.919  17.033  0.00  0.00    +0.000 A 
ATOM     28  C   UNL     1       5.427   3.961  15.876  0.00  0.00    +0.000 A 
ATOM     29  C   UNL     1       6.761   4.363  15.941  0.00  0.00    +0.000 A 
ATOM     30  C   UNL     1       7.323   4.719  17.164  0.00  0.00    +0.000 A 
ATOM     31  C   UNL     1       6.551   4.683  18.325  0.00  0.00    +0.000 A 
ATOM     32  C   UNL     1       5.202   4.289  18.278  0.00  0.00    +0.000 A 
ATOM     33  C   UNL     1       4.400   4.276  19.429  0.00  0.00    +0.000 A 
ENDBRANCH  22  24
ENDBRANCH  19  22
ENDBRANCH  18  19
ENDBRANCH   1  18
TORSDOF 6
ENDMDL
MODEL 6
REMARK VINA RESULT:      -9.1      4.332     10.876
REMARK  Name = 
REMARK  6 active torsions:
REMARK  status: ('A' for Active; 'I' for Inactive)
REMARK    1  A    between atoms: S_2  and  N_4
REMARK    2  A    between atoms: S_2  and  C_23
REMARK    3  A    between atoms: N_4  and  C_5
REMARK    4  A    between atoms: C_5  and  C_6
REMARK    5  A    between atoms: C_6  and  N_7
REMARK    6  A    between atoms: C_10  and  C_11
REMARK                            x       y       z     vdW  Elec       q    Type
REMARK                         _______ _______ _______ _____ _____    ______ ____
ROOT
ATOM      1  C   UNL     1       8.031   9.468  18.367  0.00  0.00    +0.000 C 
ENDROOT
BRANCH   1   2
ATOM      2  N   UNL     1       9.313  10.064  18.821  0.00  0.00    +0.000 NA
ATOM      3  C   UNL     1      10.020  10.789  17.769  0.00  0.00    +0.000 C 
ATOM      4  C   UNL     1      11.237  11.591  18.217  0.00  0.00    +0.000 C 
ATOM      5  C   UNL     1      10.951  12.453  19.449  0.00  0.00    +0.000 C 
ATOM      6  C   UNL     1      10.424  11.532  20.553  0.00  0.00    +0.000 C 
ATOM      7  C   UNL     1       9.194  10.726  20.122  0.00  0.00    +0.000 C 
BRANCH   5   8
ATOM      8  C   UNL     1      10.067  13.654  19.199  0.00  0.00    +0.000 A 
ATOM      9  N   UNL     1       8.828  13.728  19.711  0.00  0.00    +0.000 NA
ATOM     10  O   UNL     1       8.329  14.964  19.355  0.00  0.00    +0.000 OA
ATOM     11  C   UNL     1       9.252  15.634  18.623  0.00  0.00    +0.000 A 
ATOM     12  C   UNL     1       9.111  16.918  18.097  0.00  0.00    +0.000 A 
ATOM     13  C   UNL     1      10.194  17.397  17.374  0.00  0.00    +0.000 A 
ATOM     14  F   UNL     1      10.132  18.628  16.843  0.00  0.00    +0.000 F 
ATOM     15  C   UNL     1      11.345  16.638  17.178  0.00  0.00    +0.000 A 
ATOM     16  C   UNL     1      11.462  15.351  17.728  0.00  0.00    +0.000 A 
ATOM     17  C   UNL     1      10.380  14.843  18.472  0.00  0.00    +0.000 A 
ENDBRANCH   5   8
ENDBRANCH   1   2
BRANCH   1  18
ATOM     18  C   UNL     1       8.008   8.189  17.470  0.00  0.00    +0.000 C 
BRANCH  18  19
ATOM     19  N   UNL     1       7.509   6.983  18.168  0.00  0.00    +0.000 NA
ATOM     20  H   UNL     1       8.083   6.681  18.950  0.00  0.00    +0.000 HD
BRANCH  19  22
ATOM     21  O   UNL     1       7.490   5.900  15.869  0.00  0.00    +0.000 OA
ATOM     22  S   UNL     1       7.316   5.573  17.265  0.00  0.00    +0.000 S 
ATOM     23  O   UNL     1       8.124   4.570  17.922  0.00  0.00    +0.000 OA
BRANCH  22  24
ATOM     24  C   UNL     1       5.621   5.137  17.548  0.00  0.00    +0.000 A 
ATOM     25  C   UNL     1       4.965   4.321  16.627  0.00  0.00    +0.000 A 
ATOM     26  C   UNL     1       3.674   3.876  16.902  0.00  0.00    +0.000 A 
ATOM     27  C   UNL     1       3.032   4.235  18.098  0.00  0.00    +0.000 A 
ATOM     28  C   UNL     1       1.746   3.763  18.396  0.00  0.00    +0.000 A 
ATOM     29  C   UNL     1       1.120   4.110  19.593  0.00  0.00    +0.000 A 
ATOM     30  C   UNL     1       1.768   4.941  20.503  0.00  0.00    +0.000 A 
ATOM     31  C   UNL     1       3.048   5.421  20.221  0.00  0.00    +0.000 A 
ATOM     32  C   UNL     1       3.697   5.075  19.024  0.00  0.00    +0.000 A 
ATOM     33  C   UNL     1       4.997   5.521  18.737  0.00  0.00    +0.000 A 
ENDBRANCH  22  24
ENDBRANCH  19  22
ENDBRANCH  18  19
ENDBRANCH   1  18
TORSDOF 6
ENDMDL
MODEL 7
REMARK VINA RESULT:      -9.1      6.280      9.107
REMARK  Name = 
REMARK  6 active torsions:
REMARK  status: ('A' for Active; 'I' for Inactive)
REMARK    1  A    between atoms: S_2  and  N_4
REMARK    2  A    between atoms: S_2  and  C_23
REMARK    3  A    between atoms: N_4  and  C_5
REMARK    4  A    between atoms: C_5  and  C_6
REMARK    5  A    between atoms: C_6  and  N_7
REMARK    6  A    between atoms: C_10  and  C_11
REMARK                            x       y       z     vdW  Elec       q    Type
REMARK                         _______ _______ _______ _____ _____    ______ ____
ROOT
ATOM      1  C   UNL     1       2.145   7.717  19.971  0.00  0.00    +0.000 C 
ENDROOT
BRANCH   1   2
ATOM      2  N   UNL     1       2.011   6.272  19.657  0.00  0.00    +0.000 NA
ATOM      3  C   UNL     1       2.071   5.981  18.227  0.00  0.00    +0.000 C 
ATOM      4  C   UNL     1       2.143   4.505  17.851  0.00  0.00    +0.000 C 
ATOM      5  C   UNL     1       3.193   3.743  18.661  0.00  0.00    +0.000 C 
ATOM      6  C   UNL     1       2.881   3.949  20.146  0.00  0.00    +0.000 C 
ATOM      7  C   UNL     1       2.816   5.428  20.543  0.00  0.00    +0.000 C 
BRANCH   5   8
ATOM      8  C   UNL     1       4.628   4.056  18.303  0.00  0.00    +0.000 A 
ATOM      9  N   UNL     1       5.598   4.046  19.232  0.00  0.00    +0.000 NA
ATOM     10  O   UNL     1       6.781   4.301  18.567  0.00  0.00    +0.000 OA
ATOM     11  C   UNL     1       6.532   4.475  17.246  0.00  0.00    +0.000 A 
ATOM     12  C   UNL     1       7.481   4.739  16.259  0.00  0.00    +0.000 A 
ATOM     13  C   UNL     1       6.988   4.884  14.970  0.00  0.00    +0.000 A 
ATOM     14  F   UNL     1       7.843   5.133  13.967  0.00  0.00    +0.000 F 
ATOM     15  C   UNL     1       5.629   4.782  14.685  0.00  0.00    +0.000 A 
ATOM     16  C   UNL     1       4.697   4.506  15.699  0.00  0.00    +0.000 A 
ATOM     17  C   UNL     1       5.172   4.349  17.015  0.00  0.00    +0.000 A 
ENDBRANCH   5   8
ENDBRANCH   1   2
BRANCH   1  18
ATOM     18  C   UNL     1       1.450   8.339  21.224  0.00  0.00    +0.000 C 
BRANCH  18  19
ATOM     19  N   UNL     1       0.104   8.888  20.947  0.00  0.00    +0.000 NA
ATOM     20  H   UNL     1      -0.312   8.565  20.076  0.00  0.00    +0.000 HD
BRANCH  19  22
ATOM     21  O   UNL     1      -0.541  11.043  22.128  0.00  0.00    +0.000 OA
ATOM     22  S   UNL     1      -0.062  10.563  20.853  0.00  0.00    +0.000 S 
ATOM     23  O   UNL     1       1.166  11.049  20.266  0.00  0.00    +0.000 OA
BRANCH  22  24
ATOM     24  C   UNL     1      -1.336  10.779  19.639  0.00  0.00    +0.000 A 
ATOM     25  C   UNL     1      -2.308  11.758  19.840  0.00  0.00    +0.000 A 
ATOM     26  C   UNL     1      -3.239  12.016  18.837  0.00  0.00    +0.000 A 
ATOM     27  C   UNL     1      -3.203  11.305  17.626  0.00  0.00    +0.000 A 
ATOM     28  C   UNL     1      -4.116  11.583  16.599  0.00  0.00    +0.000 A 
ATOM     29  C   UNL     1      -4.065  10.885  15.393  0.00  0.00    +0.000 A 
ATOM     30  C   UNL     1      -3.106   9.894  15.201  0.00  0.00    +0.000 A 
ATOM     31  C   UNL     1      -2.190   9.604  16.213  0.00  0.00    +0.000 A 
ATOM     32  C   UNL     1      -2.221  10.303  17.432  0.00  0.00    +0.000 A 
ATOM     33  C   UNL     1      -1.289  10.048  18.450  0.00  0.00    +0.000 A 
ENDBRANCH  22  24
ENDBRANCH  19  22
ENDBRANCH  18  19
ENDBRANCH   1  18
TORSDOF 6
ENDMDL
MODEL 8
REMARK VINA RESULT:      -9.0      4.299     10.952
REMARK  Name = 
REMARK  6 active torsions:
REMARK  status: ('A' for Active; 'I' for Inactive)
REMARK    1  A    between atoms: S_2  and  N_4
REMARK    2  A    between atoms: S_2  and  C_23
REMARK    3  A    between atoms: N_4  and  C_5
REMARK    4  A    between atoms: C_5  and  C_6
REMARK    5  A    between atoms: C_6  and  N_7
REMARK    6  A    between atoms: C_10  and  C_11
REMARK                            x       y       z     vdW  Elec       q    Type
REMARK                         _______ _______ _______ _____ _____    ______ ____
ROOT
ATOM      1  C   UNL     1       8.280   9.500  17.809  0.00  0.00    +0.000 C 
ENDROOT
BRANCH   1   2
ATOM      2  N   UNL     1       9.406  10.084  18.581  0.00  0.00    +0.000 NA
ATOM      3  C   UNL     1      10.261  10.961  17.787  0.00  0.00    +0.000 C 
ATOM      4  C   UNL     1      11.311  11.748  18.563  0.00  0.00    +0.000 C 
ATOM      5  C   UNL     1      10.732  12.438  19.800  0.00  0.00    +0.000 C 
ATOM      6  C   UNL     1      10.056  11.366  20.660  0.00  0.00    +0.000 C 
ATOM      7  C   UNL     1       8.990  10.573  19.897  0.00  0.00    +0.000 C 
BRANCH   5   8
ATOM      8  C   UNL     1       9.841  13.625  19.513  0.00  0.00    +0.000 A 
ATOM      9  N   UNL     1       8.590  13.692  19.996  0.00  0.00    +0.000 NA
ATOM     10  O   UNL     1       8.086  14.918  19.612  0.00  0.00    +0.000 OA
ATOM     11  C   UNL     1       9.019  15.588  18.892  0.00  0.00    +0.000 A 
ATOM     12  C   UNL     1       8.875  16.863  18.346  0.00  0.00    +0.000 A 
ATOM     13  C   UNL     1       9.970  17.345  17.641  0.00  0.00    +0.000 A 
ATOM     14  F   UNL     1       9.907  18.567  17.092  0.00  0.00    +0.000 F 
ATOM     15  C   UNL     1      11.133  16.596  17.483  0.00  0.00    +0.000 A 
ATOM     16  C   UNL     1      11.252  15.318  18.052  0.00  0.00    +0.000 A 
ATOM     17  C   UNL     1      10.158  14.807  18.778  0.00  0.00    +0.000 A 
ENDBRANCH   5   8
ENDBRANCH   1   2
BRANCH   1  18
ATOM     18  C   UNL     1       7.974   7.969  17.859  0.00  0.00    +0.000 C 
BRANCH  18  19
ATOM     19  N   UNL     1       6.708   7.594  17.191  0.00  0.00    +0.000 NA
ATOM     20  H   UNL     1       5.873   7.756  17.748  0.00  0.00    +0.000 HD
BRANCH  19  22
ATOM     21  O   UNL     1       6.105   6.004  15.303  0.00  0.00    +0.000 OA
ATOM     22  S   UNL     1       6.527   5.996  16.684  0.00  0.00    +0.000 S 
ATOM     23  O   UNL     1       7.724   5.307  17.114  0.00  0.00    +0.000 OA
BRANCH  22  24
ATOM     24  C   UNL     1       5.197   5.397  17.691  0.00  0.00    +0.000 A 
ATOM     25  C   UNL     1       4.811   6.128  18.814  0.00  0.00    +0.000 A 
ATOM     26  C   UNL     1       3.691   5.730  19.540  0.00  0.00    +0.000 A 
ATOM     27  C   UNL     1       2.946   4.606  19.149  0.00  0.00    +0.000 A 
ATOM     28  C   UNL     1       1.798   4.220  19.856  0.00  0.00    +0.000 A 
ATOM     29  C   UNL     1       1.053   3.112  19.452  0.00  0.00    +0.000 A 
ATOM     30  C   UNL     1       1.451   2.372  18.343  0.00  0.00    +0.000 A 
ATOM     31  C   UNL     1       2.591   2.742  17.628  0.00  0.00    +0.000 A 
ATOM     32  C   UNL     1       3.349   3.859  18.015  0.00  0.00    +0.000 A 
ATOM     33  C   UNL     1       4.481   4.267  17.291  0.00  0.00    +0.000 A 
ENDBRANCH  22  24
ENDBRANCH  19  22
ENDBRANCH  18  19
ENDBRANCH   1  18
TORSDOF 6
ENDMDL
MODEL 9
REMARK VINA RESULT:      -8.9      3.097      9.801
REMARK  Name = 
REMARK  6 active torsions:
REMARK  status: ('A' for Active; 'I' for Inactive)
REMARK    1  A    between atoms: S_2  and  N_4
REMARK    2  A    between atoms: S_2  and  C_23
REMARK    3  A    between atoms: N_4  and  C_5
REMARK    4  A    between atoms: C_5  and  C_6
REMARK    5  A    between atoms: C_6  and  N_7
REMARK    6  A    between atoms: C_10  and  C_11
REMARK                            x       y       z     vdW  Elec       q    Type
REMARK                         _______ _______ _______ _____ _____    ______ ____
ROOT
ATOM      1  C   UNL     1       7.931   9.640  17.957  0.00  0.00    +0.000 C 
ENDROOT
BRANCH   1   2
ATOM      2  N   UNL     1       9.030  10.531  18.408  0.00  0.00    +0.000 NA
ATOM      3  C   UNL     1       8.915  11.895  17.900  0.00  0.00    +0.000 C 
ATOM      4  C   UNL     1       9.894  12.907  18.485  0.00  0.00    +0.000 C 
ATOM      5  C   UNL     1       9.964  12.841  20.012  0.00  0.00    +0.000 C 
ATOM      6  C   UNL     1      10.313  11.402  20.404  0.00  0.00    +0.000 C 
ATOM      7  C   UNL     1       9.332  10.373  19.832  0.00  0.00    +0.000 C 
BRANCH   5   8
ATOM      8  C   UNL     1       8.748  13.379  20.733  0.00  0.00    +0.000 A 
ATOM      9  N   UNL     1       8.028  14.393  20.227  0.00  0.00    +0.000 NA
ATOM     10  O   UNL     1       6.965  14.586  21.085  0.00  0.00    +0.000 OA
ATOM     11  C   UNL     1       7.043  13.705  22.112  0.00  0.00    +0.000 A 
ATOM     12  C   UNL     1       6.140  13.591  23.168  0.00  0.00    +0.000 A 
ATOM     13  C   UNL     1       6.430  12.613  24.109  0.00  0.00    +0.000 A 
ATOM     14  F   UNL     1       5.602  12.442  25.151  0.00  0.00    +0.000 F 
ATOM     15  C   UNL     1       7.558  11.804  24.008  0.00  0.00    +0.000 A 
ATOM     16  C   UNL     1       8.446  11.935  22.927  0.00  0.00    +0.000 A 
ATOM     17  C   UNL     1       8.171  12.916  21.954  0.00  0.00    +0.000 A 
ENDBRANCH   5   8
ENDBRANCH   1   2
BRANCH   1  18
ATOM     18  C   UNL     1       8.218   8.176  17.493  0.00  0.00    +0.000 C 
BRANCH  18  19
ATOM     19  N   UNL     1       7.415   7.158  18.206  0.00  0.00    +0.000 NA
ATOM     20  H   UNL     1       7.762   6.919  19.132  0.00  0.00    +0.000 HD
BRANCH  19  22
ATOM     21  O   UNL     1       7.387   5.818  16.048  0.00  0.00    +0.000 OA
ATOM     22  S   UNL     1       7.213   5.654  17.472  0.00  0.00    +0.000 S 
ATOM     23  O   UNL     1       8.018   4.729  18.238  0.00  0.00    +0.000 OA
BRANCH  22  24
ATOM     24  C   UNL     1       5.517   5.262  17.805  0.00  0.00    +0.000 A 
ATOM     25  C   UNL     1       4.542   6.240  17.616  0.00  0.00    +0.000 A 
ATOM     26  C   UNL     1       3.198   5.906  17.759  0.00  0.00    +0.000 A 
ATOM     27  C   UNL     1       2.816   4.595  18.085  0.00  0.00    +0.000 A 
ATOM     28  C   UNL     1       1.463   4.244  18.197  0.00  0.00    +0.000 A 
ATOM     29  C   UNL     1       1.091   2.935  18.504  0.00  0.00    +0.000 A 
ATOM     30  C   UNL     1       2.066   1.964  18.712  0.00  0.00    +0.000 A 
ATOM     31  C   UNL     1       3.417   2.296  18.605  0.00  0.00    +0.000 A 
ATOM     32  C   UNL     1       3.811   3.607  18.288  0.00  0.00    +0.000 A 
ATOM     33  C   UNL     1       5.163   3.954  18.145  0.00  0.00    +0.000 A 
ENDBRANCH  22  24
ENDBRANCH  19  22
ENDBRANCH  18  19
ENDBRANCH   1  18
TORSDOF 6
ENDMDL
