MODEL 1
REMARK VINA RESULT:      -8.4      0.000      0.000
REMARK  Name = 
REMARK  4 active torsions:
REMARK  status: ('A' for Active; 'I' for Inactive)
REMARK    1  A    between atoms: C_1  and  O_2
REMARK    2  A    between atoms: O_2  and  C_3
REMARK    3  A    between atoms: C_7  and  N_8
REMARK    4  A    between atoms: C_9  and  C_10
REMARK                            x       y       z     vdW  Elec       q    Type
REMARK                         _______ _______ _______ _____ _____    ______ ____
ROOT
ATOM      1  N   UNL     1       5.668   4.165  17.005  0.00  0.00    +0.000 N 
ATOM      2  C   UNL     1       5.269   4.107  15.673  0.00  0.00    +0.000 A 
ATOM      3  N   UNL     1       3.960   3.984  15.573  0.00  0.00    +0.000 NA
ATOM      4  C   UNL     1       3.594   3.769  16.859  0.00  0.00    +0.000 A 
ATOM      5  N   UNL     1       2.400   4.077  17.397  0.00  0.00    +0.000 NA
ATOM      6  C   UNL     1       2.421   4.009  18.736  0.00  0.00    +0.000 A 
ATOM      7  C   UNL     1       1.666   4.919  19.448  0.00  0.00    +0.000 A 
ATOM      8  C   UNL     1       1.680   4.919  20.839  0.00  0.00    +0.000 A 
ATOM      9  C   UNL     1       2.259   3.846  21.503  0.00  0.00    +0.000 A 
ATOM     10  C   UNL     1       3.070   2.967  20.788  0.00  0.00    +0.000 A 
ATOM     11  C   UNL     1       3.359   3.245  19.460  0.00  0.00    +0.000 A 
ATOM     12  N   UNL     1       4.583   2.978  18.944  0.00  0.00    +0.000 NA
ATOM     13  C   UNL     1       4.687   3.437  17.673  0.00  0.00    +0.000 A 
ENDROOT
BRANCH   1  18
ATOM     14  C   UNL     1       7.374   7.425  17.690  0.00  0.00    +0.000 A 
ATOM     15  C   UNL     1       8.187   7.069  18.775  0.00  0.00    +0.000 A 
ATOM     16  C   UNL     1       8.213   5.764  19.236  0.00  0.00    +0.000 A 
ATOM     17  C   UNL     1       7.372   4.824  18.650  0.00  0.00    +0.000 A 
ATOM     18  C   UNL     1       6.522   5.170  17.574  0.00  0.00    +0.000 A 
ATOM     19  C   UNL     1       6.564   6.464  17.059  0.00  0.00    +0.000 A 
BRANCH  14  21
ATOM     20  C   UNL     1       8.375   9.532  18.095  0.00  0.00    +0.000 C 
ATOM     21  O   UNL     1       7.457   8.748  17.348  0.00  0.00    +0.000 OA
ENDBRANCH  14  21
ENDBRANCH   1  18
BRANCH   2  22
ATOM     22  C   UNL     1       6.145   4.307  14.555  0.00  0.00    +0.000 A 
ATOM     23  C   UNL     1       6.060   3.735  13.303  0.00  0.00    +0.000 A 
ATOM     24  C   UNL     1       7.129   4.257  12.533  0.00  0.00    +0.000 A 
ATOM     25  C   UNL     1       7.816   5.114  13.356  0.00  0.00    +0.000 A 
ATOM     26  O   UNL     1       7.247   5.134  14.588  0.00  0.00    +0.000 OA
ENDBRANCH   2  22
TORSDOF 3
ENDMDL
MODEL 2
REMARK VINA RESULT:      -8.2      3.324      7.131
REMARK  Name = 
REMARK  4 active torsions:
REMARK  status: ('A' for Active; 'I' for Inactive)
REMARK    1  A    between atoms: C_1  and  O_2
REMARK    2  A    between atoms: O_2  and  C_3
REMARK    3  A    between atoms: C_7  and  N_8
REMARK    4  A    between atoms: C_9  and  C_10
REMARK                            x       y       z     vdW  Elec       q    Type
REMARK                         _______ _______ _______ _____ _____    ______ ____
ROOT
ATOM      1  N   UNL     1       3.212   6.358  18.847  0.00  0.00    +0.000 N 
ATOM      2  C   UNL     1       2.743   7.662  18.723  0.00  0.00    +0.000 A 
ATOM      3  N   UNL     1       3.260   8.255  17.665  0.00  0.00    +0.000 NA
ATOM      4  C   UNL     1       4.197   7.363  17.266  0.00  0.00    +0.000 A 
ATOM      5  N   UNL     1       4.647   7.206  16.008  0.00  0.00    +0.000 NA
ATOM      6  C   UNL     1       5.354   6.076  15.865  0.00  0.00    +0.000 A 
ATOM      7  C   UNL     1       5.256   5.390  14.673  0.00  0.00    +0.000 A 
ATOM      8  C   UNL     1       5.939   4.193  14.484  0.00  0.00    +0.000 A 
ATOM      9  C   UNL     1       6.909   3.822  15.405  0.00  0.00    +0.000 A 
ATOM     10  C   UNL     1       6.961   4.479  16.632  0.00  0.00    +0.000 A 
ATOM     11  C   UNL     1       5.981   5.412  16.940  0.00  0.00    +0.000 A 
ATOM     12  N   UNL     1       5.498   5.523  18.201  0.00  0.00    +0.000 NA
ATOM     13  C   UNL     1       4.470   6.405  18.253  0.00  0.00    +0.000 A 
ENDROOT
BRANCH   1  18
ATOM     14  C   UNL     1       1.360   3.497  20.394  0.00  0.00    +0.000 A 
ATOM     15  C   UNL     1       0.739   2.948  19.263  0.00  0.00    +0.000 A 
ATOM     16  C   UNL     1       0.973   3.479  18.006  0.00  0.00    +0.000 A 
ATOM     17  C   UNL     1       1.780   4.606  17.887  0.00  0.00    +0.000 A 
ATOM     18  C   UNL     1       2.391   5.193  19.020  0.00  0.00    +0.000 A 
ATOM     19  C   UNL     1       2.222   4.602  20.271  0.00  0.00    +0.000 A 
BRANCH  14  21
ATOM     20  C   UNL     1       2.077   2.133  22.192  0.00  0.00    +0.000 C 
ATOM     21  O   UNL     1       1.035   2.863  21.564  0.00  0.00    +0.000 OA
ENDBRANCH  14  21
ENDBRANCH   1  18
BRANCH   2  22
ATOM     22  C   UNL     1       1.717   8.237  19.545  0.00  0.00    +0.000 A 
ATOM     23  C   UNL     1       1.389   7.905  20.843  0.00  0.00    +0.000 A 
ATOM     24  C   UNL     1       0.332   8.762  21.238  0.00  0.00    +0.000 A 
ATOM     25  C   UNL     1       0.064   9.568  20.160  0.00  0.00    +0.000 A 
ATOM     26  O   UNL     1       0.876   9.244  19.122  0.00  0.00    +0.000 OA
ENDBRANCH   2  22
TORSDOF 3
ENDMDL
MODEL 3
REMARK VINA RESULT:      -7.8      3.342      6.935
REMARK  Name = 
REMARK  4 active torsions:
REMARK  status: ('A' for Active; 'I' for Inactive)
REMARK    1  A    between atoms: C_1  and  O_2
REMARK    2  A    between atoms: O_2  and  C_3
REMARK    3  A    between atoms: C_7  and  N_8
REMARK    4  A    between atoms: C_9  and  C_10
REMARK                            x       y       z     vdW  Elec       q    Type
REMARK                         _______ _______ _______ _____ _____    ______ ____
ROOT
ATOM      1  N   UNL     1       3.207   6.993  18.584  0.00  0.00    +0.000 N 
ATOM      2  C   UNL     1       2.652   8.179  18.112  0.00  0.00    +0.000 A 
ATOM      3  N   UNL     1       3.161   8.510  16.941  0.00  0.00    +0.000 NA
ATOM      4  C   UNL     1       4.171   7.618  16.806  0.00  0.00    +0.000 A 
ATOM      5  N   UNL     1       4.672   7.170  15.641  0.00  0.00    +0.000 NA
ATOM      6  C   UNL     1       5.461   6.099  15.812  0.00  0.00    +0.000 A 
ATOM      7  C   UNL     1       5.450   5.118  14.842  0.00  0.00    +0.000 A 
ATOM      8  C   UNL     1       6.221   3.969  14.987  0.00  0.00    +0.000 A 
ATOM      9  C   UNL     1       7.184   3.929  15.986  0.00  0.00    +0.000 A 
ATOM     10  C   UNL     1       7.149   4.888  16.996  0.00  0.00    +0.000 A 
ATOM     11  C   UNL     1       6.096   5.791  17.032  0.00  0.00    +0.000 A 
ATOM     12  N   UNL     1       5.566   6.194  18.212  0.00  0.00    +0.000 NA
ATOM     13  C   UNL     1       4.477   6.977  18.015  0.00  0.00    +0.000 A 
ENDROOT
BRANCH   1  18
ATOM     14  C   UNL     1       1.537   3.647  18.742  0.00  0.00    +0.000 A 
ATOM     15  C   UNL     1       1.042   3.667  20.054  0.00  0.00    +0.000 A 
ATOM     16  C   UNL     1       1.208   4.786  20.852  0.00  0.00    +0.000 A 
ATOM     17  C   UNL     1       1.931   5.867  20.357  0.00  0.00    +0.000 A 
ATOM     18  C   UNL     1       2.464   5.855  19.048  0.00  0.00    +0.000 A 
ATOM     19  C   UNL     1       2.219   4.761  18.220  0.00  0.00    +0.000 A 
BRANCH  14  21
ATOM     20  C   UNL     1       2.432   1.778  17.598  0.00  0.00    +0.000 C 
ATOM     21  O   UNL     1       1.293   2.475  18.078  0.00  0.00    +0.000 OA
ENDBRANCH  14  21
ENDBRANCH   1  18
BRANCH   2  22
ATOM     22  C   UNL     1       1.563   8.870  18.738  0.00  0.00    +0.000 A 
ATOM     23  C   UNL     1       0.546   9.573  18.126  0.00  0.00    +0.000 A 
ATOM     24  C   UNL     1      -0.304  10.055  19.153  0.00  0.00    +0.000 A 
ATOM     25  C   UNL     1       0.241   9.629  20.338  0.00  0.00    +0.000 A 
ATOM     26  O   UNL     1       1.383   8.934  20.103  0.00  0.00    +0.000 OA
ENDBRANCH   2  22
TORSDOF 3
ENDMDL
MODEL 4
REMARK VINA RESULT:      -7.8      3.032      6.230
REMARK  Name = 
REMARK  4 active torsions:
REMARK  status: ('A' for Active; 'I' for Inactive)
REMARK    1  A    between atoms: C_1  and  O_2
REMARK    2  A    between atoms: O_2  and  C_3
REMARK    3  A    between atoms: C_7  and  N_8
REMARK    4  A    between atoms: C_9  and  C_10
REMARK                            x       y       z     vdW  Elec       q    Type
REMARK                         _______ _______ _______ _____ _____    ______ ____
ROOT
ATOM      1  N   UNL     1       3.791   5.368  18.298  0.00  0.00    +0.000 N 
ATOM      2  C   UNL     1       3.769   4.048  18.738  0.00  0.00    +0.000 A 
ATOM      3  N   UNL     1       4.988   3.611  18.987  0.00  0.00    +0.000 NA
ATOM      4  C   UNL     1       5.757   4.614  18.503  0.00  0.00    +0.000 A 
ATOM      5  N   UNL     1       6.992   4.935  18.932  0.00  0.00    +0.000 NA
ATOM      6  C   UNL     1       7.390   6.129  18.471  0.00  0.00    +0.000 A 
ATOM      7  C   UNL     1       8.167   6.921  19.291  0.00  0.00    +0.000 A 
ATOM      8  C   UNL     1       8.576   8.184  18.877  0.00  0.00    +0.000 A 
ATOM      9  C   UNL     1       8.408   8.541  17.546  0.00  0.00    +0.000 A 
ATOM     10  C   UNL     1       7.573   7.770  16.741  0.00  0.00    +0.000 A 
ATOM     11  C   UNL     1       6.853   6.732  17.315  0.00  0.00    +0.000 A 
ATOM     12  N   UNL     1       5.590   6.454  16.910  0.00  0.00    +0.000 NA
ATOM     13  C   UNL     1       5.032   5.488  17.680  0.00  0.00    +0.000 A 
ENDROOT
BRANCH   1  18
ATOM     14  C   UNL     1       1.892   8.575  18.652  0.00  0.00    +0.000 A 
ATOM     15  C   UNL     1       1.413   8.449  19.964  0.00  0.00    +0.000 A 
ATOM     16  C   UNL     1       1.758   7.353  20.736  0.00  0.00    +0.000 A 
ATOM     17  C   UNL     1       2.532   6.344  20.170  0.00  0.00    +0.000 A 
ATOM     18  C   UNL     1       2.999   6.438  18.839  0.00  0.00    +0.000 A 
ATOM     19  C   UNL     1       2.721   7.584  18.096  0.00  0.00    +0.000 A 
BRANCH  14  21
ATOM     20  C   UNL     1       0.153  10.147  18.320  0.00  0.00    +0.000 C 
ATOM     21  O   UNL     1       1.470   9.712  18.017  0.00  0.00    +0.000 OA
ENDBRANCH  14  21
ENDBRANCH   1  18
BRANCH   2  22
ATOM     22  C   UNL     1       2.575   3.309  19.029  0.00  0.00    +0.000 A 
ATOM     23  C   UNL     1       1.570   2.950  18.155  0.00  0.00    +0.000 A 
ATOM     24  C   UNL     1       0.617   2.210  18.899  0.00  0.00    +0.000 A 
ATOM     25  C   UNL     1       1.085   2.161  20.188  0.00  0.00    +0.000 A 
ATOM     26  O   UNL     1       2.254   2.843  20.286  0.00  0.00    +0.000 OA
ENDBRANCH   2  22
TORSDOF 3
ENDMDL
MODEL 5
REMARK VINA RESULT:      -7.8      3.162      6.412
REMARK  Name = 
REMARK  4 active torsions:
REMARK  status: ('A' for Active; 'I' for Inactive)
REMARK    1  A    between atoms: C_1  and  O_2
REMARK    2  A    between atoms: O_2  and  C_3
REMARK    3  A    between atoms: C_7  and  N_8
REMARK    4  A    between atoms: C_9  and  C_10
REMARK                            x       y       z     vdW  Elec       q    Type
REMARK                         _______ _______ _______ _____ _____    ______ ____
ROOT
ATOM      1  N   UNL     1       3.818   5.429  18.254  0.00  0.00    +0.000 N 
ATOM      2  C   UNL     1       3.773   4.147  18.794  0.00  0.00    +0.000 A 
ATOM      3  N   UNL     1       4.979   3.729  19.126  0.00  0.00    +0.000 NA
ATOM      4  C   UNL     1       5.772   4.691  18.598  0.00  0.00    +0.000 A 
ATOM      5  N   UNL     1       6.989   5.042  19.051  0.00  0.00    +0.000 NA
ATOM      6  C   UNL     1       7.411   6.197  18.515  0.00  0.00    +0.000 A 
ATOM      7  C   UNL     1       8.157   7.049  19.302  0.00  0.00    +0.000 A 
ATOM      8  C   UNL     1       8.588   8.276  18.810  0.00  0.00    +0.000 A 
ATOM      9  C   UNL     1       8.476   8.528  17.449  0.00  0.00    +0.000 A 
ATOM     10  C   UNL     1       7.671   7.698  16.672  0.00  0.00    +0.000 A 
ATOM     11  C   UNL     1       6.923   6.709  17.295  0.00  0.00    +0.000 A 
ATOM     12  N   UNL     1       5.677   6.401  16.861  0.00  0.00    +0.000 NA
ATOM     13  C   UNL     1       5.084   5.499  17.681  0.00  0.00    +0.000 A 
ENDROOT
BRANCH   1  18
ATOM     14  C   UNL     1       1.738   7.733  20.346  0.00  0.00    +0.000 A 
ATOM     15  C   UNL     1       1.480   8.758  19.425  0.00  0.00    +0.000 A 
ATOM     16  C   UNL     1       1.936   8.663  18.121  0.00  0.00    +0.000 A 
ATOM     17  C   UNL     1       2.711   7.567  17.755  0.00  0.00    +0.000 A 
ATOM     18  C   UNL     1       3.009   6.538  18.678  0.00  0.00    +0.000 A 
ATOM     19  C   UNL     1       2.474   6.597  19.964  0.00  0.00    +0.000 A 
BRANCH  14  21
ATOM     20  C   UNL     1       0.201   8.952  21.672  0.00  0.00    +0.000 C 
ATOM     21  O   UNL     1       1.221   7.968  21.592  0.00  0.00    +0.000 OA
ENDBRANCH  14  21
ENDBRANCH   1  18
BRANCH   2  22
ATOM     22  C   UNL     1       2.565   3.435  19.093  0.00  0.00    +0.000 A 
ATOM     23  C   UNL     1       1.606   2.990  18.207  0.00  0.00    +0.000 A 
ATOM     24  C   UNL     1       0.615   2.320  18.967  0.00  0.00    +0.000 A 
ATOM     25  C   UNL     1       1.016   2.395  20.278  0.00  0.00    +0.000 A 
ATOM     26  O   UNL     1       2.180   3.088  20.370  0.00  0.00    +0.000 OA
ENDBRANCH   2  22
TORSDOF 3
ENDMDL
MODEL 6
REMARK VINA RESULT:      -7.6      3.111      7.003
REMARK  Name = 
REMARK  4 active torsions:
REMARK  status: ('A' for Active; 'I' for Inactive)
REMARK    1  A    between atoms: C_1  and  O_2
REMARK    2  A    between atoms: O_2  and  C_3
REMARK    3  A    between atoms: C_7  and  N_8
REMARK    4  A    between atoms: C_9  and  C_10
REMARK                            x       y       z     vdW  Elec       q    Type
REMARK                         _______ _______ _______ _____ _____    ______ ____
ROOT
ATOM      1  N   UNL     1       3.283   6.486  19.068  0.00  0.00    +0.000 N 
ATOM      2  C   UNL     1       2.675   7.716  18.833  0.00  0.00    +0.000 A 
ATOM      3  N   UNL     1       3.093   8.243  17.698  0.00  0.00    +0.000 NA
ATOM      4  C   UNL     1       4.104   7.413  17.351  0.00  0.00    +0.000 A 
ATOM      5  N   UNL     1       4.526   7.170  16.097  0.00  0.00    +0.000 NA
ATOM      6  C   UNL     1       5.343   6.108  16.039  0.00  0.00    +0.000 A 
ATOM      7  C   UNL     1       5.278   5.294  14.927  0.00  0.00    +0.000 A 
ATOM      8  C   UNL     1       6.075   4.159  14.831  0.00  0.00    +0.000 A 
ATOM      9  C   UNL     1       7.109   3.987  15.742  0.00  0.00    +0.000 A 
ATOM     10  C   UNL     1       7.133   4.772  16.893  0.00  0.00    +0.000 A 
ATOM     11  C   UNL     1       6.070   5.628  17.147  0.00  0.00    +0.000 A 
ATOM     12  N   UNL     1       5.621   5.823  18.410  0.00  0.00    +0.000 NA
ATOM     13  C   UNL     1       4.508   6.596  18.418  0.00  0.00    +0.000 A 
ENDROOT
BRANCH   1  18
ATOM     14  C   UNL     1       2.101   2.935  19.020  0.00  0.00    +0.000 A 
ATOM     15  C   UNL     1       1.243   2.932  20.129  0.00  0.00    +0.000 A 
ATOM     16  C   UNL     1       1.016   4.095  20.845  0.00  0.00    +0.000 A 
ATOM     17  C   UNL     1       1.701   5.253  20.490  0.00  0.00    +0.000 A 
ATOM     18  C   UNL     1       2.594   5.268  19.393  0.00  0.00    +0.000 A 
ATOM     19  C   UNL     1       2.752   4.117  18.624  0.00  0.00    +0.000 A 
BRANCH  14  21
ATOM     20  C   UNL     1       3.546   1.244  18.210  0.00  0.00    +0.000 C 
ATOM     21  O   UNL     1       2.222   1.713  18.414  0.00  0.00    +0.000 OA
ENDBRANCH  14  21
ENDBRANCH   1  18
BRANCH   2  22
ATOM     22  C   UNL     1       1.623   8.268  19.636  0.00  0.00    +0.000 A 
ATOM     23  C   UNL     1       1.396   8.070  20.982  0.00  0.00    +0.000 A 
ATOM     24  C   UNL     1       0.258   8.841  21.330  0.00  0.00    +0.000 A 
ATOM     25  C   UNL     1      -0.154   9.464  20.179  0.00  0.00    +0.000 A 
ATOM     26  O   UNL     1       0.646   9.106  19.143  0.00  0.00    +0.000 OA
ENDBRANCH   2  22
TORSDOF 3
ENDMDL
MODEL 7
REMARK VINA RESULT:      -7.5      7.367     10.051
REMARK  Name = 
REMARK  4 active torsions:
REMARK  status: ('A' for Active; 'I' for Inactive)
REMARK    1  A    between atoms: C_1  and  O_2
REMARK    2  A    between atoms: O_2  and  C_3
REMARK    3  A    between atoms: C_7  and  N_8
REMARK    4  A    between atoms: C_9  and  C_10
REMARK                            x       y       z     vdW  Elec       q    Type
REMARK                         _______ _______ _______ _____ _____    ______ ____
ROOT
ATOM      1  N   UNL     1       0.183  11.664  19.450  0.00  0.00    +0.000 N 
ATOM      2  C   UNL     1      -0.837  12.136  18.630  0.00  0.00    +0.000 A 
ATOM      3  N   UNL     1      -0.599  13.373  18.240  0.00  0.00    +0.000 NA
ATOM      4  C   UNL     1       0.474  13.710  18.993  0.00  0.00    +0.000 A 
ATOM      5  N   UNL     1       1.413  14.614  18.662  0.00  0.00    +0.000 NA
ATOM      6  C   UNL     1       2.489  14.535  19.459  0.00  0.00    +0.000 A 
ATOM      7  C   UNL     1       3.730  14.773  18.906  0.00  0.00    +0.000 A 
ATOM      8  C   UNL     1       4.883  14.668  19.677  0.00  0.00    +0.000 A 
ATOM      9  C   UNL     1       4.759  14.567  21.056  0.00  0.00    +0.000 A 
ATOM     10  C   UNL     1       3.514  14.265  21.603  0.00  0.00    +0.000 A 
ATOM     11  C   UNL     1       2.457  13.974  20.751  0.00  0.00    +0.000 A 
ATOM     12  N   UNL     1       1.547  13.023  21.073  0.00  0.00    +0.000 NA
ATOM     13  C   UNL     1       0.677  12.816  20.054  0.00  0.00    +0.000 A 
ENDROOT
BRANCH   1  18
ATOM     14  C   UNL     1       1.527   8.215  20.006  0.00  0.00    +0.000 A 
ATOM     15  C   UNL     1       2.250   8.024  18.819  0.00  0.00    +0.000 A 
ATOM     16  C   UNL     1       2.337   9.036  17.879  0.00  0.00    +0.000 A 
ATOM     17  C   UNL     1       1.644  10.223  18.097  0.00  0.00    +0.000 A 
ATOM     18  C   UNL     1       0.885  10.424  19.273  0.00  0.00    +0.000 A 
ATOM     19  C   UNL     1       0.872   9.435  20.255  0.00  0.00    +0.000 A 
BRANCH  14  21
ATOM     20  C   UNL     1       2.111   5.941  20.313  0.00  0.00    +0.000 C 
ATOM     21  O   UNL     1       1.534   7.127  20.838  0.00  0.00    +0.000 OA
ENDBRANCH  14  21
ENDBRANCH   1  18
BRANCH   2  22
ATOM     22  C   UNL     1      -1.925  11.337  18.147  0.00  0.00    +0.000 A 
ATOM     23  C   UNL     1      -1.859  10.216  17.344  0.00  0.00    +0.000 A 
ATOM     24  C   UNL     1      -3.187   9.760  17.156  0.00  0.00    +0.000 A 
ATOM     25  C   UNL     1      -3.997  10.628  17.845  0.00  0.00    +0.000 A 
ATOM     26  O   UNL     1      -3.249  11.600  18.427  0.00  0.00    +0.000 OA
ENDBRANCH   2  22
TORSDOF 3
ENDMDL
MODEL 8
REMARK VINA RESULT:      -7.4      9.523     12.273
REMARK  Name = 
REMARK  4 active torsions:
REMARK  status: ('A' for Active; 'I' for Inactive)
REMARK    1  A    between atoms: C_1  and  O_2
REMARK    2  A    between atoms: O_2  and  C_3
REMARK    3  A    between atoms: C_7  and  N_8
REMARK    4  A    between atoms: C_9  and  C_10
REMARK                            x       y       z     vdW  Elec       q    Type
REMARK                         _______ _______ _______ _____ _____    ______ ____
ROOT
ATOM      1  N   UNL     1      -0.545  12.620  19.955  0.00  0.00    +0.000 N 
ATOM      2  C   UNL     1      -0.136  12.243  21.230  0.00  0.00    +0.000 A 
ATOM      3  N   UNL     1      -0.002  13.293  22.017  0.00  0.00    +0.000 NA
ATOM      4  C   UNL     1      -0.142  14.321  21.148  0.00  0.00    +0.000 A 
ATOM      5  N   UNL     1      -0.594  15.551  21.453  0.00  0.00    +0.000 NA
ATOM      6  C   UNL     1      -0.887  16.265  20.357  0.00  0.00    +0.000 A 
ATOM      7  C   UNL     1      -1.961  17.130  20.408  0.00  0.00    +0.000 A 
ATOM      8  C   UNL     1      -2.333  17.867  19.289  0.00  0.00    +0.000 A 
ATOM      9  C   UNL     1      -1.472  17.913  18.201  0.00  0.00    +0.000 A 
ATOM     10  C   UNL     1      -0.426  16.995  18.127  0.00  0.00    +0.000 A 
ATOM     11  C   UNL     1      -0.337  15.998  19.087  0.00  0.00    +0.000 A 
ATOM     12  N   UNL     1       0.070  14.748  18.756  0.00  0.00    +0.000 NA
ATOM     13  C   UNL     1      -0.031  13.906  19.813  0.00  0.00    +0.000 A 
ENDROOT
BRANCH   1  18
ATOM     14  C   UNL     1      -2.592  10.683  17.492  0.00  0.00    +0.000 A 
ATOM     15  C   UNL     1      -3.887  10.986  17.936  0.00  0.00    +0.000 A 
ATOM     16  C   UNL     1      -4.082  11.857  18.994  0.00  0.00    +0.000 A 
ATOM     17  C   UNL     1      -2.973  12.378  19.653  0.00  0.00    +0.000 A 
ATOM     18  C   UNL     1      -1.658  12.061  19.240  0.00  0.00    +0.000 A 
ATOM     19  C   UNL     1      -1.470  11.253  18.120  0.00  0.00    +0.000 A 
BRANCH  14  21
ATOM     20  C   UNL     1      -2.929  10.342  15.173  0.00  0.00    +0.000 C 
ATOM     21  O   UNL     1      -2.560   9.811  16.437  0.00  0.00    +0.000 OA
ENDBRANCH  14  21
ENDBRANCH   1  18
BRANCH   2  22
ATOM     22  C   UNL     1      -0.022  10.885  21.677  0.00  0.00    +0.000 A 
ATOM     23  C   UNL     1      -0.683  10.283  22.727  0.00  0.00    +0.000 A 
ATOM     24  C   UNL     1      -0.264   8.930  22.764  0.00  0.00    +0.000 A 
ATOM     25  C   UNL     1       0.636   8.776  21.739  0.00  0.00    +0.000 A 
ATOM     26  O   UNL     1       0.810   9.956  21.091  0.00  0.00    +0.000 OA
ENDBRANCH   2  22
TORSDOF 3
ENDMDL
MODEL 9
REMARK VINA RESULT:      -7.3      8.115     10.921
REMARK  Name = 
REMARK  4 active torsions:
REMARK  status: ('A' for Active; 'I' for Inactive)
REMARK    1  A    between atoms: C_1  and  O_2
REMARK    2  A    between atoms: O_2  and  C_3
REMARK    3  A    between atoms: C_7  and  N_8
REMARK    4  A    between atoms: C_9  and  C_10
REMARK                            x       y       z     vdW  Elec       q    Type
REMARK                         _______ _______ _______ _____ _____    ______ ____
ROOT
ATOM      1  N   UNL     1      -0.736  12.497  20.203  0.00  0.00    +0.000 N 
ATOM      2  C   UNL     1      -1.103  12.405  18.864  0.00  0.00    +0.000 A 
ATOM      3  N   UNL     1      -0.309  13.132  18.102  0.00  0.00    +0.000 NA
ATOM      4  C   UNL     1       0.416  13.819  19.016  0.00  0.00    +0.000 A 
ATOM      5  N   UNL     1       1.662  14.292  18.836  0.00  0.00    +0.000 NA
ATOM      6  C   UNL     1       2.225  14.677  19.991  0.00  0.00    +0.000 A 
ATOM      7  C   UNL     1       3.580  14.478  20.156  0.00  0.00    +0.000 A 
ATOM      8  C   UNL     1       4.208  14.824  21.347  0.00  0.00    +0.000 A 
ATOM      9  C   UNL     1       3.516  15.595  22.271  0.00  0.00    +0.000 A 
ATOM     10  C   UNL     1       2.137  15.741  22.131  0.00  0.00    +0.000 A 
ATOM     11  C   UNL     1       1.482  15.029  21.136  0.00  0.00    +0.000 A 
ATOM     12  N   UNL     1       0.247  14.512  21.349  0.00  0.00    +0.000 NA
ATOM     13  C   UNL     1      -0.153  13.757  20.297  0.00  0.00    +0.000 A 
ENDROOT
BRANCH   1  18
ATOM     14  C   UNL     1       0.524   9.267  21.614  0.00  0.00    +0.000 A 
ATOM     15  C   UNL     1      -0.092   9.277  22.873  0.00  0.00    +0.000 A 
ATOM     16  C   UNL     1      -0.952  10.302  23.228  0.00  0.00    +0.000 A 
ATOM     17  C   UNL     1      -1.145  11.358  22.342  0.00  0.00    +0.000 A 
ATOM     18  C   UNL     1      -0.509  11.383  21.080  0.00  0.00    +0.000 A 
ATOM     19  C   UNL     1       0.287  10.305  20.695  0.00  0.00    +0.000 A 
BRANCH  14  21
ATOM     20  C   UNL     1       1.798   7.992  20.078  0.00  0.00    +0.000 C 
ATOM     21  O   UNL     1       1.343   8.189  21.408  0.00  0.00    +0.000 OA
ENDBRANCH  14  21
ENDBRANCH   1  18
BRANCH   2  22
ATOM     22  C   UNL     1      -2.112  11.520  18.358  0.00  0.00    +0.000 A 
ATOM     23  C   UNL     1      -1.933  10.296  17.747  0.00  0.00    +0.000 A 
ATOM     24  C   UNL     1      -3.221   9.788  17.446  0.00  0.00    +0.000 A 
ATOM     25  C   UNL     1      -4.120  10.730  17.881  0.00  0.00    +0.000 A 
ATOM     26  O   UNL     1      -3.462  11.793  18.410  0.00  0.00    +0.000 OA
ENDBRANCH   2  22
TORSDOF 3
ENDMDL
