MODEL 1
REMARK VINA RESULT:      -7.4      0.000      0.000
REMARK  Name = 
REMARK  11 active torsions:
REMARK  status: ('A' for Active; 'I' for Inactive)
REMARK    1  A    between atoms: C_1  and  O_2
REMARK    2  A    between atoms: O_2  and  C_3
REMARK    3  A    between atoms: C_7  and  N_8
REMARK    4  A    between atoms: C_9  and  C_11
REMARK    5  A    between atoms: C_11  and  C_12
REMARK    6  A    between atoms: N_15  and  C_16
REMARK    7  A    between atoms: C_16  and  C_17
REMARK    8  A    between atoms: C_20  and  O_21
REMARK    9  A    between atoms: O_21  and  C_22
REMARK   10  A    between atoms: C_22  and  C_23
REMARK   11  A    between atoms: C_22  and  C_24
REMARK                            x       y       z     vdW  Elec       q    Type
REMARK                         _______ _______ _______ _____ _____    ______ ____
ROOT
ATOM      1  C   UNL     1       3.166   2.876  19.864  0.00  0.00    +0.000 C 
ATOM      2  C   UNL     1       2.186   2.134  18.945  0.00  0.00    +0.000 C 
ATOM      3  C   UNL     1       3.428   2.036  21.157  0.00  0.00    +0.000 C 
ATOM      4  C   UNL     1       2.331   2.903  21.801  0.00  0.00    +0.000 C 
ATOM      5  N   UNL     1       2.617   3.939  20.785  0.00  0.00    +0.000 NA
ENDROOT
BRANCH   1   7
ATOM      6  N   UNL     1       4.241   3.550  17.706  0.00  0.00    +0.000 N 
ATOM      7  C   UNL     1       4.458   3.363  19.071  0.00  0.00    +0.000 C 
ATOM      8  O   UNL     1       5.543   3.553  19.629  0.00  0.00    +0.000 OA
ATOM      9  H   UNL     1       3.348   3.212  17.366  0.00  0.00    +0.000 HD
BRANCH   6  14
ATOM     10  C   UNL     1       6.886   5.647  16.177  0.00  0.00    +0.000 A 
ATOM     11  C   UNL     1       7.005   5.067  14.911  0.00  0.00    +0.000 A 
ATOM     12  C   UNL     1       6.235   3.959  14.573  0.00  0.00    +0.000 A 
ATOM     13  C   UNL     1       5.335   3.437  15.493  0.00  0.00    +0.000 A 
ATOM     14  C   UNL     1       5.183   4.014  16.760  0.00  0.00    +0.000 A 
ATOM     15  C   UNL     1       5.986   5.110  17.104  0.00  0.00    +0.000 A 
BRANCH  10  17
ATOM     16  C   UNL     1       7.438   7.536  17.512  0.00  0.00    +0.000 C 
ATOM     17  O   UNL     1       7.693   6.738  16.367  0.00  0.00    +0.000 OA
ENDBRANCH  10  17
ENDBRANCH   6  14
ENDBRANCH   1   7
BRANCH   5  18
ATOM     18  C   UNL     1       1.382   4.588  20.314  0.00  0.00    +0.000 C 
BRANCH  18  19
ATOM     19  C   UNL     1       1.607   5.996  19.797  0.00  0.00    +0.000 A 
ATOM     20  C   UNL     1       1.392   7.124  20.605  0.00  0.00    +0.000 A 
ATOM     21  C   UNL     1       1.575   8.415  20.090  0.00  0.00    +0.000 A 
ATOM     22  C   UNL     1       2.018   8.608  18.779  0.00  0.00    +0.000 A 
ATOM     23  C   UNL     1       2.286   7.489  17.997  0.00  0.00    +0.000 A 
ATOM     24  C   UNL     1       2.068   6.201  18.494  0.00  0.00    +0.000 A 
BRANCH  22  25
ATOM     25  O   UNL     1       2.090   9.908  18.351  0.00  0.00    +0.000 OA
BRANCH  25  26
ATOM     26  C   UNL     1       1.213  10.868  18.959  0.00  0.00    +0.000 C 
ATOM     27  C   UNL     1       1.651  12.308  18.686  0.00  0.00    +0.000 C 
ATOM     28  C   UNL     1      -0.166  10.665  18.326  0.00  0.00    +0.000 C 
ENDBRANCH  25  26
ENDBRANCH  22  25
ENDBRANCH  18  19
ENDBRANCH   5  18
TORSDOF 7
ENDMDL
MODEL 2
REMARK VINA RESULT:      -7.4      1.013      1.014
REMARK  Name = 
REMARK  11 active torsions:
REMARK  status: ('A' for Active; 'I' for Inactive)
REMARK    1  A    between atoms: C_1  and  O_2
REMARK    2  A    between atoms: O_2  and  C_3
REMARK    3  A    between atoms: C_7  and  N_8
REMARK    4  A    between atoms: C_9  and  C_11
REMARK    5  A    between atoms: C_11  and  C_12
REMARK    6  A    between atoms: N_15  and  C_16
REMARK    7  A    between atoms: C_16  and  C_17
REMARK    8  A    between atoms: C_20  and  O_21
REMARK    9  A    between atoms: O_21  and  C_22
REMARK   10  A    between atoms: C_22  and  C_23
REMARK   11  A    between atoms: C_22  and  C_24
REMARK                            x       y       z     vdW  Elec       q    Type
REMARK                         _______ _______ _______ _____ _____    ______ ____
ROOT
ATOM      1  C   UNL     1       2.306   3.015  19.353  0.00  0.00    +0.000 C 
ATOM      2  C   UNL     1       0.854   2.582  19.122  0.00  0.00    +0.000 C 
ATOM      3  C   UNL     1       3.045   1.964  20.245  0.00  0.00    +0.000 C 
ATOM      4  C   UNL     1       2.691   2.889  21.424  0.00  0.00    +0.000 C 
ATOM      5  N   UNL     1       2.590   4.005  20.458  0.00  0.00    +0.000 NA
ENDROOT
BRANCH   1   7
ATOM      6  N   UNL     1       4.342   3.838  18.150  0.00  0.00    +0.000 N 
ATOM      7  C   UNL     1       3.026   3.404  17.987  0.00  0.00    +0.000 C 
ATOM      8  O   UNL     1       2.458   3.323  16.894  0.00  0.00    +0.000 OA
ATOM      9  H   UNL     1       4.623   3.996  19.111  0.00  0.00    +0.000 HD
BRANCH   6  14
ATOM     10  C   UNL     1       6.942   5.753  16.333  0.00  0.00    +0.000 A 
ATOM     11  C   UNL     1       6.977   5.081  15.107  0.00  0.00    +0.000 A 
ATOM     12  C   UNL     1       6.167   3.972  14.892  0.00  0.00    +0.000 A 
ATOM     13  C   UNL     1       5.308   3.539  15.895  0.00  0.00    +0.000 A 
ATOM     14  C   UNL     1       5.239   4.209  17.123  0.00  0.00    +0.000 A 
ATOM     15  C   UNL     1       6.084   5.305  17.343  0.00  0.00    +0.000 A 
BRANCH  10  17
ATOM     16  C   UNL     1       7.612   7.713  17.499  0.00  0.00    +0.000 C 
ATOM     17  O   UNL     1       7.781   6.834  16.400  0.00  0.00    +0.000 OA
ENDBRANCH  10  17
ENDBRANCH   6  14
ENDBRANCH   1   7
BRANCH   5  18
ATOM     18  C   UNL     1       1.471   4.903  20.787  0.00  0.00    +0.000 C 
BRANCH  18  19
ATOM     19  C   UNL     1       1.607   6.280  20.165  0.00  0.00    +0.000 A 
ATOM     20  C   UNL     1       1.224   7.443  20.852  0.00  0.00    +0.000 A 
ATOM     21  C   UNL     1       1.330   8.700  20.241  0.00  0.00    +0.000 A 
ATOM     22  C   UNL     1       1.859   8.829  18.953  0.00  0.00    +0.000 A 
ATOM     23  C   UNL     1       2.292   7.682  18.295  0.00  0.00    +0.000 A 
ATOM     24  C   UNL     1       2.153   6.424  18.887  0.00  0.00    +0.000 A 
BRANCH  22  25
ATOM     25  O   UNL     1       1.845  10.090  18.419  0.00  0.00    +0.000 OA
BRANCH  25  26
ATOM     26  C   UNL     1       1.164  11.124  19.144  0.00  0.00    +0.000 C 
ATOM     27  C   UNL     1       1.843  12.486  18.991  0.00  0.00    +0.000 C 
ATOM     28  C   UNL     1      -0.242  11.226  18.546  0.00  0.00    +0.000 C 
ENDBRANCH  25  26
ENDBRANCH  22  25
ENDBRANCH  18  19
ENDBRANCH   5  18
TORSDOF 7
ENDMDL
MODEL 3
REMARK VINA RESULT:      -7.0      2.033      6.259
REMARK  Name = 
REMARK  11 active torsions:
REMARK  status: ('A' for Active; 'I' for Inactive)
REMARK    1  A    between atoms: C_1  and  O_2
REMARK    2  A    between atoms: O_2  and  C_3
REMARK    3  A    between atoms: C_7  and  N_8
REMARK    4  A    between atoms: C_9  and  C_11
REMARK    5  A    between atoms: C_11  and  C_12
REMARK    6  A    between atoms: N_15  and  C_16
REMARK    7  A    between atoms: C_16  and  C_17
REMARK    8  A    between atoms: C_20  and  O_21
REMARK    9  A    between atoms: O_21  and  C_22
REMARK   10  A    between atoms: C_22  and  C_23
REMARK   11  A    between atoms: C_22  and  C_24
REMARK                            x       y       z     vdW  Elec       q    Type
REMARK                         _______ _______ _______ _____ _____    ______ ____
ROOT
ATOM      1  C   UNL     1       2.990   3.938  19.309  0.00  0.00    +0.000 C 
ATOM      2  C   UNL     1       3.410   2.863  20.320  0.00  0.00    +0.000 C 
ATOM      3  C   UNL     1       2.304   3.270  18.071  0.00  0.00    +0.000 C 
ATOM      4  C   UNL     1       3.693   3.340  17.411  0.00  0.00    +0.000 C 
ATOM      5  N   UNL     1       4.026   4.447  18.335  0.00  0.00    +0.000 NA
ENDROOT
BRANCH   1   7
ATOM      6  N   UNL     1       2.455   6.377  19.480  0.00  0.00    +0.000 N 
ATOM      7  C   UNL     1       2.179   5.116  20.008  0.00  0.00    +0.000 C 
ATOM      8  O   UNL     1       1.384   4.915  20.931  0.00  0.00    +0.000 OA
ATOM      9  H   UNL     1       3.236   6.407  18.833  0.00  0.00    +0.000 HD
BRANCH   6  14
ATOM     10  C   UNL     1       1.229   9.867  19.259  0.00  0.00    +0.000 A 
ATOM     11  C   UNL     1       0.797  10.094  20.570  0.00  0.00    +0.000 A 
ATOM     12  C   UNL     1       0.878   9.082  21.519  0.00  0.00    +0.000 A 
ATOM     13  C   UNL     1       1.404   7.844  21.167  0.00  0.00    +0.000 A 
ATOM     14  C   UNL     1       1.863   7.600  19.867  0.00  0.00    +0.000 A 
ATOM     15  C   UNL     1       1.746   8.615  18.908  0.00  0.00    +0.000 A 
BRANCH  10  17
ATOM     16  C   UNL     1       0.081  11.886  18.752  0.00  0.00    +0.000 C 
ATOM     17  O   UNL     1       1.103  10.954  18.436  0.00  0.00    +0.000 OA
ENDBRANCH  10  17
ENDBRANCH   6  14
ENDBRANCH   1   7
BRANCH   5  18
ATOM     18  C   UNL     1       5.417   4.354  18.807  0.00  0.00    +0.000 C 
BRANCH  18  19
ATOM     19  C   UNL     1       6.252   5.568  18.446  0.00  0.00    +0.000 A 
ATOM     20  C   UNL     1       7.495   5.817  19.051  0.00  0.00    +0.000 A 
ATOM     21  C   UNL     1       8.231   6.964  18.722  0.00  0.00    +0.000 A 
ATOM     22  C   UNL     1       7.767   7.861  17.754  0.00  0.00    +0.000 A 
ATOM     23  C   UNL     1       6.564   7.583  17.114  0.00  0.00    +0.000 A 
ATOM     24  C   UNL     1       5.810   6.460  17.466  0.00  0.00    +0.000 A 
BRANCH  22  25
ATOM     25  O   UNL     1       8.523   8.988  17.564  0.00  0.00    +0.000 OA
BRANCH  25  26
ATOM     26  C   UNL     1       8.327  10.091  18.461  0.00  0.00    +0.000 C 
ATOM     27  C   UNL     1       9.479  10.242  19.457  0.00  0.00    +0.000 C 
ATOM     28  C   UNL     1       8.279  11.354  17.598  0.00  0.00    +0.000 C 
ENDBRANCH  25  26
ENDBRANCH  22  25
ENDBRANCH  18  19
ENDBRANCH   5  18
TORSDOF 7
ENDMDL
MODEL 4
REMARK VINA RESULT:      -6.8      3.636      8.696
REMARK  Name = 
REMARK  11 active torsions:
REMARK  status: ('A' for Active; 'I' for Inactive)
REMARK    1  A    between atoms: C_1  and  O_2
REMARK    2  A    between atoms: O_2  and  C_3
REMARK    3  A    between atoms: C_7  and  N_8
REMARK    4  A    between atoms: C_9  and  C_11
REMARK    5  A    between atoms: C_11  and  C_12
REMARK    6  A    between atoms: N_15  and  C_16
REMARK    7  A    between atoms: C_16  and  C_17
REMARK    8  A    between atoms: C_20  and  O_21
REMARK    9  A    between atoms: O_21  and  C_22
REMARK   10  A    between atoms: C_22  and  C_23
REMARK   11  A    between atoms: C_22  and  C_24
REMARK                            x       y       z     vdW  Elec       q    Type
REMARK                         _______ _______ _______ _____ _____    ______ ____
ROOT
ATOM      1  C   UNL     1       0.012  10.890  20.973  0.00  0.00    +0.000 C 
ATOM      2  C   UNL     1       1.137  11.878  21.306  0.00  0.00    +0.000 C 
ATOM      3  C   UNL     1      -0.755  10.491  22.277  0.00  0.00    +0.000 C 
ATOM      4  C   UNL     1       0.174   9.263  22.307  0.00  0.00    +0.000 C 
ATOM      5  N   UNL     1       0.361   9.425  20.849  0.00  0.00    +0.000 NA
ENDROOT
BRANCH   1   7
ATOM      6  N   UNL     1      -1.542  10.387  19.076  0.00  0.00    +0.000 N 
ATOM      7  C   UNL     1      -0.884  11.407  19.763  0.00  0.00    +0.000 C 
ATOM      8  O   UNL     1      -0.976  12.604  19.473  0.00  0.00    +0.000 OA
ATOM      9  H   UNL     1      -1.254   9.448  19.329  0.00  0.00    +0.000 HD
BRANCH   6  14
ATOM     10  C   UNL     1      -2.837  10.301  15.606  0.00  0.00    +0.000 A 
ATOM     11  C   UNL     1      -4.090  10.902  15.760  0.00  0.00    +0.000 A 
ATOM     12  C   UNL     1      -4.523  11.305  17.019  0.00  0.00    +0.000 A 
ATOM     13  C   UNL     1      -3.700  11.122  18.124  0.00  0.00    +0.000 A 
ATOM     14  C   UNL     1      -2.433  10.542  17.990  0.00  0.00    +0.000 A 
ATOM     15  C   UNL     1      -2.018  10.109  16.724  0.00  0.00    +0.000 A 
BRANCH  10  17
ATOM     16  C   UNL     1      -3.617   9.907  13.394  0.00  0.00    +0.000 C 
ATOM     17  O   UNL     1      -2.536   9.968  14.311  0.00  0.00    +0.000 OA
ENDBRANCH  10  17
ENDBRANCH   6  14
ENDBRANCH   1   7
BRANCH   5  18
ATOM     18  C   UNL     1       1.752   9.152  20.451  0.00  0.00    +0.000 C 
BRANCH  18  19
ATOM     19  C   UNL     1       1.936   7.783  19.825  0.00  0.00    +0.000 A 
ATOM     20  C   UNL     1       1.730   6.602  20.555  0.00  0.00    +0.000 A 
ATOM     21  C   UNL     1       1.939   5.350  19.960  0.00  0.00    +0.000 A 
ATOM     22  C   UNL     1       2.313   5.247  18.617  0.00  0.00    +0.000 A 
ATOM     23  C   UNL     1       2.461   6.417  17.878  0.00  0.00    +0.000 A 
ATOM     24  C   UNL     1       2.290   7.668  18.478  0.00  0.00    +0.000 A 
BRANCH  22  25
ATOM     25  O   UNL     1       2.568   3.983  18.156  0.00  0.00    +0.000 OA
BRANCH  25  26
ATOM     26  C   UNL     1       2.247   2.875  19.010  0.00  0.00    +0.000 C 
ATOM     27  C   UNL     1       0.847   2.319  18.739  0.00  0.00    +0.000 C 
ATOM     28  C   UNL     1       3.262   1.772  18.699  0.00  0.00    +0.000 C 
ENDBRANCH  25  26
ENDBRANCH  22  25
ENDBRANCH  18  19
ENDBRANCH   5  18
TORSDOF 7
ENDMDL
MODEL 5
REMARK VINA RESULT:      -6.7      1.798      6.619
REMARK  Name = 
REMARK  11 active torsions:
REMARK  status: ('A' for Active; 'I' for Inactive)
REMARK    1  A    between atoms: C_1  and  O_2
REMARK    2  A    between atoms: O_2  and  C_3
REMARK    3  A    between atoms: C_7  and  N_8
REMARK    4  A    between atoms: C_9  and  C_11
REMARK    5  A    between atoms: C_11  and  C_12
REMARK    6  A    between atoms: N_15  and  C_16
REMARK    7  A    between atoms: C_16  and  C_17
REMARK    8  A    between atoms: C_20  and  O_21
REMARK    9  A    between atoms: O_21  and  C_22
REMARK   10  A    between atoms: C_22  and  C_23
REMARK   11  A    between atoms: C_22  and  C_24
REMARK                            x       y       z     vdW  Elec       q    Type
REMARK                         _______ _______ _______ _____ _____    ______ ____
ROOT
ATOM      1  C   UNL     1       2.341   3.365  20.082  0.00  0.00    +0.000 C 
ATOM      2  C   UNL     1       3.072   3.100  21.404  0.00  0.00    +0.000 C 
ATOM      3  C   UNL     1       1.421   2.151  19.725  0.00  0.00    +0.000 C 
ATOM      4  C   UNL     1       2.597   1.667  18.857  0.00  0.00    +0.000 C 
ATOM      5  N   UNL     1       3.067   3.068  18.791  0.00  0.00    +0.000 NA
ENDROOT
BRANCH   1   7
ATOM      6  N   UNL     1       2.445   5.807  19.539  0.00  0.00    +0.000 N 
ATOM      7  C   UNL     1       1.645   4.797  20.074  0.00  0.00    +0.000 C 
ATOM      8  O   UNL     1       0.503   4.979  20.505  0.00  0.00    +0.000 OA
ATOM      9  H   UNL     1       3.408   5.541  19.366  0.00  0.00    +0.000 HD
BRANCH   6  14
ATOM     10  C   UNL     1       1.219   9.208  20.350  0.00  0.00    +0.000 A 
ATOM     11  C   UNL     1       1.255   9.824  19.095  0.00  0.00    +0.000 A 
ATOM     12  C   UNL     1       1.718   9.126  17.985  0.00  0.00    +0.000 A 
ATOM     13  C   UNL     1       2.134   7.807  18.122  0.00  0.00    +0.000 A 
ATOM     14  C   UNL     1       2.086   7.162  19.364  0.00  0.00    +0.000 A 
ATOM     15  C   UNL     1       1.649   7.884  20.484  0.00  0.00    +0.000 A 
BRANCH  10  17
ATOM     16  C   UNL     1      -0.161  11.044  20.964  0.00  0.00    +0.000 C 
ATOM     17  O   UNL     1       0.728  10.008  21.348  0.00  0.00    +0.000 OA
ENDBRANCH  10  17
ENDBRANCH   6  14
ENDBRANCH   1   7
BRANCH   5  18
ATOM     18  C   UNL     1       4.534   3.148  18.874  0.00  0.00    +0.000 C 
BRANCH  18  19
ATOM     19  C   UNL     1       5.160   3.870  17.695  0.00  0.00    +0.000 A 
ATOM     20  C   UNL     1       4.501   3.978  16.460  0.00  0.00    +0.000 A 
ATOM     21  C   UNL     1       5.116   4.622  15.377  0.00  0.00    +0.000 A 
ATOM     22  C   UNL     1       6.378   5.208  15.514  0.00  0.00    +0.000 A 
ATOM     23  C   UNL     1       7.006   5.151  16.754  0.00  0.00    +0.000 A 
ATOM     24  C   UNL     1       6.411   4.477  17.825  0.00  0.00    +0.000 A 
BRANCH  22  25
ATOM     25  O   UNL     1       6.922   5.742  14.376  0.00  0.00    +0.000 OA
BRANCH  25  26
ATOM     26  C   UNL     1       7.652   4.869  13.502  0.00  0.00    +0.000 C 
ATOM     27  C   UNL     1       6.732   4.086  12.563  0.00  0.00    +0.000 C 
ATOM     28  C   UNL     1       8.556   5.759  12.646  0.00  0.00    +0.000 C 
ENDBRANCH  25  26
ENDBRANCH  22  25
ENDBRANCH  18  19
ENDBRANCH   5  18
TORSDOF 7
ENDMDL
MODEL 6
REMARK VINA RESULT:      -6.7      1.176      1.511
REMARK  Name = 
REMARK  11 active torsions:
REMARK  status: ('A' for Active; 'I' for Inactive)
REMARK    1  A    between atoms: C_1  and  O_2
REMARK    2  A    between atoms: O_2  and  C_3
REMARK    3  A    between atoms: C_7  and  N_8
REMARK    4  A    between atoms: C_9  and  C_11
REMARK    5  A    between atoms: C_11  and  C_12
REMARK    6  A    between atoms: N_15  and  C_16
REMARK    7  A    between atoms: C_16  and  C_17
REMARK    8  A    between atoms: C_20  and  O_21
REMARK    9  A    between atoms: O_21  and  C_22
REMARK   10  A    between atoms: C_22  and  C_23
REMARK   11  A    between atoms: C_22  and  C_24
REMARK                            x       y       z     vdW  Elec       q    Type
REMARK                         _______ _______ _______ _____ _____    ______ ____
ROOT
ATOM      1  C   UNL     1       2.300   3.482  19.653  0.00  0.00    +0.000 C 
ATOM      2  C   UNL     1       0.888   2.932  19.416  0.00  0.00    +0.000 C 
ATOM      3  C   UNL     1       3.110   2.506  20.569  0.00  0.00    +0.000 C 
ATOM      4  C   UNL     1       2.673   3.420  21.729  0.00  0.00    +0.000 C 
ATOM      5  N   UNL     1       2.495   4.509  20.744  0.00  0.00    +0.000 NA
ENDROOT
BRANCH   1   7
ATOM      6  N   UNL     1       4.392   3.972  18.368  0.00  0.00    +0.000 N 
ATOM      7  C   UNL     1       3.001   3.904  18.287  0.00  0.00    +0.000 C 
ATOM      8  O   UNL     1       2.358   4.145  17.261  0.00  0.00    +0.000 OA
ATOM      9  H   UNL     1       4.769   3.896  19.306  0.00  0.00    +0.000 HD
BRANCH   6  14
ATOM     10  C   UNL     1       6.977   5.772  16.416  0.00  0.00    +0.000 A 
ATOM     11  C   UNL     1       7.008   5.023  15.236  0.00  0.00    +0.000 A 
ATOM     12  C   UNL     1       6.200   3.900  15.098  0.00  0.00    +0.000 A 
ATOM     13  C   UNL     1       5.348   3.530  16.132  0.00  0.00    +0.000 A 
ATOM     14  C   UNL     1       5.283   4.278  17.314  0.00  0.00    +0.000 A 
ATOM     15  C   UNL     1       6.125   5.389  17.458  0.00  0.00    +0.000 A 
BRANCH  10  17
ATOM     16  C   UNL     1       7.684   7.777  17.480  0.00  0.00    +0.000 C 
ATOM     17  O   UNL     1       7.813   6.857  16.408  0.00  0.00    +0.000 OA
ENDBRANCH  10  17
ENDBRANCH   6  14
ENDBRANCH   1   7
BRANCH   5  18
ATOM     18  C   UNL     1       1.306   5.321  21.048  0.00  0.00    +0.000 C 
BRANCH  18  19
ATOM     19  C   UNL     1       1.367   6.715  20.453  0.00  0.00    +0.000 A 
ATOM     20  C   UNL     1       1.963   6.962  19.206  0.00  0.00    +0.000 A 
ATOM     21  C   UNL     1       2.036   8.265  18.695  0.00  0.00    +0.000 A 
ATOM     22  C   UNL     1       1.479   9.341  19.393  0.00  0.00    +0.000 A 
ATOM     23  C   UNL     1       0.837   9.088  20.601  0.00  0.00    +0.000 A 
ATOM     24  C   UNL     1       0.796   7.795  21.131  0.00  0.00    +0.000 A 
BRANCH  22  25
ATOM     25  O   UNL     1       1.673  10.582  18.845  0.00  0.00    +0.000 OA
BRANCH  25  26
ATOM     26  C   UNL     1       0.957  11.689  19.411  0.00  0.00    +0.000 C 
ATOM     27  C   UNL     1       1.828  12.940  19.539  0.00  0.00    +0.000 C 
ATOM     28  C   UNL     1      -0.190  12.008  18.448  0.00  0.00    +0.000 C 
ENDBRANCH  25  26
ENDBRANCH  22  25
ENDBRANCH  18  19
ENDBRANCH   5  18
TORSDOF 7
ENDMDL
MODEL 7
REMARK VINA RESULT:      -6.6      2.306      3.454
REMARK  Name = 
REMARK  11 active torsions:
REMARK  status: ('A' for Active; 'I' for Inactive)
REMARK    1  A    between atoms: C_1  and  O_2
REMARK    2  A    between atoms: O_2  and  C_3
REMARK    3  A    between atoms: C_7  and  N_8
REMARK    4  A    between atoms: C_9  and  C_11
REMARK    5  A    between atoms: C_11  and  C_12
REMARK    6  A    between atoms: N_15  and  C_16
REMARK    7  A    between atoms: C_16  and  C_17
REMARK    8  A    between atoms: C_20  and  O_21
REMARK    9  A    between atoms: O_21  and  C_22
REMARK   10  A    between atoms: C_22  and  C_23
REMARK   11  A    between atoms: C_22  and  C_24
REMARK                            x       y       z     vdW  Elec       q    Type
REMARK                         _______ _______ _______ _____ _____    ______ ____
ROOT
ATOM      1  C   UNL     1       4.406   4.541  17.975  0.00  0.00    +0.000 C 
ATOM      2  C   UNL     1       3.485   3.318  17.888  0.00  0.00    +0.000 C 
ATOM      3  C   UNL     1       5.533   4.290  19.031  0.00  0.00    +0.000 C 
ATOM      4  C   UNL     1       4.616   5.041  20.014  0.00  0.00    +0.000 C 
ATOM      5  N   UNL     1       3.981   5.696  18.851  0.00  0.00    +0.000 NA
ENDROOT
BRANCH   1   7
ATOM      6  N   UNL     1       5.518   4.011  15.796  0.00  0.00    +0.000 N 
ATOM      7  C   UNL     1       4.890   5.014  16.534  0.00  0.00    +0.000 C 
ATOM      8  O   UNL     1       4.718   6.166  16.124  0.00  0.00    +0.000 OA
ATOM      9  H   UNL     1       5.722   3.164  16.315  0.00  0.00    +0.000 HD
BRANCH   6  14
ATOM     10  C   UNL     1       5.773   3.540  12.129  0.00  0.00    +0.000 A 
ATOM     11  C   UNL     1       6.973   4.199  11.846  0.00  0.00    +0.000 A 
ATOM     12  C   UNL     1       7.682   4.830  12.862  0.00  0.00    +0.000 A 
ATOM     13  C   UNL     1       7.202   4.793  14.166  0.00  0.00    +0.000 A 
ATOM     14  C   UNL     1       6.014   4.121  14.477  0.00  0.00    +0.000 A 
ATOM     15  C   UNL     1       5.288   3.516  13.442  0.00  0.00    +0.000 A 
BRANCH  10  17
ATOM     16  C   UNL     1       3.791   3.135  10.879  0.00  0.00    +0.000 C 
ATOM     17  O   UNL     1       5.189   2.953  11.037  0.00  0.00    +0.000 OA
ENDBRANCH  10  17
ENDBRANCH   6  14
ENDBRANCH   1   7
BRANCH   5  18
ATOM     18  C   UNL     1       2.527   5.830  19.035  0.00  0.00    +0.000 C 
BRANCH  18  19
ATOM     19  C   UNL     1       2.062   7.273  19.096  0.00  0.00    +0.000 A 
ATOM     20  C   UNL     1       1.639   7.862  20.298  0.00  0.00    +0.000 A 
ATOM     21  C   UNL     1       1.183   9.188  20.320  0.00  0.00    +0.000 A 
ATOM     22  C   UNL     1       1.182   9.965  19.159  0.00  0.00    +0.000 A 
ATOM     23  C   UNL     1       1.655   9.399  17.980  0.00  0.00    +0.000 A 
ATOM     24  C   UNL     1       2.075   8.065  17.946  0.00  0.00    +0.000 A 
BRANCH  22  25
ATOM     25  O   UNL     1       0.644  11.220  19.273  0.00  0.00    +0.000 OA
BRANCH  25  26
ATOM     26  C   UNL     1      -0.415  11.585  18.376  0.00  0.00    +0.000 C 
ATOM     27  C   UNL     1      -1.729  10.875  18.709  0.00  0.00    +0.000 C 
ATOM     28  C   UNL     1      -0.636  13.090  18.546  0.00  0.00    +0.000 C 
ENDBRANCH  25  26
ENDBRANCH  22  25
ENDBRANCH  18  19
ENDBRANCH   5  18
TORSDOF 7
ENDMDL
MODEL 8
REMARK VINA RESULT:      -6.6      2.072      6.272
REMARK  Name = 
REMARK  11 active torsions:
REMARK  status: ('A' for Active; 'I' for Inactive)
REMARK    1  A    between atoms: C_1  and  O_2
REMARK    2  A    between atoms: O_2  and  C_3
REMARK    3  A    between atoms: C_7  and  N_8
REMARK    4  A    between atoms: C_9  and  C_11
REMARK    5  A    between atoms: C_11  and  C_12
REMARK    6  A    between atoms: N_15  and  C_16
REMARK    7  A    between atoms: C_16  and  C_17
REMARK    8  A    between atoms: C_20  and  O_21
REMARK    9  A    between atoms: O_21  and  C_22
REMARK   10  A    between atoms: C_22  and  C_23
REMARK   11  A    between atoms: C_22  and  C_24
REMARK                            x       y       z     vdW  Elec       q    Type
REMARK                         _______ _______ _______ _____ _____    ______ ____
ROOT
ATOM      1  C   UNL     1       3.058   4.062  19.074  0.00  0.00    +0.000 C 
ATOM      2  C   UNL     1       3.513   2.854  19.902  0.00  0.00    +0.000 C 
ATOM      3  C   UNL     1       2.151   3.589  17.890  0.00  0.00    +0.000 C 
ATOM      4  C   UNL     1       3.438   3.626  17.045  0.00  0.00    +0.000 C 
ATOM      5  N   UNL     1       3.993   4.595  18.014  0.00  0.00    +0.000 NA
ENDROOT
BRANCH   1   7
ATOM      6  N   UNL     1       2.273   6.425  19.330  0.00  0.00    +0.000 N 
ATOM      7  C   UNL     1       2.462   5.214  19.997  0.00  0.00    +0.000 C 
ATOM      8  O   UNL     1       2.197   5.036  21.189  0.00  0.00    +0.000 OA
ATOM      9  H   UNL     1       2.674   6.466  18.400  0.00  0.00    +0.000 HD
BRANCH   6  14
ATOM     10  C   UNL     1       1.269   9.981  19.606  0.00  0.00    +0.000 A 
ATOM     11  C   UNL     1       0.755  10.026  20.905  0.00  0.00    +0.000 A 
ATOM     12  C   UNL     1       0.708   8.872  21.680  0.00  0.00    +0.000 A 
ATOM     13  C   UNL     1       1.186   7.673  21.164  0.00  0.00    +0.000 A 
ATOM     14  C   UNL     1       1.725   7.609  19.874  0.00  0.00    +0.000 A 
ATOM     15  C   UNL     1       1.739   8.769  19.088  0.00  0.00    +0.000 A 
BRANCH  10  17
ATOM     16  C   UNL     1       2.232  11.380  17.942  0.00  0.00    +0.000 C 
ATOM     17  O   UNL     1       1.267  11.192  18.965  0.00  0.00    +0.000 OA
ENDBRANCH  10  17
ENDBRANCH   6  14
ENDBRANCH   1   7
BRANCH   5  18
ATOM     18  C   UNL     1       5.422   4.346  18.267  0.00  0.00    +0.000 C 
BRANCH  18  19
ATOM     19  C   UNL     1       6.273   5.597  18.165  0.00  0.00    +0.000 A 
ATOM     20  C   UNL     1       5.917   6.667  17.329  0.00  0.00    +0.000 A 
ATOM     21  C   UNL     1       6.741   7.797  17.228  0.00  0.00    +0.000 A 
ATOM     22  C   UNL     1       7.909   7.904  17.988  0.00  0.00    +0.000 A 
ATOM     23  C   UNL     1       8.231   6.869  18.860  0.00  0.00    +0.000 A 
ATOM     24  C   UNL     1       7.432   5.724  18.935  0.00  0.00    +0.000 A 
BRANCH  22  25
ATOM     25  O   UNL     1       8.680   9.012  17.757  0.00  0.00    +0.000 OA
BRANCH  25  26
ATOM     26  C   UNL     1       8.475  10.164  18.589  0.00  0.00    +0.000 C 
ATOM     27  C   UNL     1       9.592  10.343  19.619  0.00  0.00    +0.000 C 
ATOM     28  C   UNL     1       8.487  11.382  17.662  0.00  0.00    +0.000 C 
ENDBRANCH  25  26
ENDBRANCH  22  25
ENDBRANCH  18  19
ENDBRANCH   5  18
TORSDOF 7
ENDMDL
MODEL 9
REMARK VINA RESULT:      -6.6      3.415      8.455
REMARK  Name = 
REMARK  11 active torsions:
REMARK  status: ('A' for Active; 'I' for Inactive)
REMARK    1  A    between atoms: C_1  and  O_2
REMARK    2  A    between atoms: O_2  and  C_3
REMARK    3  A    between atoms: C_7  and  N_8
REMARK    4  A    between atoms: C_9  and  C_11
REMARK    5  A    between atoms: C_11  and  C_12
REMARK    6  A    between atoms: N_15  and  C_16
REMARK    7  A    between atoms: C_16  and  C_17
REMARK    8  A    between atoms: C_20  and  O_21
REMARK    9  A    between atoms: O_21  and  C_22
REMARK   10  A    between atoms: C_22  and  C_23
REMARK   11  A    between atoms: C_22  and  C_24
REMARK                            x       y       z     vdW  Elec       q    Type
REMARK                         _______ _______ _______ _____ _____    ______ ____
ROOT
ATOM      1  C   UNL     1       0.162  10.260  20.612  0.00  0.00    +0.000 C 
ATOM      2  C   UNL     1       1.357  11.214  20.731  0.00  0.00    +0.000 C 
ATOM      3  C   UNL     1      -0.835  10.499  21.794  0.00  0.00    +0.000 C 
ATOM      4  C   UNL     1      -0.106   9.334  22.489  0.00  0.00    +0.000 C 
ATOM      5  N   UNL     1       0.311   8.857  21.152  0.00  0.00    +0.000 NA
ENDROOT
BRANCH   1   7
ATOM      6  N   UNL     1      -1.822  10.614  19.127  0.00  0.00    +0.000 N 
ATOM      7  C   UNL     1      -0.466  10.286  19.150  0.00  0.00    +0.000 C 
ATOM      8  O   UNL     1       0.199  10.037  18.140  0.00  0.00    +0.000 OA
ATOM      9  H   UNL     1      -2.268  10.644  20.038  0.00  0.00    +0.000 HD
BRANCH   6  14
ATOM     10  C   UNL     1      -2.940  10.336  15.606  0.00  0.00    +0.000 A 
ATOM     11  C   UNL     1      -4.131  11.067  15.633  0.00  0.00    +0.000 A 
ATOM     12  C   UNL     1      -4.585  11.624  16.823  0.00  0.00    +0.000 A 
ATOM     13  C   UNL     1      -3.843  11.464  17.987  0.00  0.00    +0.000 A 
ATOM     14  C   UNL     1      -2.636  10.754  17.980  0.00  0.00    +0.000 A 
ATOM     15  C   UNL     1      -2.203  10.168  16.783  0.00  0.00    +0.000 A 
BRANCH  10  17
ATOM     16  C   UNL     1      -3.621   9.887  13.373  0.00  0.00    +0.000 C 
ATOM     17  O   UNL     1      -2.609   9.857  14.365  0.00  0.00    +0.000 OA
ENDBRANCH  10  17
ENDBRANCH   6  14
ENDBRANCH   1   7
BRANCH   5  18
ATOM     18  C   UNL     1       1.691   8.344  21.170  0.00  0.00    +0.000 C 
BRANCH  18  19
ATOM     19  C   UNL     1       1.901   7.165  20.240  0.00  0.00    +0.000 A 
ATOM     20  C   UNL     1       1.592   5.852  20.630  0.00  0.00    +0.000 A 
ATOM     21  C   UNL     1       1.828   4.776  19.762  0.00  0.00    +0.000 A 
ATOM     22  C   UNL     1       2.333   4.989  18.476  0.00  0.00    +0.000 A 
ATOM     23  C   UNL     1       2.585   6.296  18.070  0.00  0.00    +0.000 A 
ATOM     24  C   UNL     1       2.387   7.367  18.946  0.00  0.00    +0.000 A 
BRANCH  22  25
ATOM     25  O   UNL     1       2.600   3.866  17.738  0.00  0.00    +0.000 OA
BRANCH  25  26
ATOM     26  C   UNL     1       3.973   3.515  17.516  0.00  0.00    +0.000 C 
ATOM     27  C   UNL     1       4.658   4.450  16.517  0.00  0.00    +0.000 C 
ATOM     28  C   UNL     1       4.686   3.659  18.864  0.00  0.00    +0.000 C 
ENDBRANCH  25  26
ENDBRANCH  22  25
ENDBRANCH  18  19
ENDBRANCH   5  18
TORSDOF 7
ENDMDL
