MODEL 1
REMARK VINA RESULT:      -7.4      0.000      0.000
REMARK  Name = 
REMARK  10 active torsions:
REMARK  status: ('A' for Active; 'I' for Inactive)
REMARK    1  A    between atoms: C_1  and  C_2
REMARK    2  A    between atoms: C_2  and  N_3
REMARK    3  A    between atoms: N_3  and  C_4
REMARK    4  A    between atoms: N_3  and  S_6
REMARK    5  A    between atoms: C_4  and  C_5
REMARK    6  A    between atoms: S_6  and  C_9
REMARK    7  A    between atoms: C_14  and  C_15
REMARK    8  A    between atoms: N_17  and  C_18
REMARK    9  A    between atoms: N_17  and  C_19
REMARK   10  A    between atoms: C_23  and  C_24
REMARK                            x       y       z     vdW  Elec       q    Type
REMARK                         _______ _______ _______ _____ _____    ______ ____
ROOT
ATOM      1  C   UNL     1       4.307   6.158  17.843  0.00  0.00    +0.000 A 
ATOM      2  C   UNL     1       4.267   4.866  18.356  0.00  0.00    +0.000 A 
ATOM      3  C   UNL     1       3.284   4.544  19.289  0.00  0.00    +0.000 A 
ATOM      4  C   UNL     1       2.358   5.511  19.724  0.00  0.00    +0.000 A 
ATOM      5 CL   UNL     1       0.944   4.871  20.484  0.00  0.00    +0.000 Cl
ATOM      6  C   UNL     1       2.522   6.862  19.382  0.00  0.00    +0.000 A 
ATOM      7  C   UNL     1       3.496   7.163  18.396  0.00  0.00    +0.000 A 
ENDROOT
BRANCH   6   8
ATOM      8  C   UNL     1       1.677   8.024  19.830  0.00  0.00    +0.000 C 
ATOM      9  O   UNL     1       1.208   7.904  20.968  0.00  0.00    +0.000 OA
ATOM     10  N   UNL     1       1.391   9.147  19.018  0.00  0.00    +0.000 N 
ATOM     11  C   UNL     1       1.979   9.433  17.708  0.00  0.00    +0.000 C 
BRANCH  10  12
ATOM     12  C   UNL     1       0.516  10.101  19.582  0.00  0.00    +0.000 A 
ATOM     13  S   UNL     1       1.076  10.908  21.007  0.00  0.00    +0.000 S 
ATOM     14  C   UNL     1      -0.373  11.726  21.147  0.00  0.00    +0.000 A 
ATOM     15  C   UNL     1      -1.240  11.510  20.113  0.00  0.00    +0.000 A 
ATOM     16  C   UNL     1      -0.751  10.536  19.199  0.00  0.00    +0.000 A 
ATOM     17  C   UNL     1      -2.467  12.340  20.265  0.00  0.00    +0.000 C 
ATOM     18  C   UNL     1      -2.078  13.313  21.427  0.00  0.00    +0.000 C 
ATOM     19  C   UNL     1      -0.888  12.653  22.185  0.00  0.00    +0.000 C 
BRANCH  16  20
ATOM     20  C   UNL     1      -1.424  10.129  18.004  0.00  0.00    +0.000 C 
ATOM     21  N   UNL     1      -1.918   9.800  17.002  0.00  0.00    +0.000 NA
ENDBRANCH  16  20
ENDBRANCH  10  12
ENDBRANCH   6   8
BRANCH   1  22
ATOM     22  S   UNL     1       5.410   6.515  16.484  0.00  0.00    +0.000 S 
ATOM     23  O   UNL     1       6.530   7.255  17.035  0.00  0.00    +0.000 OA
ATOM     24  O   UNL     1       4.624   7.055  15.401  0.00  0.00    +0.000 OA
BRANCH  22  25
ATOM     25  N   UNL     1       5.985   4.956  16.008  0.00  0.00    +0.000 NA
BRANCH  25  27
ATOM     26  C   UNL     1       6.631   4.246  13.673  0.00  0.00    +0.000 C 
ATOM     27  C   UNL     1       5.505   4.502  14.667  0.00  0.00    +0.000 C 
ENDBRANCH  25  27
BRANCH  25  28
ATOM     28  C   UNL     1       7.444   4.730  16.265  0.00  0.00    +0.000 C 
ATOM     29  C   UNL     1       7.775   4.462  17.723  0.00  0.00    +0.000 C 
ENDBRANCH  25  28
ENDBRANCH  22  25
ENDBRANCH   1  22
TORSDOF 7
ENDMDL
MODEL 2
REMARK VINA RESULT:      -7.3      1.066      1.527
REMARK  Name = 
REMARK  10 active torsions:
REMARK  status: ('A' for Active; 'I' for Inactive)
REMARK    1  A    between atoms: C_1  and  C_2
REMARK    2  A    between atoms: C_2  and  N_3
REMARK    3  A    between atoms: N_3  and  C_4
REMARK    4  A    between atoms: N_3  and  S_6
REMARK    5  A    between atoms: C_4  and  C_5
REMARK    6  A    between atoms: S_6  and  C_9
REMARK    7  A    between atoms: C_14  and  C_15
REMARK    8  A    between atoms: N_17  and  C_18
REMARK    9  A    between atoms: N_17  and  C_19
REMARK   10  A    between atoms: C_23  and  C_24
REMARK                            x       y       z     vdW  Elec       q    Type
REMARK                         _______ _______ _______ _____ _____    ______ ____
ROOT
ATOM      1  C   UNL     1       4.208   5.752  17.554  0.00  0.00    +0.000 A 
ATOM      2  C   UNL     1       4.229   4.485  18.125  0.00  0.00    +0.000 A 
ATOM      3  C   UNL     1       3.351   4.204  19.170  0.00  0.00    +0.000 A 
ATOM      4  C   UNL     1       2.472   5.190  19.657  0.00  0.00    +0.000 A 
ATOM      5 CL   UNL     1       1.150   4.585  20.591  0.00  0.00    +0.000 Cl
ATOM      6  C   UNL     1       2.593   6.524  19.241  0.00  0.00    +0.000 A 
ATOM      7  C   UNL     1       3.456   6.781  18.145  0.00  0.00    +0.000 A 
ENDROOT
BRANCH   6   8
ATOM      8  C   UNL     1       1.795   7.706  19.724  0.00  0.00    +0.000 C 
ATOM      9  O   UNL     1       1.341   7.580  20.867  0.00  0.00    +0.000 OA
ATOM     10  N   UNL     1       1.535   8.853  18.938  0.00  0.00    +0.000 N 
ATOM     11  C   UNL     1       2.111   9.144  17.623  0.00  0.00    +0.000 C 
BRANCH  10  12
ATOM     12  C   UNL     1       0.701   9.825  19.533  0.00  0.00    +0.000 A 
ATOM     13  S   UNL     1       1.268  10.516  21.015  0.00  0.00    +0.000 S 
ATOM     14  C   UNL     1      -0.135  11.411  21.166  0.00  0.00    +0.000 A 
ATOM     15  C   UNL     1      -0.983  11.306  20.100  0.00  0.00    +0.000 A 
ATOM     16  C   UNL     1      -0.526  10.356  19.144  0.00  0.00    +0.000 A 
ATOM     17  C   UNL     1      -2.163  12.198  20.269  0.00  0.00    +0.000 C 
ATOM     18  C   UNL     1      -1.750  13.080  21.494  0.00  0.00    +0.000 C 
ATOM     19  C   UNL     1      -0.623  12.308  22.242  0.00  0.00    +0.000 C 
BRANCH  16  20
ATOM     20  C   UNL     1      -1.189  10.057  17.911  0.00  0.00    +0.000 C 
ATOM     21  N   UNL     1      -1.760   9.771  16.939  0.00  0.00    +0.000 NA
ENDBRANCH  16  20
ENDBRANCH  10  12
ENDBRANCH   6   8
BRANCH   1  22
ATOM     22  S   UNL     1       5.159   6.047  16.072  0.00  0.00    +0.000 S 
ATOM     23  O   UNL     1       4.777   7.359  15.580  0.00  0.00    +0.000 OA
ATOM     24  O   UNL     1       5.051   4.879  15.231  0.00  0.00    +0.000 OA
BRANCH  22  25
ATOM     25  N   UNL     1       6.786   6.149  16.647  0.00  0.00    +0.000 NA
BRANCH  25  27
ATOM     26  C   UNL     1       7.831   8.262  17.552  0.00  0.00    +0.000 C 
ATOM     27  C   UNL     1       6.969   7.038  17.835  0.00  0.00    +0.000 C 
ENDBRANCH  25  27
BRANCH  25  28
ATOM     28  C   UNL     1       7.495   4.830  16.732  0.00  0.00    +0.000 C 
ATOM     29  C   UNL     1       7.974   4.482  18.130  0.00  0.00    +0.000 C 
ENDBRANCH  25  28
ENDBRANCH  22  25
ENDBRANCH   1  22
TORSDOF 7
ENDMDL
MODEL 3
REMARK VINA RESULT:      -7.3      1.439      1.955
REMARK  Name = 
REMARK  10 active torsions:
REMARK  status: ('A' for Active; 'I' for Inactive)
REMARK    1  A    between atoms: C_1  and  C_2
REMARK    2  A    between atoms: C_2  and  N_3
REMARK    3  A    between atoms: N_3  and  C_4
REMARK    4  A    between atoms: N_3  and  S_6
REMARK    5  A    between atoms: C_4  and  C_5
REMARK    6  A    between atoms: S_6  and  C_9
REMARK    7  A    between atoms: C_14  and  C_15
REMARK    8  A    between atoms: N_17  and  C_18
REMARK    9  A    between atoms: N_17  and  C_19
REMARK   10  A    between atoms: C_23  and  C_24
REMARK                            x       y       z     vdW  Elec       q    Type
REMARK                         _______ _______ _______ _____ _____    ______ ____
ROOT
ATOM      1  C   UNL     1       4.301   5.656  18.097  0.00  0.00    +0.000 A 
ATOM      2  C   UNL     1       4.116   4.355  18.551  0.00  0.00    +0.000 A 
ATOM      3  C   UNL     1       3.039   4.083  19.392  0.00  0.00    +0.000 A 
ATOM      4  C   UNL     1       2.162   5.108  19.795  0.00  0.00    +0.000 A 
ATOM      5 CL   UNL     1       0.646   4.563  20.418  0.00  0.00    +0.000 Cl
ATOM      6  C   UNL     1       2.462   6.452  19.524  0.00  0.00    +0.000 A 
ATOM      7  C   UNL     1       3.533   6.705  18.629  0.00  0.00    +0.000 A 
ENDROOT
BRANCH   6   8
ATOM      8  C   UNL     1       1.681   7.664  19.955  0.00  0.00    +0.000 C 
ATOM      9  O   UNL     1       1.199   7.582  21.091  0.00  0.00    +0.000 OA
ATOM     10  N   UNL     1       1.464   8.793  19.131  0.00  0.00    +0.000 N 
ATOM     11  C   UNL     1       2.075   9.033  17.822  0.00  0.00    +0.000 C 
BRANCH  10  12
ATOM     12  C   UNL     1       0.640   9.800  19.679  0.00  0.00    +0.000 A 
ATOM     13  S   UNL     1       1.191  10.523  21.153  0.00  0.00    +0.000 S 
ATOM     14  C   UNL     1      -0.194  11.452  21.247  0.00  0.00    +0.000 A 
ATOM     15  C   UNL     1      -1.022  11.334  20.166  0.00  0.00    +0.000 A 
ATOM     16  C   UNL     1      -0.567  10.347  19.248  0.00  0.00    +0.000 A 
ATOM     17  C   UNL     1      -2.185  12.256  20.283  0.00  0.00    +0.000 C 
ATOM     18  C   UNL     1      -1.779  13.165  21.491  0.00  0.00    +0.000 C 
ATOM     19  C   UNL     1      -0.685  12.391  22.285  0.00  0.00    +0.000 C 
BRANCH  16  20
ATOM     20  C   UNL     1      -1.209  10.026  18.010  0.00  0.00    +0.000 C 
ATOM     21  N   UNL     1      -1.677   9.747  16.982  0.00  0.00    +0.000 NA
ENDBRANCH  16  20
ENDBRANCH  10  12
ENDBRANCH   6   8
BRANCH   1  22
ATOM     22  S   UNL     1       5.533   5.967  16.843  0.00  0.00    +0.000 S 
ATOM     23  O   UNL     1       5.012   7.022  15.993  0.00  0.00    +0.000 OA
ATOM     24  O   UNL     1       5.935   4.697  16.287  0.00  0.00    +0.000 OA
BRANCH  22  25
ATOM     25  N   UNL     1       6.866   6.612  17.734  0.00  0.00    +0.000 NA
BRANCH  25  27
ATOM     26  C   UNL     1       7.801   5.561  19.832  0.00  0.00    +0.000 C 
ATOM     27  C   UNL     1       7.784   5.580  18.308  0.00  0.00    +0.000 C 
ENDBRANCH  25  27
BRANCH  25  28
ATOM     28  C   UNL     1       7.553   7.767  17.070  0.00  0.00    +0.000 C 
ATOM     29  C   UNL     1       8.218   8.725  18.043  0.00  0.00    +0.000 C 
ENDBRANCH  25  28
ENDBRANCH  22  25
ENDBRANCH   1  22
TORSDOF 7
ENDMDL
MODEL 4
REMARK VINA RESULT:      -7.2      2.145      2.533
REMARK  Name = 
REMARK  10 active torsions:
REMARK  status: ('A' for Active; 'I' for Inactive)
REMARK    1  A    between atoms: C_1  and  C_2
REMARK    2  A    between atoms: C_2  and  N_3
REMARK    3  A    between atoms: N_3  and  C_4
REMARK    4  A    between atoms: N_3  and  S_6
REMARK    5  A    between atoms: C_4  and  C_5
REMARK    6  A    between atoms: S_6  and  C_9
REMARK    7  A    between atoms: C_14  and  C_15
REMARK    8  A    between atoms: N_17  and  C_18
REMARK    9  A    between atoms: N_17  and  C_19
REMARK   10  A    between atoms: C_23  and  C_24
REMARK                            x       y       z     vdW  Elec       q    Type
REMARK                         _______ _______ _______ _____ _____    ______ ____
ROOT
ATOM      1  C   UNL     1       5.318   4.911  18.569  0.00  0.00    +0.000 A 
ATOM      2  C   UNL     1       4.826   3.812  17.875  0.00  0.00    +0.000 A 
ATOM      3  C   UNL     1       3.449   3.691  17.698  0.00  0.00    +0.000 A 
ATOM      4  C   UNL     1       2.566   4.651  18.229  0.00  0.00    +0.000 A 
ATOM      5 CL   UNL     1       0.982   4.638  17.541  0.00  0.00    +0.000 Cl
ATOM      6  C   UNL     1       3.031   5.638  19.110  0.00  0.00    +0.000 A 
ATOM      7  C   UNL     1       4.437   5.775  19.241  0.00  0.00    +0.000 A 
ENDROOT
BRANCH   6   8
ATOM      8  C   UNL     1       2.213   6.678  19.827  0.00  0.00    +0.000 C 
ATOM      9  O   UNL     1       1.700   6.285  20.881  0.00  0.00    +0.000 OA
ATOM     10  N   UNL     1       1.997   7.986  19.332  0.00  0.00    +0.000 N 
ATOM     11  C   UNL     1       2.641   8.579  18.158  0.00  0.00    +0.000 C 
BRANCH  10  12
ATOM     12  C   UNL     1       1.136   8.796  20.104  0.00  0.00    +0.000 A 
ATOM     13  S   UNL     1       1.431   8.819  21.810  0.00  0.00    +0.000 S 
ATOM     14  C   UNL     1       0.103   9.804  22.054  0.00  0.00    +0.000 A 
ATOM     15  C   UNL     1      -0.507  10.215  20.903  0.00  0.00    +0.000 A 
ATOM     16  C   UNL     1       0.064   9.611  19.748  0.00  0.00    +0.000 A 
ATOM     17  C   UNL     1      -1.622  11.157  21.199  0.00  0.00    +0.000 C 
ATOM     18  C   UNL     1      -1.408  11.471  22.717  0.00  0.00    +0.000 C 
ATOM     19  C   UNL     1      -0.528  10.321  23.292  0.00  0.00    +0.000 C 
BRANCH  16  20
ATOM     20  C   UNL     1      -0.345   9.876  18.403  0.00  0.00    +0.000 C 
ATOM     21  N   UNL     1      -0.698  10.032  17.305  0.00  0.00    +0.000 NA
ENDBRANCH  16  20
ENDBRANCH  10  12
ENDBRANCH   6   8
BRANCH   1  22
ATOM     22  S   UNL     1       7.081   5.194  18.601  0.00  0.00    +0.000 S 
ATOM     23  O   UNL     1       7.698   4.084  17.897  0.00  0.00    +0.000 OA
ATOM     24  O   UNL     1       7.458   5.513  19.958  0.00  0.00    +0.000 OA
BRANCH  22  25
ATOM     25  N   UNL     1       7.282   6.614  17.637  0.00  0.00    +0.000 NA
BRANCH  25  27
ATOM     26  C   UNL     1       5.618   6.599  15.737  0.00  0.00    +0.000 C 
ATOM     27  C   UNL     1       6.009   7.177  17.092  0.00  0.00    +0.000 C 
ENDBRANCH  25  27
BRANCH  25  28
ATOM     28  C   UNL     1       8.222   7.627  18.217  0.00  0.00    +0.000 C 
ATOM     29  C   UNL     1       7.906   9.057  17.815  0.00  0.00    +0.000 C 
ENDBRANCH  25  28
ENDBRANCH  22  25
ENDBRANCH   1  22
TORSDOF 7
ENDMDL
MODEL 5
REMARK VINA RESULT:      -7.1      2.235      3.190
REMARK  Name = 
REMARK  10 active torsions:
REMARK  status: ('A' for Active; 'I' for Inactive)
REMARK    1  A    between atoms: C_1  and  C_2
REMARK    2  A    between atoms: C_2  and  N_3
REMARK    3  A    between atoms: N_3  and  C_4
REMARK    4  A    between atoms: N_3  and  S_6
REMARK    5  A    between atoms: C_4  and  C_5
REMARK    6  A    between atoms: S_6  and  C_9
REMARK    7  A    between atoms: C_14  and  C_15
REMARK    8  A    between atoms: N_17  and  C_18
REMARK    9  A    between atoms: N_17  and  C_19
REMARK   10  A    between atoms: C_23  and  C_24
REMARK                            x       y       z     vdW  Elec       q    Type
REMARK                         _______ _______ _______ _____ _____    ______ ____
ROOT
ATOM      1  C   UNL     1       5.277   4.886  19.123  0.00  0.00    +0.000 A 
ATOM      2  C   UNL     1       4.852   3.568  18.987  0.00  0.00    +0.000 A 
ATOM      3  C   UNL     1       3.485   3.304  18.945  0.00  0.00    +0.000 A 
ATOM      4  C   UNL     1       2.545   4.346  19.060  0.00  0.00    +0.000 A 
ATOM      5 CL   UNL     1       0.952   3.948  18.521  0.00  0.00    +0.000 Cl
ATOM      6  C   UNL     1       2.953   5.640  19.415  0.00  0.00    +0.000 A 
ATOM      7  C   UNL     1       4.348   5.901  19.406  0.00  0.00    +0.000 A 
ENDROOT
BRANCH   6   8
ATOM      8  C   UNL     1       2.075   6.837  19.660  0.00  0.00    +0.000 C 
ATOM      9  O   UNL     1       1.256   6.689  20.574  0.00  0.00    +0.000 OA
ATOM     10  N   UNL     1       2.132   8.024  18.892  0.00  0.00    +0.000 N 
ATOM     11  C   UNL     1       3.129   8.338  17.866  0.00  0.00    +0.000 C 
BRANCH  10  12
ATOM     12  C   UNL     1       1.175   9.010  19.219  0.00  0.00    +0.000 A 
ATOM     13  S   UNL     1       0.096   9.482  17.951  0.00  0.00    +0.000 S 
ATOM     14  C   UNL     1      -0.607  10.631  18.939  0.00  0.00    +0.000 A 
ATOM     15  C   UNL     1      -0.148  10.619  20.226  0.00  0.00    +0.000 A 
ATOM     16  C   UNL     1       0.920   9.696  20.404  0.00  0.00    +0.000 A 
ATOM     17  C   UNL     1      -0.883  11.607  21.062  0.00  0.00    +0.000 C 
ATOM     18  C   UNL     1      -2.067  12.029  20.129  0.00  0.00    +0.000 C 
ATOM     19  C   UNL     1      -1.647  11.656  18.676  0.00  0.00    +0.000 C 
BRANCH  16  20
ATOM     20  C   UNL     1       1.578   9.441  21.650  0.00  0.00    +0.000 C 
ATOM     21  N   UNL     1       2.091   9.176  22.660  0.00  0.00    +0.000 NA
ENDBRANCH  16  20
ENDBRANCH  10  12
ENDBRANCH   6   8
BRANCH   1  22
ATOM     22  S   UNL     1       7.014   5.256  18.946  0.00  0.00    +0.000 S 
ATOM     23  O   UNL     1       7.609   4.148  18.223  0.00  0.00    +0.000 OA
ATOM     24  O   UNL     1       7.520   5.656  20.238  0.00  0.00    +0.000 OA
BRANCH  22  25
ATOM     25  N   UNL     1       7.031   6.639  17.909  0.00  0.00    +0.000 NA
BRANCH  25  27
ATOM     26  C   UNL     1       7.788   9.040  17.715  0.00  0.00    +0.000 C 
ATOM     27  C   UNL     1       8.096   7.638  18.227  0.00  0.00    +0.000 C 
ENDBRANCH  25  27
BRANCH  25  28
ATOM     28  C   UNL     1       6.880   6.321  16.452  0.00  0.00    +0.000 C 
ATOM     29  C   UNL     1       5.436   6.259  15.986  0.00  0.00    +0.000 C 
ENDBRANCH  25  28
ENDBRANCH  22  25
ENDBRANCH   1  22
TORSDOF 7
ENDMDL
MODEL 6
REMARK VINA RESULT:      -7.0      1.317      1.605
REMARK  Name = 
REMARK  10 active torsions:
REMARK  status: ('A' for Active; 'I' for Inactive)
REMARK    1  A    between atoms: C_1  and  C_2
REMARK    2  A    between atoms: C_2  and  N_3
REMARK    3  A    between atoms: N_3  and  C_4
REMARK    4  A    between atoms: N_3  and  S_6
REMARK    5  A    between atoms: C_4  and  C_5
REMARK    6  A    between atoms: S_6  and  C_9
REMARK    7  A    between atoms: C_14  and  C_15
REMARK    8  A    between atoms: N_17  and  C_18
REMARK    9  A    between atoms: N_17  and  C_19
REMARK   10  A    between atoms: C_23  and  C_24
REMARK                            x       y       z     vdW  Elec       q    Type
REMARK                         _______ _______ _______ _____ _____    ______ ____
ROOT
ATOM      1  C   UNL     1       4.224   6.109  17.656  0.00  0.00    +0.000 A 
ATOM      2  C   UNL     1       4.005   4.765  17.936  0.00  0.00    +0.000 A 
ATOM      3  C   UNL     1       3.014   4.423  18.853  0.00  0.00    +0.000 A 
ATOM      4  C   UNL     1       2.260   5.418  19.504  0.00  0.00    +0.000 A 
ATOM      5 CL   UNL     1       0.790   4.860  20.221  0.00  0.00    +0.000 Cl
ATOM      6  C   UNL     1       2.616   6.770  19.395  0.00  0.00    +0.000 A 
ATOM      7  C   UNL     1       3.593   7.102  18.423  0.00  0.00    +0.000 A 
ENDROOT
BRANCH   6   8
ATOM      8  C   UNL     1       1.972   7.941  20.088  0.00  0.00    +0.000 C 
ATOM      9  O   UNL     1       2.041   7.902  21.323  0.00  0.00    +0.000 OA
ATOM     10  N   UNL     1       1.298   8.983  19.409  0.00  0.00    +0.000 N 
ATOM     11  C   UNL     1       1.253   9.175  17.958  0.00  0.00    +0.000 C 
BRANCH  10  12
ATOM     12  C   UNL     1       0.688   9.955  20.232  0.00  0.00    +0.000 A 
ATOM     13  S   UNL     1      -0.342   9.357  21.488  0.00  0.00    +0.000 S 
ATOM     14  C   UNL     1      -0.745  10.916  21.936  0.00  0.00    +0.000 A 
ATOM     15  C   UNL     1      -0.063  11.887  21.259  0.00  0.00    +0.000 A 
ATOM     16  C   UNL     1       0.760  11.346  20.233  0.00  0.00    +0.000 A 
ATOM     17  C   UNL     1      -0.411  13.239  21.774  0.00  0.00    +0.000 C 
ATOM     18  C   UNL     1      -1.214  12.911  23.077  0.00  0.00    +0.000 C 
ATOM     19  C   UNL     1      -1.701  11.437  22.943  0.00  0.00    +0.000 C 
BRANCH  16  20
ATOM     20  C   UNL     1       1.615  12.116  19.382  0.00  0.00    +0.000 C 
ATOM     21  N   UNL     1       2.344  12.692  18.682  0.00  0.00    +0.000 NA
ENDBRANCH  16  20
ENDBRANCH  10  12
ENDBRANCH   6   8
BRANCH   1  22
ATOM     22  S   UNL     1       5.325   6.545  16.319  0.00  0.00    +0.000 S 
ATOM     23  O   UNL     1       6.450   7.245  16.912  0.00  0.00    +0.000 OA
ATOM     24  O   UNL     1       4.539   7.155  15.273  0.00  0.00    +0.000 OA
BRANCH  22  25
ATOM     25  N   UNL     1       5.892   5.016  15.746  0.00  0.00    +0.000 NA
BRANCH  25  27
ATOM     26  C   UNL     1       6.443   3.853  13.573  0.00  0.00    +0.000 C 
ATOM     27  C   UNL     1       5.426   4.658  14.371  0.00  0.00    +0.000 C 
ENDBRANCH  25  27
BRANCH  25  28
ATOM     28  C   UNL     1       7.347   4.760  16.004  0.00  0.00    +0.000 C 
ATOM     29  C   UNL     1       7.663   4.432  17.453  0.00  0.00    +0.000 C 
ENDBRANCH  25  28
ENDBRANCH  22  25
ENDBRANCH   1  22
TORSDOF 7
ENDMDL
MODEL 7
REMARK VINA RESULT:      -7.0      1.909      2.426
REMARK  Name = 
REMARK  10 active torsions:
REMARK  status: ('A' for Active; 'I' for Inactive)
REMARK    1  A    between atoms: C_1  and  C_2
REMARK    2  A    between atoms: C_2  and  N_3
REMARK    3  A    between atoms: N_3  and  C_4
REMARK    4  A    between atoms: N_3  and  S_6
REMARK    5  A    between atoms: C_4  and  C_5
REMARK    6  A    between atoms: S_6  and  C_9
REMARK    7  A    between atoms: C_14  and  C_15
REMARK    8  A    between atoms: N_17  and  C_18
REMARK    9  A    between atoms: N_17  and  C_19
REMARK   10  A    between atoms: C_23  and  C_24
REMARK                            x       y       z     vdW  Elec       q    Type
REMARK                         _______ _______ _______ _____ _____    ______ ____
ROOT
ATOM      1  C   UNL     1       4.246   5.556  17.938  0.00  0.00    +0.000 A 
ATOM      2  C   UNL     1       3.903   4.239  18.219  0.00  0.00    +0.000 A 
ATOM      3  C   UNL     1       2.820   3.991  19.061  0.00  0.00    +0.000 A 
ATOM      4  C   UNL     1       2.097   5.054  19.636  0.00  0.00    +0.000 A 
ATOM      5 CL   UNL     1       0.537   4.624  20.243  0.00  0.00    +0.000 Cl
ATOM      6  C   UNL     1       2.564   6.373  19.536  0.00  0.00    +0.000 A 
ATOM      7  C   UNL     1       3.636   6.610  18.639  0.00  0.00    +0.000 A 
ENDROOT
BRANCH   6   8
ATOM      8  C   UNL     1       1.960   7.602  20.160  0.00  0.00    +0.000 C 
ATOM      9  O   UNL     1       1.984   7.610  21.397  0.00  0.00    +0.000 OA
ATOM     10  N   UNL     1       1.369   8.651  19.417  0.00  0.00    +0.000 N 
ATOM     11  C   UNL     1       1.385   8.787  17.959  0.00  0.00    +0.000 C 
BRANCH  10  12
ATOM     12  C   UNL     1       0.784   9.686  20.179  0.00  0.00    +0.000 A 
ATOM     13  S   UNL     1      -0.180   9.192  21.530  0.00  0.00    +0.000 S 
ATOM     14  C   UNL     1      -0.583  10.780  21.858  0.00  0.00    +0.000 A 
ATOM     15  C   UNL     1       0.055  11.694  21.066  0.00  0.00    +0.000 A 
ATOM     16  C   UNL     1       0.838  11.072  20.054  0.00  0.00    +0.000 A 
ATOM     17  C   UNL     1      -0.287  13.083  21.477  0.00  0.00    +0.000 C 
ATOM     18  C   UNL     1      -1.025  12.864  22.840  0.00  0.00    +0.000 C 
ATOM     19  C   UNL     1      -1.498  11.380  22.858  0.00  0.00    +0.000 C 
BRANCH  16  20
ATOM     20  C   UNL     1       1.642  11.772  19.100  0.00  0.00    +0.000 C 
ATOM     21  N   UNL     1       2.336  12.295  18.325  0.00  0.00    +0.000 NA
ENDBRANCH  16  20
ENDBRANCH  10  12
ENDBRANCH   6   8
BRANCH   1  22
ATOM     22  S   UNL     1       5.478   5.880  16.686  0.00  0.00    +0.000 S 
ATOM     23  O   UNL     1       4.995   7.001  15.901  0.00  0.00    +0.000 OA
ATOM     24  O   UNL     1       5.815   4.625  16.057  0.00  0.00    +0.000 OA
BRANCH  22  25
ATOM     25  N   UNL     1       6.848   6.415  17.593  0.00  0.00    +0.000 NA
BRANCH  25  27
ATOM     26  C   UNL     1       7.955   5.538  19.686  0.00  0.00    +0.000 C 
ATOM     27  C   UNL     1       7.650   5.314  18.211  0.00  0.00    +0.000 C 
ENDBRANCH  25  27
BRANCH  25  28
ATOM     28  C   UNL     1       7.657   7.482  16.919  0.00  0.00    +0.000 C 
ATOM     29  C   UNL     1       7.945   8.682  17.804  0.00  0.00    +0.000 C 
ENDBRANCH  25  28
ENDBRANCH  22  25
ENDBRANCH   1  22
TORSDOF 7
ENDMDL
MODEL 8
REMARK VINA RESULT:      -7.0      1.806      2.392
REMARK  Name = 
REMARK  10 active torsions:
REMARK  status: ('A' for Active; 'I' for Inactive)
REMARK    1  A    between atoms: C_1  and  C_2
REMARK    2  A    between atoms: C_2  and  N_3
REMARK    3  A    between atoms: N_3  and  C_4
REMARK    4  A    between atoms: N_3  and  S_6
REMARK    5  A    between atoms: C_4  and  C_5
REMARK    6  A    between atoms: S_6  and  C_9
REMARK    7  A    between atoms: C_14  and  C_15
REMARK    8  A    between atoms: N_17  and  C_18
REMARK    9  A    between atoms: N_17  and  C_19
REMARK   10  A    between atoms: C_23  and  C_24
REMARK                            x       y       z     vdW  Elec       q    Type
REMARK                         _______ _______ _______ _____ _____    ______ ____
ROOT
ATOM      1  C   UNL     1       4.590   5.160  17.457  0.00  0.00    +0.000 A 
ATOM      2  C   UNL     1       4.310   3.798  17.467  0.00  0.00    +0.000 A 
ATOM      3  C   UNL     1       3.175   3.350  18.140  0.00  0.00    +0.000 A 
ATOM      4  C   UNL     1       2.335   4.255  18.817  0.00  0.00    +0.000 A 
ATOM      5 CL   UNL     1       0.758   3.647  19.180  0.00  0.00    +0.000 Cl
ATOM      6  C   UNL     1       2.722   5.591  18.997  0.00  0.00    +0.000 A 
ATOM      7  C   UNL     1       3.852   6.038  18.267  0.00  0.00    +0.000 A 
ENDROOT
BRANCH   6   8
ATOM      8  C   UNL     1       1.985   6.657  19.762  0.00  0.00    +0.000 C 
ATOM      9  O   UNL     1       1.482   6.267  20.823  0.00  0.00    +0.000 OA
ATOM     10  N   UNL     1       1.829   7.987  19.305  0.00  0.00    +0.000 N 
ATOM     11  C   UNL     1       2.470   8.572  18.126  0.00  0.00    +0.000 C 
BRANCH  10  12
ATOM     12  C   UNL     1       1.039   8.825  20.123  0.00  0.00    +0.000 A 
ATOM     13  S   UNL     1       1.390   8.793  21.818  0.00  0.00    +0.000 S 
ATOM     14  C   UNL     1       0.126   9.842  22.127  0.00  0.00    +0.000 A 
ATOM     15  C   UNL     1      -0.498  10.312  21.006  0.00  0.00    +0.000 A 
ATOM     16  C   UNL     1       0.002   9.704  19.820  0.00  0.00    +0.000 A 
ATOM     17  C   UNL     1      -1.550  11.305  21.359  0.00  0.00    +0.000 C 
ATOM     18  C   UNL     1      -1.270  11.572  22.875  0.00  0.00    +0.000 C 
ATOM     19  C   UNL     1      -0.435  10.364  23.396  0.00  0.00    +0.000 C 
BRANCH  16  20
ATOM     20  C   UNL     1      -0.436  10.020  18.495  0.00  0.00    +0.000 C 
ATOM     21  N   UNL     1      -0.768  10.334  17.425  0.00  0.00    +0.000 NA
ENDBRANCH  16  20
ENDBRANCH  10  12
ENDBRANCH   6   8
BRANCH   1  22
ATOM     22  S   UNL     1       5.905   5.763  16.410  0.00  0.00    +0.000 S 
ATOM     23  O   UNL     1       5.332   6.796  15.568  0.00  0.00    +0.000 OA
ATOM     24  O   UNL     1       6.576   4.622  15.833  0.00  0.00    +0.000 OA
BRANCH  22  25
ATOM     25  N   UNL     1       6.991   6.523  17.520  0.00  0.00    +0.000 NA
BRANCH  25  27
ATOM     26  C   UNL     1       7.551   5.582  19.795  0.00  0.00    +0.000 C 
ATOM     27  C   UNL     1       7.844   5.574  18.300  0.00  0.00    +0.000 C 
ENDBRANCH  25  27
BRANCH  25  28
ATOM     28  C   UNL     1       7.717   7.709  16.960  0.00  0.00    +0.000 C 
ATOM     29  C   UNL     1       8.077   8.754  18.002  0.00  0.00    +0.000 C 
ENDBRANCH  25  28
ENDBRANCH  22  25
ENDBRANCH   1  22
TORSDOF 7
ENDMDL
MODEL 9
REMARK VINA RESULT:      -6.8      2.275      3.095
REMARK  Name = 
REMARK  10 active torsions:
REMARK  status: ('A' for Active; 'I' for Inactive)
REMARK    1  A    between atoms: C_1  and  C_2
REMARK    2  A    between atoms: C_2  and  N_3
REMARK    3  A    between atoms: N_3  and  C_4
REMARK    4  A    between atoms: N_3  and  S_6
REMARK    5  A    between atoms: C_4  and  C_5
REMARK    6  A    between atoms: S_6  and  C_9
REMARK    7  A    between atoms: C_14  and  C_15
REMARK    8  A    between atoms: N_17  and  C_18
REMARK    9  A    between atoms: N_17  and  C_19
REMARK   10  A    between atoms: C_23  and  C_24
REMARK                            x       y       z     vdW  Elec       q    Type
REMARK                         _______ _______ _______ _____ _____    ______ ____
ROOT
ATOM      1  C   UNL     1       5.571   5.102  18.443  0.00  0.00    +0.000 A 
ATOM      2  C   UNL     1       5.027   3.825  18.356  0.00  0.00    +0.000 A 
ATOM      3  C   UNL     1       3.643   3.690  18.264  0.00  0.00    +0.000 A 
ATOM      4  C   UNL     1       2.805   4.821  18.280  0.00  0.00    +0.000 A 
ATOM      5 CL   UNL     1       1.205   4.547  17.689  0.00  0.00    +0.000 Cl
ATOM      6  C   UNL     1       3.322   6.089  18.585  0.00  0.00    +0.000 A 
ATOM      7  C   UNL     1       4.734   6.215  18.627  0.00  0.00    +0.000 A 
ENDROOT
BRANCH   6   8
ATOM      8  C   UNL     1       2.555   7.376  18.725  0.00  0.00    +0.000 C 
ATOM      9  O   UNL     1       2.765   8.195  17.821  0.00  0.00    +0.000 OA
ATOM     10  N   UNL     1       1.699   7.667  19.813  0.00  0.00    +0.000 N 
ATOM     11  C   UNL     1       1.304   6.733  20.869  0.00  0.00    +0.000 C 
BRANCH  10  12
ATOM     12  C   UNL     1       1.126   8.958  19.812  0.00  0.00    +0.000 A 
ATOM     13  S   UNL     1       0.567   9.546  18.283  0.00  0.00    +0.000 S 
ATOM     14  C   UNL     1       0.154  11.013  18.967  0.00  0.00    +0.000 A 
ATOM     15  C   UNL     1       0.315  11.063  20.324  0.00  0.00    +0.000 A 
ATOM     16  C   UNL     1       0.913   9.878  20.835  0.00  0.00    +0.000 A 
ATOM     17  C   UNL     1      -0.156  12.366  20.868  0.00  0.00    +0.000 C 
ATOM     18  C   UNL     1      -0.895  13.000  19.643  0.00  0.00    +0.000 C 
ATOM     19  C   UNL     1      -0.364  12.269  18.373  0.00  0.00    +0.000 C 
BRANCH  16  20
ATOM     20  C   UNL     1       1.173   9.628  22.220  0.00  0.00    +0.000 C 
ATOM     21  N   UNL     1       1.331   9.453  23.360  0.00  0.00    +0.000 NA
ENDBRANCH  16  20
ENDBRANCH  10  12
ENDBRANCH   6   8
BRANCH   1  22
ATOM     22  S   UNL     1       7.342   5.295  18.328  0.00  0.00    +0.000 S 
ATOM     23  O   UNL     1       7.888   3.990  18.002  0.00  0.00    +0.000 OA
ATOM     24  O   UNL     1       7.790   6.015  19.497  0.00  0.00    +0.000 OA
BRANCH  22  25
ATOM     25  N   UNL     1       7.551   6.319  16.951  0.00  0.00    +0.000 NA
BRANCH  25  27
ATOM     26  C   UNL     1       5.760   5.899  15.222  0.00  0.00    +0.000 C 
ATOM     27  C   UNL     1       7.206   5.678  15.645  0.00  0.00    +0.000 C 
ENDBRANCH  25  27
BRANCH  25  28
ATOM     28  C   UNL     1       7.021   7.710  17.130  0.00  0.00    +0.000 C 
ATOM     29  C   UNL     1       8.043   8.688  17.681  0.00  0.00    +0.000 C 
ENDBRANCH  25  28
ENDBRANCH  22  25
ENDBRANCH   1  22
TORSDOF 7
ENDMDL
