MODEL 1
REMARK VINA RESULT:      -5.7      0.000      0.000
REMARK  Name = 
REMARK  3 active torsions:
REMARK  status: ('A' for Active; 'I' for Inactive)
REMARK    1  A    between atoms: C_2  and  C_3
REMARK    2  A    between atoms: C_14  and  S_15
REMARK    3  A    between atoms: S_15  and  N_18
REMARK                            x       y       z     vdW  Elec       q    Type
REMARK                         _______ _______ _______ _____ _____    ______ ____
ROOT
ATOM      1  O   UNL     1      -0.045  11.447  19.461  0.00  0.00    +0.000 OA
ATOM      2  C   UNL     1      -0.422  10.720  18.560  0.00  0.00    +0.000 C 
ATOM      3  N   UNL     1      -1.704  10.671  18.024  0.00  0.00    +0.000 N 
ATOM      4  C   UNL     1      -1.993   9.889  16.811  0.00  0.00    +0.000 C 
ATOM      5  C   UNL     1      -3.481   9.948  16.542  0.00  0.00    +0.000 C 
ATOM      6  C   UNL     1      -3.939  10.901  17.596  0.00  0.00    +0.000 A 
ATOM      7  C   UNL     1      -5.272  11.279  17.737  0.00  0.00    +0.000 A 
ATOM      8  C   UNL     1      -5.597  12.132  18.771  0.00  0.00    +0.000 A 
ATOM      9 BR   UNL     1      -7.390  12.668  19.029  0.00  0.00    +0.000 Br
ATOM     10  C   UNL     1      -4.604  12.584  19.640  0.00  0.00    +0.000 A 
ATOM     11  C   UNL     1      -3.247  12.207  19.501  0.00  0.00    +0.000 A 
ATOM     12  C   UNL     1      -2.898  11.330  18.456  0.00  0.00    +0.000 A 
ENDROOT
BRANCH   2  13
ATOM     13  C   UNL     1       0.584   9.746  18.003  0.00  0.00    +0.000 C 
ATOM     14  C   UNL     1       2.067  10.045  18.046  0.00  0.00    +0.000 C 
ATOM     15  C   UNL     1       1.488   9.026  18.983  0.00  0.00    +0.000 C 
ENDBRANCH   2  13
BRANCH  11  16
ATOM     16  S   UNL     1      -2.133  12.799  20.758  0.00  0.00    +0.000 S 
ATOM     17  O   UNL     1      -1.711  11.633  21.508  0.00  0.00    +0.000 OA
ATOM     18  O   UNL     1      -1.243  13.783  20.177  0.00  0.00    +0.000 OA
BRANCH  16  19
ATOM     19  N   UNL     1      -3.119  13.708  21.849  0.00  0.00    +0.000 NA
ATOM     20  C   UNL     1      -2.612  15.048  22.250  0.00  0.00    +0.000 C 
ATOM     21  C   UNL     1      -2.227  14.916  23.711  0.00  0.00    +0.000 C 
ATOM     22  C   UNL     1      -3.185  13.880  24.258  0.00  0.00    +0.000 C 
ATOM     23  C   UNL     1      -3.510  12.970  23.083  0.00  0.00    +0.000 C 
ENDBRANCH  16  19
ENDBRANCH  11  16
TORSDOF 3
ENDMDL
MODEL 2
REMARK VINA RESULT:      -5.7      7.208     11.058
REMARK  Name = 
REMARK  3 active torsions:
REMARK  status: ('A' for Active; 'I' for Inactive)
REMARK    1  A    between atoms: C_2  and  C_3
REMARK    2  A    between atoms: C_14  and  S_15
REMARK    3  A    between atoms: S_15  and  N_18
REMARK                            x       y       z     vdW  Elec       q    Type
REMARK                         _______ _______ _______ _____ _____    ______ ____
ROOT
ATOM      1  O   UNL     1       3.665   8.002  17.853  0.00  0.00    +0.000 OA
ATOM      2  C   UNL     1       2.772   7.779  18.650  0.00  0.00    +0.000 C 
ATOM      3  N   UNL     1       2.613   6.624  19.405  0.00  0.00    +0.000 N 
ATOM      4  C   UNL     1       1.604   6.544  20.474  0.00  0.00    +0.000 C 
ATOM      5  C   UNL     1       1.604   5.138  21.034  0.00  0.00    +0.000 C 
ATOM      6  C   UNL     1       2.746   4.521  20.298  0.00  0.00    +0.000 A 
ATOM      7  C   UNL     1       3.140   3.200  20.497  0.00  0.00    +0.000 A 
ATOM      8  C   UNL     1       4.181   2.714  19.733  0.00  0.00    +0.000 A 
ATOM      9 BR   UNL     1       4.752   0.925  19.940  0.00  0.00    +0.000 Br
ATOM     10  C   UNL     1       4.801   3.538  18.793  0.00  0.00    +0.000 A 
ATOM     11  C   UNL     1       4.408   4.882  18.588  0.00  0.00    +0.000 A 
ATOM     12  C   UNL     1       3.341   5.393  19.353  0.00  0.00    +0.000 A 
ENDROOT
BRANCH   2  13
ATOM     13  C   UNL     1       1.711   8.839  18.799  0.00  0.00    +0.000 C 
ATOM     14  C   UNL     1       1.819  10.162  18.072  0.00  0.00    +0.000 C 
ATOM     15  C   UNL     1       0.834   9.134  17.599  0.00  0.00    +0.000 C 
ENDBRANCH   2  13
BRANCH  11  16
ATOM     16  S   UNL     1       5.242   5.755  17.279  0.00  0.00    +0.000 S 
ATOM     17  O   UNL     1       4.206   6.223  16.380  0.00  0.00    +0.000 OA
ATOM     18  O   UNL     1       6.287   6.580  17.850  0.00  0.00    +0.000 OA
BRANCH  16  19
ATOM     19  N   UNL     1       6.095   4.539  16.393  0.00  0.00    +0.000 NA
ATOM     20  C   UNL     1       7.403   4.936  15.804  0.00  0.00    +0.000 C 
ATOM     21  C   UNL     1       7.180   4.972  14.306  0.00  0.00    +0.000 C 
ATOM     22  C   UNL     1       6.124   3.916  14.059  0.00  0.00    +0.000 C 
ATOM     23  C   UNL     1       5.289   3.875  15.331  0.00  0.00    +0.000 C 
ENDBRANCH  16  19
ENDBRANCH  11  16
TORSDOF 3
ENDMDL
MODEL 3
REMARK VINA RESULT:      -5.7      2.412      5.425
REMARK  Name = 
REMARK  3 active torsions:
REMARK  status: ('A' for Active; 'I' for Inactive)
REMARK    1  A    between atoms: C_2  and  C_3
REMARK    2  A    between atoms: C_14  and  S_15
REMARK    3  A    between atoms: S_15  and  N_18
REMARK                            x       y       z     vdW  Elec       q    Type
REMARK                         _______ _______ _______ _____ _____    ______ ____
ROOT
ATOM      1  O   UNL     1      -3.570  13.209  22.131  0.00  0.00    +0.000 OA
ATOM      2  C   UNL     1      -4.723  13.092  21.758  0.00  0.00    +0.000 C 
ATOM      3  N   UNL     1      -5.148  12.521  20.565  0.00  0.00    +0.000 N 
ATOM      4  C   UNL     1      -6.574  12.262  20.308  0.00  0.00    +0.000 C 
ATOM      5  C   UNL     1      -6.724  11.739  18.896  0.00  0.00    +0.000 C 
ATOM      6  C   UNL     1      -5.299  11.614  18.469  0.00  0.00    +0.000 A 
ATOM      7  C   UNL     1      -4.932  11.149  17.209  0.00  0.00    +0.000 A 
ATOM      8  C   UNL     1      -3.588  11.113  16.899  0.00  0.00    +0.000 A 
ATOM      9 BR   UNL     1      -3.025  10.511  15.199  0.00  0.00    +0.000 Br
ATOM     10  C   UNL     1      -2.645  11.540  17.833  0.00  0.00    +0.000 A 
ATOM     11  C   UNL     1      -3.010  12.011  19.117  0.00  0.00    +0.000 A 
ATOM     12  C   UNL     1      -4.379  12.062  19.449  0.00  0.00    +0.000 A 
ENDROOT
BRANCH   2  13
ATOM     13  C   UNL     1      -5.791  13.663  22.655  0.00  0.00    +0.000 C 
ATOM     14  C   UNL     1      -5.440  14.605  23.786  0.00  0.00    +0.000 C 
ATOM     15  C   UNL     1      -6.088  15.145  22.545  0.00  0.00    +0.000 C 
ENDBRANCH   2  13
BRANCH  11  16
ATOM     16  S   UNL     1      -1.684  12.608  20.144  0.00  0.00    +0.000 S 
ATOM     17  O   UNL     1      -1.882  14.038  20.271  0.00  0.00    +0.000 OA
ATOM     18  O   UNL     1      -1.490  11.691  21.248  0.00  0.00    +0.000 OA
BRANCH  16  19
ATOM     19  N   UNL     1      -0.254  12.431  19.187  0.00  0.00    +0.000 NA
ATOM     20  C   UNL     1       0.918  11.796  19.849  0.00  0.00    +0.000 C 
ATOM     21  C   UNL     1       1.937  12.905  20.024  0.00  0.00    +0.000 C 
ATOM     22  C   UNL     1       1.687  13.830  18.851  0.00  0.00    +0.000 C 
ATOM     23  C   UNL     1       0.206  13.688  18.534  0.00  0.00    +0.000 C 
ENDBRANCH  16  19
ENDBRANCH  11  16
TORSDOF 3
ENDMDL
MODEL 4
REMARK VINA RESULT:      -5.5      2.306      3.397
REMARK  Name = 
REMARK  3 active torsions:
REMARK  status: ('A' for Active; 'I' for Inactive)
REMARK    1  A    between atoms: C_2  and  C_3
REMARK    2  A    between atoms: C_14  and  S_15
REMARK    3  A    between atoms: S_15  and  N_18
REMARK                            x       y       z     vdW  Elec       q    Type
REMARK                         _______ _______ _______ _____ _____    ______ ____
ROOT
ATOM      1  O   UNL     1      -2.642  12.156  18.795  0.00  0.00    +0.000 OA
ATOM      2  C   UNL     1      -3.643  11.559  18.442  0.00  0.00    +0.000 C 
ATOM      3  N   UNL     1      -4.886  11.601  19.060  0.00  0.00    +0.000 N 
ATOM      4  C   UNL     1      -6.070  10.989  18.434  0.00  0.00    +0.000 C 
ATOM      5  C   UNL     1      -7.237  11.106  19.391  0.00  0.00    +0.000 C 
ATOM      6  C   UNL     1      -6.642  11.920  20.492  0.00  0.00    +0.000 A 
ATOM      7  C   UNL     1      -7.366  12.296  21.621  0.00  0.00    +0.000 A 
ATOM      8  C   UNL     1      -6.710  13.011  22.601  0.00  0.00    +0.000 A 
ATOM      9 BR   UNL     1      -7.629  13.536  24.166  0.00  0.00    +0.000 Br
ATOM     10  C   UNL     1      -5.361  13.330  22.447  0.00  0.00    +0.000 A 
ATOM     11  C   UNL     1      -4.620  12.954  21.301  0.00  0.00    +0.000 A 
ATOM     12  C   UNL     1      -5.271  12.216  20.293  0.00  0.00    +0.000 A 
ENDROOT
BRANCH   2  13
ATOM     13  C   UNL     1      -3.510  10.652  17.246  0.00  0.00    +0.000 C 
ATOM     14  C   UNL     1      -2.527  10.960  16.137  0.00  0.00    +0.000 C 
ATOM     15  C   UNL     1      -2.231   9.853  17.104  0.00  0.00    +0.000 C 
ENDBRANCH   2  13
BRANCH  11  16
ATOM     16  S   UNL     1      -2.886  13.358  21.317  0.00  0.00    +0.000 S 
ATOM     17  O   UNL     1      -2.180  12.109  21.521  0.00  0.00    +0.000 OA
ATOM     18  O   UNL     1      -2.611  14.308  20.259  0.00  0.00    +0.000 OA
BRANCH  16  19
ATOM     19  N   UNL     1      -2.642  14.260  22.772  0.00  0.00    +0.000 NA
ATOM     20  C   UNL     1      -2.753  15.740  22.668  0.00  0.00    +0.000 C 
ATOM     21  C   UNL     1      -1.345  16.268  22.857  0.00  0.00    +0.000 C 
ATOM     22  C   UNL     1      -0.691  15.264  23.782  0.00  0.00    +0.000 C 
ATOM     23  C   UNL     1      -1.377  13.938  23.489  0.00  0.00    +0.000 C 
ENDBRANCH  16  19
ENDBRANCH  11  16
TORSDOF 3
ENDMDL
MODEL 5
REMARK VINA RESULT:      -5.4      1.756      1.958
REMARK  Name = 
REMARK  3 active torsions:
REMARK  status: ('A' for Active; 'I' for Inactive)
REMARK    1  A    between atoms: C_2  and  C_3
REMARK    2  A    between atoms: C_14  and  S_15
REMARK    3  A    between atoms: S_15  and  N_18
REMARK                            x       y       z     vdW  Elec       q    Type
REMARK                         _______ _______ _______ _____ _____    ______ ____
ROOT
ATOM      1  O   UNL     1      -0.946  11.932  21.500  0.00  0.00    +0.000 OA
ATOM      2  C   UNL     1      -0.836  11.170  20.557  0.00  0.00    +0.000 C 
ATOM      3  N   UNL     1      -1.703  11.070  19.475  0.00  0.00    +0.000 N 
ATOM      4  C   UNL     1      -1.366  10.248  18.301  0.00  0.00    +0.000 C 
ATOM      5  C   UNL     1      -2.543  10.257  17.351  0.00  0.00    +0.000 C 
ATOM      6  C   UNL     1      -3.462  11.225  18.020  0.00  0.00    +0.000 A 
ATOM      7  C   UNL     1      -4.704  11.568  17.492  0.00  0.00    +0.000 A 
ATOM      8  C   UNL     1      -5.496  12.439  18.212  0.00  0.00    +0.000 A 
ATOM      9 BR   UNL     1      -7.199  12.929  17.559  0.00  0.00    +0.000 Br
ATOM     10  C   UNL     1      -5.046  12.942  19.433  0.00  0.00    +0.000 A 
ATOM     11  C   UNL     1      -3.785  12.601  19.975  0.00  0.00    +0.000 A 
ATOM     12  C   UNL     1      -2.966  11.706  19.257  0.00  0.00    +0.000 A 
ENDROOT
BRANCH   2  13
ATOM     13  C   UNL     1       0.326  10.212  20.586  0.00  0.00    +0.000 C 
ATOM     14  C   UNL     1       1.004   9.844  21.888  0.00  0.00    +0.000 C 
ATOM     15  C   UNL     1       0.104   8.851  21.214  0.00  0.00    +0.000 C 
ENDBRANCH   2  13
BRANCH  11  16
ATOM     16  S   UNL     1      -3.417  13.257  21.588  0.00  0.00    +0.000 S 
ATOM     17  O   UNL     1      -3.572  12.157  22.519  0.00  0.00    +0.000 OA
ATOM     18  O   UNL     1      -2.253  14.115  21.497  0.00  0.00    +0.000 OA
BRANCH  16  19
ATOM     19  N   UNL     1      -4.717  14.340  21.946  0.00  0.00    +0.000 NA
ATOM     20  C   UNL     1      -4.435  15.794  21.800  0.00  0.00    +0.000 C 
ATOM     21  C   UNL     1      -4.426  16.349  23.211  0.00  0.00    +0.000 C 
ATOM     22  C   UNL     1      -5.408  15.476  23.963  0.00  0.00    +0.000 C 
ATOM     23  C   UNL     1      -5.350  14.120  23.276  0.00  0.00    +0.000 C 
ENDBRANCH  16  19
ENDBRANCH  11  16
TORSDOF 3
ENDMDL
MODEL 6
REMARK VINA RESULT:      -5.4      2.817      4.324
REMARK  Name = 
REMARK  3 active torsions:
REMARK  status: ('A' for Active; 'I' for Inactive)
REMARK    1  A    between atoms: C_2  and  C_3
REMARK    2  A    between atoms: C_14  and  S_15
REMARK    3  A    between atoms: S_15  and  N_18
REMARK                            x       y       z     vdW  Elec       q    Type
REMARK                         _______ _______ _______ _____ _____    ______ ____
ROOT
ATOM      1  O   UNL     1      -1.814  11.772  17.297  0.00  0.00    +0.000 OA
ATOM      2  C   UNL     1      -2.988  11.507  17.485  0.00  0.00    +0.000 C 
ATOM      3  N   UNL     1      -3.748  11.877  18.587  0.00  0.00    +0.000 N 
ATOM      4  C   UNL     1      -5.204  11.663  18.615  0.00  0.00    +0.000 C 
ATOM      5  C   UNL     1      -5.726  12.067  19.977  0.00  0.00    +0.000 C 
ATOM      6  C   UNL     1      -4.496  12.622  20.617  0.00  0.00    +0.000 A 
ATOM      7  C   UNL     1      -4.492  13.139  21.910  0.00  0.00    +0.000 A 
ATOM      8  C   UNL     1      -3.293  13.588  22.424  0.00  0.00    +0.000 A 
ATOM      9 BR   UNL     1      -3.216  14.282  24.179  0.00  0.00    +0.000 Br
ATOM     10  C   UNL     1      -2.132  13.510  21.654  0.00  0.00    +0.000 A 
ATOM     11  C   UNL     1      -2.129  12.990  20.338  0.00  0.00    +0.000 A 
ATOM     12  C   UNL     1      -3.344  12.519  19.800  0.00  0.00    +0.000 A 
ENDROOT
BRANCH   2  13
ATOM     13  C   UNL     1      -3.669  10.656  16.444  0.00  0.00    +0.000 C 
ATOM     14  C   UNL     1      -3.042  10.429  15.086  0.00  0.00    +0.000 C 
ATOM     15  C   UNL     1      -3.040   9.323  16.098  0.00  0.00    +0.000 C 
ENDBRANCH   2  13
BRANCH  11  16
ATOM     16  S   UNL     1      -0.542  12.875  19.540  0.00  0.00    +0.000 S 
ATOM     17  O   UNL     1      -0.155  11.480  19.606  0.00  0.00    +0.000 OA
ATOM     18  O   UNL     1      -0.557  13.681  18.336  0.00  0.00    +0.000 OA
BRANCH  16  19
ATOM     19  N   UNL     1       0.556  13.700  20.591  0.00  0.00    +0.000 NA
ATOM     20  C   UNL     1       0.870  15.115  20.252  0.00  0.00    +0.000 C 
ATOM     21  C   UNL     1       2.314  15.110  19.788  0.00  0.00    +0.000 C 
ATOM     22  C   UNL     1       2.955  13.985  20.573  0.00  0.00    +0.000 C 
ATOM     23  C   UNL     1       1.840  12.981  20.824  0.00  0.00    +0.000 C 
ENDBRANCH  16  19
ENDBRANCH  11  16
TORSDOF 3
ENDMDL
MODEL 7
REMARK VINA RESULT:      -5.3     10.759     12.391
REMARK  Name = 
REMARK  3 active torsions:
REMARK  status: ('A' for Active; 'I' for Inactive)
REMARK    1  A    between atoms: C_2  and  C_3
REMARK    2  A    between atoms: C_14  and  S_15
REMARK    3  A    between atoms: S_15  and  N_18
REMARK                            x       y       z     vdW  Elec       q    Type
REMARK                         _______ _______ _______ _____ _____    ______ ____
ROOT
ATOM      1  O   UNL     1       8.902  11.229  21.493  0.00  0.00    +0.000 OA
ATOM      2  C   UNL     1       9.621  11.781  20.681  0.00  0.00    +0.000 C 
ATOM      3  N   UNL     1      10.137  13.067  20.780  0.00  0.00    +0.000 N 
ATOM      4  C   UNL     1      11.149  13.558  19.830  0.00  0.00    +0.000 C 
ATOM      5  C   UNL     1      11.429  15.014  20.132  0.00  0.00    +0.000 C 
ATOM      6  C   UNL     1      10.613  15.228  21.364  0.00  0.00    +0.000 A 
ATOM      7  C   UNL     1      10.563  16.451  22.027  0.00  0.00    +0.000 A 
ATOM      8  C   UNL     1       9.743  16.555  23.132  0.00  0.00    +0.000 A 
ATOM      9 BR   UNL     1       9.615  18.193  24.065  0.00  0.00    +0.000 Br
ATOM     10  C   UNL     1       8.992  15.456  23.548  0.00  0.00    +0.000 A 
ATOM     11  C   UNL     1       9.040  14.209  22.882  0.00  0.00    +0.000 A 
ATOM     12  C   UNL     1       9.865  14.087  21.746  0.00  0.00    +0.000 A 
ENDROOT
BRANCH   2  13
ATOM     13  C   UNL     1       9.947  11.014  19.426  0.00  0.00    +0.000 C 
ATOM     14  C   UNL     1       9.078   9.864  18.964  0.00  0.00    +0.000 C 
ATOM     15  C   UNL     1       9.020  11.175  18.238  0.00  0.00    +0.000 C 
ENDBRANCH   2  13
BRANCH  11  16
ATOM     16  S   UNL     1       7.942  12.947  23.491  0.00  0.00    +0.000 S 
ATOM     17  O   UNL     1       6.847  12.871  22.544  0.00  0.00    +0.000 OA
ATOM     18  O   UNL     1       8.724  11.820  23.953  0.00  0.00    +0.000 OA
BRANCH  16  19
ATOM     19  N   UNL     1       7.249  13.605  24.933  0.00  0.00    +0.000 NA
ATOM     20  C   UNL     1       7.791  13.102  26.224  0.00  0.00    +0.000 C 
ATOM     21  C   UNL     1       6.683  12.265  26.832  0.00  0.00    +0.000 C 
ATOM     22  C   UNL     1       5.409  12.918  26.339  0.00  0.00    +0.000 C 
ATOM     23  C   UNL     1       5.763  13.526  24.991  0.00  0.00    +0.000 C 
ENDBRANCH  16  19
ENDBRANCH  11  16
TORSDOF 3
ENDMDL
MODEL 8
REMARK VINA RESULT:      -5.3      2.001      5.851
REMARK  Name = 
REMARK  3 active torsions:
REMARK  status: ('A' for Active; 'I' for Inactive)
REMARK    1  A    between atoms: C_2  and  C_3
REMARK    2  A    between atoms: C_14  and  S_15
REMARK    3  A    between atoms: S_15  and  N_18
REMARK                            x       y       z     vdW  Elec       q    Type
REMARK                         _______ _______ _______ _____ _____    ______ ____
ROOT
ATOM      1  O   UNL     1      -1.477  13.866  23.509  0.00  0.00    +0.000 OA
ATOM      2  C   UNL     1      -2.653  13.931  23.819  0.00  0.00    +0.000 C 
ATOM      3  N   UNL     1      -3.728  13.484  23.061  0.00  0.00    +0.000 N 
ATOM      4  C   UNL     1      -5.090  13.442  23.620  0.00  0.00    +0.000 C 
ATOM      5  C   UNL     1      -6.047  13.016  22.528  0.00  0.00    +0.000 C 
ATOM      6  C   UNL     1      -5.109  12.713  21.407  0.00  0.00    +0.000 A 
ATOM      7  C   UNL     1      -5.547  12.265  20.163  0.00  0.00    +0.000 A 
ATOM      8  C   UNL     1      -4.601  12.056  19.181  0.00  0.00    +0.000 A 
ATOM      9 BR   UNL     1      -5.131  11.466  17.466  0.00  0.00    +0.000 Br
ATOM     10  C   UNL     1      -3.253  12.299  19.448  0.00  0.00    +0.000 A 
ATOM     11  C   UNL     1      -2.800  12.752  20.710  0.00  0.00    +0.000 A 
ATOM     12  C   UNL     1      -3.754  12.979  21.723  0.00  0.00    +0.000 A 
ENDROOT
BRANCH   2  13
ATOM     13  C   UNL     1      -2.977  14.601  25.129  0.00  0.00    +0.000 C 
ATOM     14  C   UNL     1      -1.944  15.430  25.860  0.00  0.00    +0.000 C 
ATOM     15  C   UNL     1      -3.072  16.113  25.145  0.00  0.00    +0.000 C 
ENDBRANCH   2  13
BRANCH  11  16
ATOM     16  S   UNL     1      -1.061  13.105  20.842  0.00  0.00    +0.000 S 
ATOM     17  O   UNL     1      -0.949  14.542  20.991  0.00  0.00    +0.000 OA
ATOM     18  O   UNL     1      -0.443  12.126  21.712  0.00  0.00    +0.000 OA
BRANCH  16  19
ATOM     19  N   UNL     1      -0.406  12.759  19.279  0.00  0.00    +0.000 NA
ATOM     20  C   UNL     1       0.419  11.526  19.158  0.00  0.00    +0.000 C 
ATOM     21  C   UNL     1       1.840  12.008  18.947  0.00  0.00    +0.000 C 
ATOM     22  C   UNL     1       1.685  13.320  18.207  0.00  0.00    +0.000 C 
ATOM     23  C   UNL     1       0.351  13.887  18.667  0.00  0.00    +0.000 C 
ENDBRANCH  16  19
ENDBRANCH  11  16
TORSDOF 3
ENDMDL
MODEL 9
REMARK VINA RESULT:      -5.3      3.628      6.045
REMARK  Name = 
REMARK  3 active torsions:
REMARK  status: ('A' for Active; 'I' for Inactive)
REMARK    1  A    between atoms: C_2  and  C_3
REMARK    2  A    between atoms: C_14  and  S_15
REMARK    3  A    between atoms: S_15  and  N_18
REMARK                            x       y       z     vdW  Elec       q    Type
REMARK                         _______ _______ _______ _____ _____    ______ ____
ROOT
ATOM      1  O   UNL     1       1.848  13.780  18.233  0.00  0.00    +0.000 OA
ATOM      2  C   UNL     1       2.057  14.631  19.078  0.00  0.00    +0.000 C 
ATOM      3  N   UNL     1       1.443  14.725  20.321  0.00  0.00    +0.000 N 
ATOM      4  C   UNL     1       1.914  15.684  21.334  0.00  0.00    +0.000 C 
ATOM      5  C   UNL     1       0.985  15.622  22.527  0.00  0.00    +0.000 C 
ATOM      6  C   UNL     1       0.082  14.496  22.146  0.00  0.00    +0.000 A 
ATOM      7  C   UNL     1      -0.955  14.058  22.965  0.00  0.00    +0.000 A 
ATOM      8  C   UNL     1      -1.760  13.038  22.500  0.00  0.00    +0.000 A 
ATOM      9 BR   UNL     1      -3.197  12.410  23.554  0.00  0.00    +0.000 Br
ATOM     10  C   UNL     1      -1.525  12.483  21.242  0.00  0.00    +0.000 A 
ATOM     11  C   UNL     1      -0.470  12.920  20.406  0.00  0.00    +0.000 A 
ATOM     12  C   UNL     1       0.356  13.967  20.861  0.00  0.00    +0.000 A 
ENDROOT
BRANCH   2  13
ATOM     13  C   UNL     1       3.044  15.714  18.725  0.00  0.00    +0.000 C 
ATOM     14  C   UNL     1       3.590  15.846  17.320  0.00  0.00    +0.000 C 
ATOM     15  C   UNL     1       2.573  16.831  17.816  0.00  0.00    +0.000 C 
ENDBRANCH   2  13
BRANCH  11  16
ATOM     16  S   UNL     1      -0.379  12.169  18.794  0.00  0.00    +0.000 S 
ATOM     17  O   UNL     1      -0.703  13.212  17.841  0.00  0.00    +0.000 OA
ATOM     18  O   UNL     1       0.792  11.319  18.734  0.00  0.00    +0.000 OA
BRANCH  16  19
ATOM     19  N   UNL     1      -1.710  11.067  18.731  0.00  0.00    +0.000 NA
ATOM     20  C   UNL     1      -1.488   9.793  17.993  0.00  0.00    +0.000 C 
ATOM     21  C   UNL     1      -2.335   9.896  16.740  0.00  0.00    +0.000 C 
ATOM     22  C   UNL     1      -3.514  10.750  17.156  0.00  0.00    +0.000 C 
ATOM     23  C   UNL     1      -2.983  11.669  18.245  0.00  0.00    +0.000 C 
ENDBRANCH  16  19
ENDBRANCH  11  16
TORSDOF 3
ENDMDL
