MODEL 1
REMARK VINA RESULT:      -7.2      0.000      0.000
REMARK  Name = 
REMARK  6 active torsions:
REMARK  status: ('A' for Active; 'I' for Inactive)
REMARK    1  A    between atoms: C_1  and  C_2
REMARK    2  A    between atoms: C_2  and  C_3
REMARK    3  A    between atoms: C_3  and  C_4
REMARK    4  A    between atoms: C_4  and  N_5
REMARK    5  A    between atoms: C_6  and  C_8
REMARK    6  A    between atoms: N_14  and  C_15
REMARK                            x       y       z     vdW  Elec       q    Type
REMARK                         _______ _______ _______ _____ _____    ______ ____
ROOT
ATOM      1  C   UNL     1       6.242   4.720  15.683  0.00  0.00    +0.000 A 
ATOM      2  C   UNL     1       7.002   4.192  16.735  0.00  0.00    +0.000 A 
ATOM      3  C   UNL     1       6.544   4.299  18.048  0.00  0.00    +0.000 A 
ATOM      4  C   UNL     1       5.322   4.907  18.313  0.00  0.00    +0.000 A 
ATOM      5  C   UNL     1       4.538   5.420  17.267  0.00  0.00    +0.000 A 
ATOM      6  C   UNL     1       5.022   5.354  15.950  0.00  0.00    +0.000 A 
ATOM      7  N   UNL     1       3.276   5.987  17.569  0.00  0.00    +0.000 N 
ATOM      8  C   UNL     1       3.004   7.361  17.206  0.00  0.00    +0.000 C 
ATOM      9  C   UNL     1       2.192   5.169  17.870  0.00  0.00    +0.000 C 
ATOM     10  O   UNL     1       1.117   5.295  17.288  0.00  0.00    +0.000 OA
ATOM     11  C   UNL     1       2.270   4.233  19.040  0.00  0.00    +0.000 A 
ATOM     12  C   UNL     1       1.127   3.434  19.264  0.00  0.00    +0.000 A 
ATOM     13  C   UNL     1       1.003   2.641  20.406  0.00  0.00    +0.000 A 
ATOM     14  C   UNL     1       2.021   2.629  21.351  0.00  0.00    +0.000 A 
ATOM     15  C   UNL     1       3.160   3.398  21.146  0.00  0.00    +0.000 A 
ATOM     16  C   UNL     1       3.299   4.214  20.005  0.00  0.00    +0.000 A 
ATOM     17  S   UNL     1       4.810   5.160  19.998  0.00  0.00    +0.000 S 
ENDROOT
BRANCH   1  19
ATOM     18  N   UNL     1       6.200   3.647  13.479  0.00  0.00    +0.000 N 
ATOM     19  C   UNL     1       6.737   4.649  14.278  0.00  0.00    +0.000 C 
ATOM     20  O   UNL     1       7.549   5.469  13.879  0.00  0.00    +0.000 OA
ATOM     21  H   UNL     1       5.457   3.071  13.837  0.00  0.00    +0.000 HD
BRANCH  18  22
ATOM     22  C   UNL     1       6.624   3.455  12.114  0.00  0.00    +0.000 C 
BRANCH  22  23
ATOM     23  C   UNL     1       5.553   2.786  11.252  0.00  0.00    +0.000 C 
BRANCH  23  25
ATOM     24  C   UNL     1       3.343   3.478  10.245  0.00  0.00    +0.000 C 
ATOM     25  C   UNL     1       4.151   3.340  11.525  0.00  0.00    +0.000 C 
ENDBRANCH  23  25
ENDBRANCH  22  23
ENDBRANCH  18  22
ENDBRANCH   1  19
TORSDOF 4
ENDMDL
MODEL 2
REMARK VINA RESULT:      -7.2      6.415      9.096
REMARK  Name = 
REMARK  6 active torsions:
REMARK  status: ('A' for Active; 'I' for Inactive)
REMARK    1  A    between atoms: C_1  and  C_2
REMARK    2  A    between atoms: C_2  and  C_3
REMARK    3  A    between atoms: C_3  and  C_4
REMARK    4  A    between atoms: C_4  and  N_5
REMARK    5  A    between atoms: C_6  and  C_8
REMARK    6  A    between atoms: N_14  and  C_15
REMARK                            x       y       z     vdW  Elec       q    Type
REMARK                         _______ _______ _______ _____ _____    ______ ____
ROOT
ATOM      1  C   UNL     1       1.281   8.641  20.485  0.00  0.00    +0.000 A 
ATOM      2  C   UNL     1       0.902   8.628  21.834  0.00  0.00    +0.000 A 
ATOM      3  C   UNL     1       0.242   9.727  22.382  0.00  0.00    +0.000 A 
ATOM      4  C   UNL     1      -0.064  10.827  21.587  0.00  0.00    +0.000 A 
ATOM      5  C   UNL     1       0.289  10.844  20.229  0.00  0.00    +0.000 A 
ATOM      6  C   UNL     1       0.996   9.757  19.688  0.00  0.00    +0.000 A 
ATOM      7  N   UNL     1      -0.082  11.958  19.438  0.00  0.00    +0.000 N 
ATOM      8  C   UNL     1       0.939  12.725  18.757  0.00  0.00    +0.000 C 
ATOM      9  C   UNL     1      -1.398  12.111  19.013  0.00  0.00    +0.000 C 
ATOM     10  O   UNL     1      -1.669  12.305  17.829  0.00  0.00    +0.000 OA
ATOM     11  C   UNL     1      -2.498  12.217  20.027  0.00  0.00    +0.000 A 
ATOM     12  C   UNL     1      -3.803  12.360  19.505  0.00  0.00    +0.000 A 
ATOM     13  C   UNL     1      -4.895  12.629  20.332  0.00  0.00    +0.000 A 
ATOM     14  C   UNL     1      -4.706  12.762  21.701  0.00  0.00    +0.000 A 
ATOM     15  C   UNL     1      -3.433  12.614  22.239  0.00  0.00    +0.000 A 
ATOM     16  C   UNL     1      -2.317  12.353  21.420  0.00  0.00    +0.000 A 
ATOM     17  S   UNL     1      -0.783  12.276  22.325  0.00  0.00    +0.000 S 
ENDROOT
BRANCH   1  19
ATOM     18  N   UNL     1       2.073   6.327  20.652  0.00  0.00    +0.000 N 
ATOM     19  C   UNL     1       2.024   7.491  19.894  0.00  0.00    +0.000 C 
ATOM     20  O   UNL     1       2.522   7.597  18.784  0.00  0.00    +0.000 OA
ATOM     21  H   UNL     1       1.553   6.272  21.510  0.00  0.00    +0.000 HD
BRANCH  18  22
ATOM     22  C   UNL     1       2.790   5.159  20.203  0.00  0.00    +0.000 C 
BRANCH  22  23
ATOM     23  C   UNL     1       1.903   4.181  19.433  0.00  0.00    +0.000 C 
BRANCH  23  25
ATOM     24  C   UNL     1       1.500   2.759  21.480  0.00  0.00    +0.000 C 
ATOM     25  C   UNL     1       0.856   3.510  20.327  0.00  0.00    +0.000 C 
ENDBRANCH  23  25
ENDBRANCH  22  23
ENDBRANCH  18  22
ENDBRANCH   1  19
TORSDOF 4
ENDMDL
MODEL 3
REMARK VINA RESULT:      -7.1      0.759      1.199
REMARK  Name = 
REMARK  6 active torsions:
REMARK  status: ('A' for Active; 'I' for Inactive)
REMARK    1  A    between atoms: C_1  and  C_2
REMARK    2  A    between atoms: C_2  and  C_3
REMARK    3  A    between atoms: C_3  and  C_4
REMARK    4  A    between atoms: C_4  and  N_5
REMARK    5  A    between atoms: C_6  and  C_8
REMARK    6  A    between atoms: N_14  and  C_15
REMARK                            x       y       z     vdW  Elec       q    Type
REMARK                         _______ _______ _______ _____ _____    ______ ____
ROOT
ATOM      1  C   UNL     1       6.207   4.696  15.691  0.00  0.00    +0.000 A 
ATOM      2  C   UNL     1       6.971   4.182  16.748  0.00  0.00    +0.000 A 
ATOM      3  C   UNL     1       6.512   4.300  18.060  0.00  0.00    +0.000 A 
ATOM      4  C   UNL     1       5.287   4.905  18.321  0.00  0.00    +0.000 A 
ATOM      5  C   UNL     1       4.501   5.403  17.270  0.00  0.00    +0.000 A 
ATOM      6  C   UNL     1       4.984   5.327  15.953  0.00  0.00    +0.000 A 
ATOM      7  N   UNL     1       3.236   5.967  17.567  0.00  0.00    +0.000 N 
ATOM      8  C   UNL     1       2.956   7.335  17.190  0.00  0.00    +0.000 C 
ATOM      9  C   UNL     1       2.156   5.147  17.877  0.00  0.00    +0.000 C 
ATOM     10  O   UNL     1       1.080   5.261  17.295  0.00  0.00    +0.000 OA
ATOM     11  C   UNL     1       2.240   4.223  19.056  0.00  0.00    +0.000 A 
ATOM     12  C   UNL     1       1.101   3.420  19.289  0.00  0.00    +0.000 A 
ATOM     13  C   UNL     1       0.982   2.638  20.440  0.00  0.00    +0.000 A 
ATOM     14  C   UNL     1       2.001   2.641  21.383  0.00  0.00    +0.000 A 
ATOM     15  C   UNL     1       3.135   3.414  21.170  0.00  0.00    +0.000 A 
ATOM     16  C   UNL     1       3.269   4.218  20.021  0.00  0.00    +0.000 A 
ATOM     17  S   UNL     1       4.776   5.173  20.003  0.00  0.00    +0.000 S 
ENDROOT
BRANCH   1  19
ATOM     18  N   UNL     1       6.115   3.648  13.477  0.00  0.00    +0.000 N 
ATOM     19  C   UNL     1       6.702   4.614  14.287  0.00  0.00    +0.000 C 
ATOM     20  O   UNL     1       7.556   5.394  13.898  0.00  0.00    +0.000 OA
ATOM     21  H   UNL     1       5.343   3.108  13.828  0.00  0.00    +0.000 HD
BRANCH  18  22
ATOM     22  C   UNL     1       6.533   3.448  12.111  0.00  0.00    +0.000 C 
BRANCH  22  23
ATOM     23  C   UNL     1       5.799   2.290  11.434  0.00  0.00    +0.000 C 
BRANCH  23  25
ATOM     24  C   UNL     1       6.120  -0.210  11.280  0.00  0.00    +0.000 C 
ATOM     25  C   UNL     1       6.743   1.154  11.030  0.00  0.00    +0.000 C 
ENDBRANCH  23  25
ENDBRANCH  22  23
ENDBRANCH  18  22
ENDBRANCH   1  19
TORSDOF 4
ENDMDL
MODEL 4
REMARK VINA RESULT:      -6.7      6.606      8.986
REMARK  Name = 
REMARK  6 active torsions:
REMARK  status: ('A' for Active; 'I' for Inactive)
REMARK    1  A    between atoms: C_1  and  C_2
REMARK    2  A    between atoms: C_2  and  C_3
REMARK    3  A    between atoms: C_3  and  C_4
REMARK    4  A    between atoms: C_4  and  N_5
REMARK    5  A    between atoms: C_6  and  C_8
REMARK    6  A    between atoms: N_14  and  C_15
REMARK                            x       y       z     vdW  Elec       q    Type
REMARK                         _______ _______ _______ _____ _____    ______ ____
ROOT
ATOM      1  C   UNL     1       1.129   8.715  20.602  0.00  0.00    +0.000 A 
ATOM      2  C   UNL     1       0.769   8.679  21.956  0.00  0.00    +0.000 A 
ATOM      3  C   UNL     1       0.124   9.771  22.535  0.00  0.00    +0.000 A 
ATOM      4  C   UNL     1      -0.184  10.888  21.766  0.00  0.00    +0.000 A 
ATOM      5  C   UNL     1       0.149  10.929  20.403  0.00  0.00    +0.000 A 
ATOM      6  C   UNL     1       0.841   9.849  19.831  0.00  0.00    +0.000 A 
ATOM      7  N   UNL     1      -0.226  12.061  19.638  0.00  0.00    +0.000 N 
ATOM      8  C   UNL     1       0.791  12.834  18.958  0.00  0.00    +0.000 C 
ATOM      9  C   UNL     1      -1.547  12.232  19.236  0.00  0.00    +0.000 C 
ATOM     10  O   UNL     1      -1.833  12.450  18.060  0.00  0.00    +0.000 OA
ATOM     11  C   UNL     1      -2.631  12.325  20.268  0.00  0.00    +0.000 A 
ATOM     12  C   UNL     1      -3.943  12.487  19.768  0.00  0.00    +0.000 A 
ATOM     13  C   UNL     1      -5.020  12.748  20.616  0.00  0.00    +0.000 A 
ATOM     14  C   UNL     1      -4.811  12.853  21.984  0.00  0.00    +0.000 A 
ATOM     15  C   UNL     1      -3.531  12.686  22.501  0.00  0.00    +0.000 A 
ATOM     16  C   UNL     1      -2.429  12.433  21.660  0.00  0.00    +0.000 A 
ATOM     17  S   UNL     1      -0.882  12.328  22.542  0.00  0.00    +0.000 S 
ENDROOT
BRANCH   1  19
ATOM     18  N   UNL     1       1.877   6.383  20.698  0.00  0.00    +0.000 N 
ATOM     19  C   UNL     1       1.855   7.572  19.978  0.00  0.00    +0.000 C 
ATOM     20  O   UNL     1       2.363   7.704  18.876  0.00  0.00    +0.000 OA
ATOM     21  H   UNL     1       1.350   6.309  21.550  0.00  0.00    +0.000 HD
BRANCH  18  22
ATOM     22  C   UNL     1       2.576   5.217  20.216  0.00  0.00    +0.000 C 
BRANCH  22  23
ATOM     23  C   UNL     1       1.694   4.315  19.352  0.00  0.00    +0.000 C 
BRANCH  23  25
ATOM     24  C   UNL     1       3.512   4.865  17.688  0.00  0.00    +0.000 C 
ATOM     25  C   UNL     1       2.367   3.927  18.032  0.00  0.00    +0.000 C 
ENDBRANCH  23  25
ENDBRANCH  22  23
ENDBRANCH  18  22
ENDBRANCH   1  19
TORSDOF 4
ENDMDL
MODEL 5
REMARK VINA RESULT:      -6.6      6.381      8.802
REMARK  Name = 
REMARK  6 active torsions:
REMARK  status: ('A' for Active; 'I' for Inactive)
REMARK    1  A    between atoms: C_1  and  C_2
REMARK    2  A    between atoms: C_2  and  C_3
REMARK    3  A    between atoms: C_3  and  C_4
REMARK    4  A    between atoms: C_4  and  N_5
REMARK    5  A    between atoms: C_6  and  C_8
REMARK    6  A    between atoms: N_14  and  C_15
REMARK                            x       y       z     vdW  Elec       q    Type
REMARK                         _______ _______ _______ _____ _____    ______ ____
ROOT
ATOM      1  C   UNL     1       1.127   8.424  20.740  0.00  0.00    +0.000 A 
ATOM      2  C   UNL     1       0.713   8.506  22.076  0.00  0.00    +0.000 A 
ATOM      3  C   UNL     1       0.097   9.666  22.545  0.00  0.00    +0.000 A 
ATOM      4  C   UNL     1      -0.130  10.734  21.682  0.00  0.00    +0.000 A 
ATOM      5  C   UNL     1       0.258  10.656  20.335  0.00  0.00    +0.000 A 
ATOM      6  C   UNL     1       0.921   9.507  19.875  0.00  0.00    +0.000 A 
ATOM      7  N   UNL     1      -0.035  11.742  19.474  0.00  0.00    +0.000 N 
ATOM      8  C   UNL     1       1.042  12.416  18.782  0.00  0.00    +0.000 C 
ATOM      9  C   UNL     1      -1.330  11.937  19.004  0.00  0.00    +0.000 C 
ATOM     10  O   UNL     1      -1.559  12.077  17.805  0.00  0.00    +0.000 OA
ATOM     11  C   UNL     1      -2.449  12.155  19.979  0.00  0.00    +0.000 A 
ATOM     12  C   UNL     1      -3.731  12.334  19.413  0.00  0.00    +0.000 A 
ATOM     13  C   UNL     1      -4.827  12.705  20.193  0.00  0.00    +0.000 A 
ATOM     14  C   UNL     1      -4.667  12.904  21.558  0.00  0.00    +0.000 A 
ATOM     15  C   UNL     1      -3.418  12.723  22.139  0.00  0.00    +0.000 A 
ATOM     16  C   UNL     1      -2.296  12.360  21.367  0.00  0.00    +0.000 A 
ATOM     17  S   UNL     1      -0.792  12.256  22.319  0.00  0.00    +0.000 S 
ENDROOT
BRANCH   1  19
ATOM     18  N   UNL     1       2.500   7.335  19.027  0.00  0.00    +0.000 N 
ATOM     19  C   UNL     1       1.824   7.206  20.234  0.00  0.00    +0.000 C 
ATOM     20  O   UNL     1       1.804   6.179  20.892  0.00  0.00    +0.000 OA
ATOM     21  H   UNL     1       2.566   8.237  18.588  0.00  0.00    +0.000 HD
BRANCH  18  22
ATOM     22  C   UNL     1       3.183   6.220  18.417  0.00  0.00    +0.000 C 
BRANCH  22  23
ATOM     23  C   UNL     1       2.220   5.191  17.825  0.00  0.00    +0.000 C 
BRANCH  23  25
ATOM     24  C   UNL     1       1.252   3.057  18.766  0.00  0.00    +0.000 C 
ATOM     25  C   UNL     1       2.515   3.767  18.307  0.00  0.00    +0.000 C 
ENDBRANCH  23  25
ENDBRANCH  22  23
ENDBRANCH  18  22
ENDBRANCH   1  19
TORSDOF 4
ENDMDL
MODEL 6
REMARK VINA RESULT:      -6.5      6.169      8.525
REMARK  Name = 
REMARK  6 active torsions:
REMARK  status: ('A' for Active; 'I' for Inactive)
REMARK    1  A    between atoms: C_1  and  C_2
REMARK    2  A    between atoms: C_2  and  C_3
REMARK    3  A    between atoms: C_3  and  C_4
REMARK    4  A    between atoms: C_4  and  N_5
REMARK    5  A    between atoms: C_6  and  C_8
REMARK    6  A    between atoms: N_14  and  C_15
REMARK                            x       y       z     vdW  Elec       q    Type
REMARK                         _______ _______ _______ _____ _____    ______ ____
ROOT
ATOM      1  C   UNL     1       1.461   8.493  20.092  0.00  0.00    +0.000 A 
ATOM      2  C   UNL     1       1.141   8.430  21.455  0.00  0.00    +0.000 A 
ATOM      3  C   UNL     1       0.535   9.520  22.079  0.00  0.00    +0.000 A 
ATOM      4  C   UNL     1       0.227  10.662  21.347  0.00  0.00    +0.000 A 
ATOM      5  C   UNL     1       0.521  10.730  19.976  0.00  0.00    +0.000 A 
ATOM      6  C   UNL     1       1.173   9.651  19.358  0.00  0.00    +0.000 A 
ATOM      7  N   UNL     1       0.147  11.888  19.252  0.00  0.00    +0.000 N 
ATOM      8  C   UNL     1       1.159  12.658  18.561  0.00  0.00    +0.000 C 
ATOM      9  C   UNL     1      -1.181  12.094  18.893  0.00  0.00    +0.000 C 
ATOM     10  O   UNL     1      -1.497  12.348  17.732  0.00  0.00    +0.000 OA
ATOM     11  C   UNL     1      -2.233  12.183  19.959  0.00  0.00    +0.000 A 
ATOM     12  C   UNL     1      -3.555  12.383  19.502  0.00  0.00    +0.000 A 
ATOM     13  C   UNL     1      -4.601  12.644  20.388  0.00  0.00    +0.000 A 
ATOM     14  C   UNL     1      -4.350  12.710  21.752  0.00  0.00    +0.000 A 
ATOM     15  C   UNL     1      -3.060  12.506  22.226  0.00  0.00    +0.000 A 
ATOM     16  C   UNL     1      -1.988  12.253  21.347  0.00  0.00    +0.000 A 
ATOM     17  S   UNL     1      -0.419  12.095  22.179  0.00  0.00    +0.000 S 
ENDROOT
BRANCH   1  19
ATOM     18  N   UNL     1       2.551   6.302  20.235  0.00  0.00    +0.000 N 
ATOM     19  C   UNL     1       2.145   7.352  19.419  0.00  0.00    +0.000 C 
ATOM     20  O   UNL     1       2.293   7.362  18.208  0.00  0.00    +0.000 OA
ATOM     21  H   UNL     1       2.305   6.307  21.210  0.00  0.00    +0.000 HD
BRANCH  18  22
ATOM     22  C   UNL     1       3.254   5.158  19.707  0.00  0.00    +0.000 C 
BRANCH  22  23
ATOM     23  C   UNL     1       4.723   5.455  19.407  0.00  0.00    +0.000 C 
BRANCH  23  25
ATOM     24  C   UNL     1       3.983   4.376  17.247  0.00  0.00    +0.000 C 
ATOM     25  C   UNL     1       5.158   4.931  18.035  0.00  0.00    +0.000 C 
ENDBRANCH  23  25
ENDBRANCH  22  23
ENDBRANCH  18  22
ENDBRANCH   1  19
TORSDOF 4
ENDMDL
MODEL 7
REMARK VINA RESULT:      -6.5      4.832      7.663
REMARK  Name = 
REMARK  6 active torsions:
REMARK  status: ('A' for Active; 'I' for Inactive)
REMARK    1  A    between atoms: C_1  and  C_2
REMARK    2  A    between atoms: C_2  and  C_3
REMARK    3  A    between atoms: C_3  and  C_4
REMARK    4  A    between atoms: C_4  and  N_5
REMARK    5  A    between atoms: C_6  and  C_8
REMARK    6  A    between atoms: N_14  and  C_15
REMARK                            x       y       z     vdW  Elec       q    Type
REMARK                         _______ _______ _______ _____ _____    ______ ____
ROOT
ATOM      1  C   UNL     1       2.739   7.055  19.113  0.00  0.00    +0.000 A 
ATOM      2  C   UNL     1       2.691   7.625  17.834  0.00  0.00    +0.000 A 
ATOM      3  C   UNL     1       1.820   8.683  17.575  0.00  0.00    +0.000 A 
ATOM      4  C   UNL     1       1.015   9.190  18.590  0.00  0.00    +0.000 A 
ATOM      5  C   UNL     1       1.069   8.644  19.882  0.00  0.00    +0.000 A 
ATOM      6  C   UNL     1       1.912   7.548  20.131  0.00  0.00    +0.000 A 
ATOM      7  N   UNL     1       0.273   9.218  20.903  0.00  0.00    +0.000 N 
ATOM      8  C   UNL     1      -0.693   8.399  21.602  0.00  0.00    +0.000 C 
ATOM      9  C   UNL     1       0.643  10.425  21.488  0.00  0.00    +0.000 C 
ATOM     10  O   UNL     1       0.722  10.546  22.708  0.00  0.00    +0.000 OA
ATOM     11  C   UNL     1       0.779  11.652  20.634  0.00  0.00    +0.000 A 
ATOM     12  C   UNL     1       1.168  12.830  21.310  0.00  0.00    +0.000 A 
ATOM     13  C   UNL     1       1.175  14.070  20.669  0.00  0.00    +0.000 A 
ATOM     14  C   UNL     1       0.794  14.160  19.337  0.00  0.00    +0.000 A 
ATOM     15  C   UNL     1       0.418  13.013  18.648  0.00  0.00    +0.000 A 
ATOM     16  C   UNL     1       0.394  11.754  19.281  0.00  0.00    +0.000 A 
ATOM     17  S   UNL     1      -0.188  10.445  18.218  0.00  0.00    +0.000 S 
ENDROOT
BRANCH   1  19
ATOM     18  N   UNL     1       4.833   5.853  18.691  0.00  0.00    +0.000 N 
ATOM     19  C   UNL     1       3.635   5.897  19.395  0.00  0.00    +0.000 C 
ATOM     20  O   UNL     1       3.312   5.070  20.232  0.00  0.00    +0.000 OA
ATOM     21  H   UNL     1       5.087   6.621  18.094  0.00  0.00    +0.000 HD
BRANCH  18  22
ATOM     22  C   UNL     1       5.768   4.766  18.851  0.00  0.00    +0.000 C 
BRANCH  22  23
ATOM     23  C   UNL     1       7.106   5.032  18.161  0.00  0.00    +0.000 C 
BRANCH  23  25
ATOM     24  C   UNL     1       7.655   7.432  17.598  0.00  0.00    +0.000 C 
ATOM     25  C   UNL     1       7.763   6.330  18.640  0.00  0.00    +0.000 C 
ENDBRANCH  23  25
ENDBRANCH  22  23
ENDBRANCH  18  22
ENDBRANCH   1  19
TORSDOF 4
ENDMDL
MODEL 8
REMARK VINA RESULT:      -6.4      6.365      8.690
REMARK  Name = 
REMARK  6 active torsions:
REMARK  status: ('A' for Active; 'I' for Inactive)
REMARK    1  A    between atoms: C_1  and  C_2
REMARK    2  A    between atoms: C_2  and  C_3
REMARK    3  A    between atoms: C_3  and  C_4
REMARK    4  A    between atoms: C_4  and  N_5
REMARK    5  A    between atoms: C_6  and  C_8
REMARK    6  A    between atoms: N_14  and  C_15
REMARK                            x       y       z     vdW  Elec       q    Type
REMARK                         _______ _______ _______ _____ _____    ______ ____
ROOT
ATOM      1  C   UNL     1       1.273   8.537  20.457  0.00  0.00    +0.000 A 
ATOM      2  C   UNL     1       0.924   8.578  21.814  0.00  0.00    +0.000 A 
ATOM      3  C   UNL     1       0.302   9.711  22.339  0.00  0.00    +0.000 A 
ATOM      4  C   UNL     1       0.005  10.791  21.514  0.00  0.00    +0.000 A 
ATOM      5  C   UNL     1       0.328  10.754  20.149  0.00  0.00    +0.000 A 
ATOM      6  C   UNL     1       0.996   9.634  19.629  0.00  0.00    +0.000 A 
ATOM      7  N   UNL     1      -0.035  11.851  19.329  0.00  0.00    +0.000 N 
ATOM      8  C   UNL     1       0.989  12.569  18.601  0.00  0.00    +0.000 C 
ATOM      9  C   UNL     1      -1.356  12.022  18.927  0.00  0.00    +0.000 C 
ATOM     10  O   UNL     1      -1.648  12.183  17.745  0.00  0.00    +0.000 OA
ATOM     11  C   UNL     1      -2.430  12.188  19.962  0.00  0.00    +0.000 A 
ATOM     12  C   UNL     1      -3.743  12.345  19.463  0.00  0.00    +0.000 A 
ATOM     13  C   UNL     1      -4.809  12.669  20.305  0.00  0.00    +0.000 A 
ATOM     14  C   UNL     1      -4.586  12.842  21.664  0.00  0.00    +0.000 A 
ATOM     15  C   UNL     1      -3.305  12.681  22.179  0.00  0.00    +0.000 A 
ATOM     16  C   UNL     1      -2.215  12.366  21.345  0.00  0.00    +0.000 A 
ATOM     17  S   UNL     1      -0.663  12.281  22.219  0.00  0.00    +0.000 S 
ENDROOT
BRANCH   1  19
ATOM     18  N   UNL     1       2.644   7.542  18.686  0.00  0.00    +0.000 N 
ATOM     19  C   UNL     1       1.974   7.351  19.889  0.00  0.00    +0.000 C 
ATOM     20  O   UNL     1       1.964   6.292  20.496  0.00  0.00    +0.000 OA
ATOM     21  H   UNL     1       2.702   8.465  18.291  0.00  0.00    +0.000 HD
BRANCH  18  22
ATOM     22  C   UNL     1       3.330   6.463  18.019  0.00  0.00    +0.000 C 
BRANCH  22  23
ATOM     23  C   UNL     1       4.484   6.950  17.143  0.00  0.00    +0.000 C 
BRANCH  23  25
ATOM     24  C   UNL     1       6.987   7.105  17.443  0.00  0.00    +0.000 C 
ATOM     25  C   UNL     1       5.783   6.179  17.402  0.00  0.00    +0.000 C 
ENDBRANCH  23  25
ENDBRANCH  22  23
ENDBRANCH  18  22
ENDBRANCH   1  19
TORSDOF 4
ENDMDL
MODEL 9
REMARK VINA RESULT:      -6.3      7.782     10.380
REMARK  Name = 
REMARK  6 active torsions:
REMARK  status: ('A' for Active; 'I' for Inactive)
REMARK    1  A    between atoms: C_1  and  C_2
REMARK    2  A    between atoms: C_2  and  C_3
REMARK    3  A    between atoms: C_3  and  C_4
REMARK    4  A    between atoms: C_4  and  N_5
REMARK    5  A    between atoms: C_6  and  C_8
REMARK    6  A    between atoms: N_14  and  C_15
REMARK                            x       y       z     vdW  Elec       q    Type
REMARK                         _______ _______ _______ _____ _____    ______ ____
ROOT
ATOM      1  C   UNL     1      -0.104  10.252  21.699  0.00  0.00    +0.000 A 
ATOM      2  C   UNL     1      -0.725  10.740  22.857  0.00  0.00    +0.000 A 
ATOM      3  C   UNL     1      -1.686  11.747  22.761  0.00  0.00    +0.000 A 
ATOM      4  C   UNL     1      -2.047  12.252  21.516  0.00  0.00    +0.000 A 
ATOM      5  C   UNL     1      -1.450  11.756  20.346  0.00  0.00    +0.000 A 
ATOM      6  C   UNL     1      -0.449  10.776  20.446  0.00  0.00    +0.000 A 
ATOM      7  N   UNL     1      -1.878  12.257  19.092  0.00  0.00    +0.000 N 
ATOM      8  C   UNL     1      -0.920  12.883  18.207  0.00  0.00    +0.000 C 
ATOM      9  C   UNL     1      -3.091  11.847  18.548  0.00  0.00    +0.000 C 
ATOM     10  O   UNL     1      -3.162  11.413  17.400  0.00  0.00    +0.000 OA
ATOM     11  C   UNL     1      -4.365  12.094  19.303  0.00  0.00    +0.000 A 
ATOM     12  C   UNL     1      -5.546  11.635  18.680  0.00  0.00    +0.000 A 
ATOM     13  C   UNL     1      -6.808  11.942  19.192  0.00  0.00    +0.000 A 
ATOM     14  C   UNL     1      -6.916  12.715  20.340  0.00  0.00    +0.000 A 
ATOM     15  C   UNL     1      -5.767  13.168  20.977  0.00  0.00    +0.000 A 
ATOM     16  C   UNL     1      -4.485  12.879  20.469  0.00  0.00    +0.000 A 
ATOM     17  S   UNL     1      -3.170  13.626  21.413  0.00  0.00    +0.000 S 
ENDROOT
BRANCH   1  19
ATOM     18  N   UNL     1       0.980   8.260  20.769  0.00  0.00    +0.000 N 
ATOM     19  C   UNL     1       0.954   9.205  21.788  0.00  0.00    +0.000 C 
ATOM     20  O   UNL     1       1.756   9.231  22.708  0.00  0.00    +0.000 OA
ATOM     21  H   UNL     1       0.358   8.358  19.986  0.00  0.00    +0.000 HD
BRANCH  18  22
ATOM     22  C   UNL     1       1.933   7.178  20.762  0.00  0.00    +0.000 C 
BRANCH  22  23
ATOM     23  C   UNL     1       2.464   6.869  19.362  0.00  0.00    +0.000 C 
BRANCH  23  25
ATOM     24  C   UNL     1       1.952   4.851  17.932  0.00  0.00    +0.000 C 
ATOM     25  C   UNL     1       2.706   5.372  19.145  0.00  0.00    +0.000 C 
ENDBRANCH  23  25
ENDBRANCH  22  23
ENDBRANCH  18  22
ENDBRANCH   1  19
TORSDOF 4
ENDMDL
