MODEL 1
REMARK VINA RESULT:      -7.0      0.000      0.000
REMARK  Name = 
REMARK  7 active torsions:
REMARK  status: ('A' for Active; 'I' for Inactive)
REMARK    1  A    between atoms: C_1  and  N_2
REMARK    2  A    between atoms: N_2  and  C_3
REMARK    3  A    between atoms: N_2  and  S_9
REMARK    4  A    between atoms: S_9  and  C_12
REMARK    5  A    between atoms: C_15  and  S_16
REMARK    6  A    between atoms: S_16  and  C_17
REMARK    7  A    between atoms: C_17  and  C_18
REMARK                            x       y       z     vdW  Elec       q    Type
REMARK                         _______ _______ _______ _____ _____    ______ ____
ROOT
ATOM      1  C   UNL     1       5.852   4.886  17.173  0.00  0.00    +0.000 A 
ATOM      2  C   UNL     1       5.138   4.028  16.338  0.00  0.00    +0.000 A 
ATOM      3  C   UNL     1       5.556   3.870  15.013  0.00  0.00    +0.000 A 
ATOM      4  C   UNL     1       6.658   4.592  14.565  0.00  0.00    +0.000 A 
ATOM      5  N   UNL     1       7.364   5.421  15.371  0.00  0.00    +0.000 NA
ATOM      6  C   UNL     1       6.963   5.532  16.664  0.00  0.00    +0.000 A 
ENDROOT
BRANCH   1   7
ATOM      7  S   UNL     1       5.428   5.125  18.877  0.00  0.00    +0.000 S 
ATOM      8  O   UNL     1       4.780   6.414  18.933  0.00  0.00    +0.000 OA
ATOM      9  O   UNL     1       6.604   4.836  19.670  0.00  0.00    +0.000 OA
BRANCH   7  11
ATOM     10  C   UNL     1       4.894   2.765  20.013  0.00  0.00    +0.000 C 
ATOM     11  N   UNL     1       4.266   3.868  19.209  0.00  0.00    +0.000 NA
BRANCH  11  12
ATOM     12  C   UNL     1       2.948   4.322  19.857  0.00  0.00    +0.000 C 
ATOM     13  C   UNL     1       1.894   4.910  18.897  0.00  0.00    +0.000 C 
ATOM     14  C   UNL     1       1.272   3.894  17.933  0.00  0.00    +0.000 C 
ATOM     15  C   UNL     1       0.777   2.625  18.624  0.00  0.00    +0.000 C 
ATOM     16  C   UNL     1       1.805   2.064  19.599  0.00  0.00    +0.000 C 
ATOM     17  C   UNL     1       2.253   3.144  20.582  0.00  0.00    +0.000 C 
ENDBRANCH  11  12
ENDBRANCH   7  11
ENDBRANCH   1   7
BRANCH   4  18
ATOM     18  S   UNL     1       7.264   4.462  12.898  0.00  0.00    +0.000 S 
BRANCH  18  19
ATOM     19  C   UNL     1       6.053   3.306  12.180  0.00  0.00    +0.000 C 
BRANCH  19  20
ATOM     20  C   UNL     1       6.676   2.089  11.526  0.00  0.00    +0.000 C 
ATOM     21  N   UNL     1       5.926   0.953  11.466  0.00  0.00    +0.000 N 
ATOM     22  O   UNL     1       7.781   2.129  10.979  0.00  0.00    +0.000 OA
ATOM     23  H   UNL     1       5.172   0.815  12.135  0.00  0.00    +0.000 HD
ATOM     24  H   UNL     1       6.378   0.125  11.104  0.00  0.00    +0.000 HD
ENDBRANCH  19  20
ENDBRANCH  18  19
ENDBRANCH   4  18
TORSDOF 6
ENDMDL
MODEL 2
REMARK VINA RESULT:      -6.9      4.151      7.909
REMARK  Name = 
REMARK  7 active torsions:
REMARK  status: ('A' for Active; 'I' for Inactive)
REMARK    1  A    between atoms: C_1  and  N_2
REMARK    2  A    between atoms: N_2  and  C_3
REMARK    3  A    between atoms: N_2  and  S_9
REMARK    4  A    between atoms: S_9  and  C_12
REMARK    5  A    between atoms: C_15  and  S_16
REMARK    6  A    between atoms: S_16  and  C_17
REMARK    7  A    between atoms: C_17  and  C_18
REMARK                            x       y       z     vdW  Elec       q    Type
REMARK                         _______ _______ _______ _____ _____    ______ ____
ROOT
ATOM      1  C   UNL     1       3.083   7.045  18.672  0.00  0.00    +0.000 A 
ATOM      2  C   UNL     1       2.762   7.981  17.691  0.00  0.00    +0.000 A 
ATOM      3  C   UNL     1       1.830   8.981  17.988  0.00  0.00    +0.000 A 
ATOM      4  C   UNL     1       1.238   8.994  19.247  0.00  0.00    +0.000 A 
ATOM      5  N   UNL     1       1.550   8.095  20.211  0.00  0.00    +0.000 NA
ATOM      6  C   UNL     1       2.485   7.155  19.913  0.00  0.00    +0.000 A 
ENDROOT
BRANCH   1   7
ATOM      7  S   UNL     1       4.280   5.765  18.409  0.00  0.00    +0.000 S 
ATOM      8  O   UNL     1       5.000   5.653  19.655  0.00  0.00    +0.000 OA
ATOM      9  O   UNL     1       4.964   6.047  17.164  0.00  0.00    +0.000 OA
BRANCH   7  11
ATOM     10  C   UNL     1       3.690   3.674  16.852  0.00  0.00    +0.000 C 
ATOM     11  N   UNL     1       3.322   4.330  18.153  0.00  0.00    +0.000 NA
BRANCH  11  12
ATOM     12  C   UNL     1       3.329   3.301  19.294  0.00  0.00    +0.000 C 
ATOM     13  C   UNL     1       2.680   3.760  20.616  0.00  0.00    +0.000 C 
ATOM     14  C   UNL     1       1.159   3.936  20.552  0.00  0.00    +0.000 C 
ATOM     15  C   UNL     1       0.434   2.740  19.938  0.00  0.00    +0.000 C 
ATOM     16  C   UNL     1       1.097   2.266  18.650  0.00  0.00    +0.000 C 
ATOM     17  C   UNL     1       2.585   2.009  18.880  0.00  0.00    +0.000 C 
ENDBRANCH  11  12
ENDBRANCH   7  11
ENDBRANCH   1   7
BRANCH   4  18
ATOM     18  S   UNL     1       0.039  10.221  19.719  0.00  0.00    +0.000 S 
BRANCH  18  19
ATOM     19  C   UNL     1       0.656  10.690  21.368  0.00  0.00    +0.000 C 
BRANCH  19  20
ATOM     20  C   UNL     1      -0.269  10.300  22.504  0.00  0.00    +0.000 C 
ATOM     21  N   UNL     1      -0.582   8.980  22.635  0.00  0.00    +0.000 N 
ATOM     22  O   UNL     1      -0.659  11.114  23.344  0.00  0.00    +0.000 OA
ATOM     23  H   UNL     1      -0.517   8.367  21.827  0.00  0.00    +0.000 HD
ATOM     24  H   UNL     1      -1.262   8.740  23.343  0.00  0.00    +0.000 HD
ENDBRANCH  19  20
ENDBRANCH  18  19
ENDBRANCH   4  18
TORSDOF 6
ENDMDL
MODEL 3
REMARK VINA RESULT:      -6.8      4.221      8.592
REMARK  Name = 
REMARK  7 active torsions:
REMARK  status: ('A' for Active; 'I' for Inactive)
REMARK    1  A    between atoms: C_1  and  N_2
REMARK    2  A    between atoms: N_2  and  C_3
REMARK    3  A    between atoms: N_2  and  S_9
REMARK    4  A    between atoms: S_9  and  C_12
REMARK    5  A    between atoms: C_15  and  S_16
REMARK    6  A    between atoms: S_16  and  C_17
REMARK    7  A    between atoms: C_17  and  C_18
REMARK                            x       y       z     vdW  Elec       q    Type
REMARK                         _______ _______ _______ _____ _____    ______ ____
ROOT
ATOM      1  C   UNL     1       2.493   6.125  18.941  0.00  0.00    +0.000 A 
ATOM      2  C   UNL     1       2.489   7.205  18.060  0.00  0.00    +0.000 A 
ATOM      3  C   UNL     1       2.005   8.440  18.503  0.00  0.00    +0.000 A 
ATOM      4  C   UNL     1       1.523   8.544  19.804  0.00  0.00    +0.000 A 
ATOM      5  N   UNL     1       1.530   7.504  20.671  0.00  0.00    +0.000 NA
ATOM      6  C   UNL     1       2.038   6.323  20.232  0.00  0.00    +0.000 A 
ENDROOT
BRANCH   1   7
ATOM      7  S   UNL     1       3.121   4.531  18.490  0.00  0.00    +0.000 S 
ATOM      8  O   UNL     1       2.798   4.375  17.092  0.00  0.00    +0.000 OA
ATOM      9  O   UNL     1       2.666   3.579  19.481  0.00  0.00    +0.000 OA
BRANCH   7  11
ATOM     10  C   UNL     1       5.373   3.615  19.600  0.00  0.00    +0.000 C 
ATOM     11  N   UNL     1       4.847   4.681  18.681  0.00  0.00    +0.000 NA
BRANCH  11  12
ATOM     12  C   UNL     1       5.669   4.724  17.383  0.00  0.00    +0.000 C 
ATOM     13  C   UNL     1       5.503   5.994  16.524  0.00  0.00    +0.000 C 
ATOM     14  C   UNL     1       6.094   7.265  17.144  0.00  0.00    +0.000 C 
ATOM     15  C   UNL     1       7.527   7.089  17.641  0.00  0.00    +0.000 C 
ATOM     16  C   UNL     1       7.699   5.816  18.460  0.00  0.00    +0.000 C 
ATOM     17  C   UNL     1       7.184   4.607  17.681  0.00  0.00    +0.000 C 
ENDBRANCH  11  12
ENDBRANCH   7  11
ENDBRANCH   1   7
BRANCH   4  18
ATOM     18  S   UNL     1       0.884  10.070  20.459  0.00  0.00    +0.000 S 
BRANCH  18  19
ATOM     19  C   UNL     1      -0.425   9.449  21.563  0.00  0.00    +0.000 C 
BRANCH  19  20
ATOM     20  C   UNL     1      -0.419  10.081  22.941  0.00  0.00    +0.000 C 
ATOM     21  N   UNL     1      -1.359  11.032  23.202  0.00  0.00    +0.000 N 
ATOM     22  O   UNL     1       0.338   9.700  23.837  0.00  0.00    +0.000 OA
ATOM     23  H   UNL     1      -1.778  11.546  22.431  0.00  0.00    +0.000 HD
ATOM     24  H   UNL     1      -1.297  11.506  24.092  0.00  0.00    +0.000 HD
ENDBRANCH  19  20
ENDBRANCH  18  19
ENDBRANCH   4  18
TORSDOF 6
ENDMDL
MODEL 4
REMARK VINA RESULT:      -6.8      4.533      7.566
REMARK  Name = 
REMARK  7 active torsions:
REMARK  status: ('A' for Active; 'I' for Inactive)
REMARK    1  A    between atoms: C_1  and  N_2
REMARK    2  A    between atoms: N_2  and  C_3
REMARK    3  A    between atoms: N_2  and  S_9
REMARK    4  A    between atoms: S_9  and  C_12
REMARK    5  A    between atoms: C_15  and  S_16
REMARK    6  A    between atoms: S_16  and  C_17
REMARK    7  A    between atoms: C_17  and  C_18
REMARK                            x       y       z     vdW  Elec       q    Type
REMARK                         _______ _______ _______ _____ _____    ______ ____
ROOT
ATOM      1  C   UNL     1       3.106   7.044  18.671  0.00  0.00    +0.000 A 
ATOM      2  C   UNL     1       2.790   7.988  17.695  0.00  0.00    +0.000 A 
ATOM      3  C   UNL     1       1.865   8.992  17.999  0.00  0.00    +0.000 A 
ATOM      4  C   UNL     1       1.275   9.003  19.259  0.00  0.00    +0.000 A 
ATOM      5  N   UNL     1       1.583   8.097  20.217  0.00  0.00    +0.000 NA
ATOM      6  C   UNL     1       2.511   7.151  19.914  0.00  0.00    +0.000 A 
ENDROOT
BRANCH   1   7
ATOM      7  S   UNL     1       4.294   5.757  18.399  0.00  0.00    +0.000 S 
ATOM      8  O   UNL     1       5.024   5.642  19.639  0.00  0.00    +0.000 OA
ATOM      9  O   UNL     1       4.969   6.034  17.149  0.00  0.00    +0.000 OA
BRANCH   7  11
ATOM     10  C   UNL     1       3.681   3.667  16.851  0.00  0.00    +0.000 C 
ATOM     11  N   UNL     1       3.326   4.328  18.152  0.00  0.00    +0.000 NA
BRANCH  11  12
ATOM     12  C   UNL     1       3.334   3.301  19.296  0.00  0.00    +0.000 C 
ATOM     13  C   UNL     1       2.666   3.753  20.610  0.00  0.00    +0.000 C 
ATOM     14  C   UNL     1       1.144   3.910  20.530  0.00  0.00    +0.000 C 
ATOM     15  C   UNL     1       0.440   2.703  19.911  0.00  0.00    +0.000 C 
ATOM     16  C   UNL     1       1.123   2.235  18.632  0.00  0.00    +0.000 C 
ATOM     17  C   UNL     1       2.611   1.998  18.877  0.00  0.00    +0.000 C 
ENDBRANCH  11  12
ENDBRANCH   7  11
ENDBRANCH   1   7
BRANCH   4  18
ATOM     18  S   UNL     1       0.086  10.236  19.739  0.00  0.00    +0.000 S 
BRANCH  18  19
ATOM     19  C   UNL     1      -0.930  10.341  18.231  0.00  0.00    +0.000 C 
BRANCH  19  20
ATOM     20  C   UNL     1      -1.732  11.622  18.117  0.00  0.00    +0.000 C 
ATOM     21  N   UNL     1      -1.294  12.562  17.233  0.00  0.00    +0.000 N 
ATOM     22  O   UNL     1      -2.793  11.791  18.723  0.00  0.00    +0.000 OA
ATOM     23  H   UNL     1      -0.316  12.572  16.957  0.00  0.00    +0.000 HD
ATOM     24  H   UNL     1      -1.786  13.445  17.222  0.00  0.00    +0.000 HD
ENDBRANCH  19  20
ENDBRANCH  18  19
ENDBRANCH   4  18
TORSDOF 6
ENDMDL
MODEL 5
REMARK VINA RESULT:      -6.7      0.987      1.738
REMARK  Name = 
REMARK  7 active torsions:
REMARK  status: ('A' for Active; 'I' for Inactive)
REMARK    1  A    between atoms: C_1  and  N_2
REMARK    2  A    between atoms: N_2  and  C_3
REMARK    3  A    between atoms: N_2  and  S_9
REMARK    4  A    between atoms: S_9  and  C_12
REMARK    5  A    between atoms: C_15  and  S_16
REMARK    6  A    between atoms: S_16  and  C_17
REMARK    7  A    between atoms: C_17  and  C_18
REMARK                            x       y       z     vdW  Elec       q    Type
REMARK                         _______ _______ _______ _____ _____    ______ ____
ROOT
ATOM      1  C   UNL     1       5.845   4.522  17.323  0.00  0.00    +0.000 A 
ATOM      2  C   UNL     1       4.884   4.161  16.381  0.00  0.00    +0.000 A 
ATOM      3  C   UNL     1       5.240   4.127  15.029  0.00  0.00    +0.000 A 
ATOM      4  C   UNL     1       6.537   4.476  14.667  0.00  0.00    +0.000 A 
ATOM      5  N   UNL     1       7.481   4.819  15.575  0.00  0.00    +0.000 NA
ATOM      6  C   UNL     1       7.124   4.811  16.887  0.00  0.00    +0.000 A 
ENDROOT
BRANCH   1   7
ATOM      7  S   UNL     1       5.506   4.557  19.062  0.00  0.00    +0.000 S 
ATOM      8  O   UNL     1       6.310   5.635  19.587  0.00  0.00    +0.000 OA
ATOM      9  O   UNL     1       5.634   3.206  19.566  0.00  0.00    +0.000 OA
BRANCH   7  11
ATOM     10  C   UNL     1       3.556   6.280  18.451  0.00  0.00    +0.000 C 
ATOM     11  N   UNL     1       3.818   4.982  19.161  0.00  0.00    +0.000 NA
BRANCH  11  12
ATOM     12  C   UNL     1       2.823   3.906  18.697  0.00  0.00    +0.000 C 
ATOM     13  C   UNL     1       2.970   2.523  19.363  0.00  0.00    +0.000 C 
ATOM     14  C   UNL     1       2.584   2.485  20.846  0.00  0.00    +0.000 C 
ATOM     15  C   UNL     1       1.229   3.125  21.138  0.00  0.00    +0.000 C 
ATOM     16  C   UNL     1       1.071   4.476  20.450  0.00  0.00    +0.000 C 
ATOM     17  C   UNL     1       1.363   4.352  18.956  0.00  0.00    +0.000 C 
ENDBRANCH  11  12
ENDBRANCH   7  11
ENDBRANCH   1   7
BRANCH   4  18
ATOM     18  S   UNL     1       7.084   4.468  12.975  0.00  0.00    +0.000 S 
BRANCH  18  19
ATOM     19  C   UNL     1       5.935   3.257  12.246  0.00  0.00    +0.000 C 
BRANCH  19  20
ATOM     20  C   UNL     1       6.621   2.092  11.561  0.00  0.00    +0.000 C 
ATOM     21  N   UNL     1       5.905   0.943  11.407  0.00  0.00    +0.000 N 
ATOM     22  O   UNL     1       7.749   2.187  11.071  0.00  0.00    +0.000 OA
ATOM     23  H   UNL     1       5.124   0.752  12.030  0.00  0.00    +0.000 HD
ATOM     24  H   UNL     1       6.396   0.146  11.024  0.00  0.00    +0.000 HD
ENDBRANCH  19  20
ENDBRANCH  18  19
ENDBRANCH   4  18
TORSDOF 6
ENDMDL
MODEL 6
REMARK VINA RESULT:      -6.7      4.390      7.262
REMARK  Name = 
REMARK  7 active torsions:
REMARK  status: ('A' for Active; 'I' for Inactive)
REMARK    1  A    between atoms: C_1  and  N_2
REMARK    2  A    between atoms: N_2  and  C_3
REMARK    3  A    between atoms: N_2  and  S_9
REMARK    4  A    between atoms: S_9  and  C_12
REMARK    5  A    between atoms: C_15  and  S_16
REMARK    6  A    between atoms: S_16  and  C_17
REMARK    7  A    between atoms: C_17  and  C_18
REMARK                            x       y       z     vdW  Elec       q    Type
REMARK                         _______ _______ _______ _____ _____    ______ ____
ROOT
ATOM      1  C   UNL     1       3.151   7.108  18.525  0.00  0.00    +0.000 A 
ATOM      2  C   UNL     1       2.384   7.219  19.683  0.00  0.00    +0.000 A 
ATOM      3  C   UNL     1       1.484   8.283  19.799  0.00  0.00    +0.000 A 
ATOM      4  C   UNL     1       1.400   9.209  18.764  0.00  0.00    +0.000 A 
ATOM      5  N   UNL     1       2.135   9.104  17.630  0.00  0.00    +0.000 NA
ATOM      6  C   UNL     1       2.976   8.042  17.522  0.00  0.00    +0.000 A 
ENDROOT
BRANCH   1   7
ATOM      7  S   UNL     1       4.290   5.775  18.264  0.00  0.00    +0.000 S 
ATOM      8  O   UNL     1       5.062   5.688  19.480  0.00  0.00    +0.000 OA
ATOM      9  O   UNL     1       4.925   5.981  16.979  0.00  0.00    +0.000 OA
BRANCH   7  11
ATOM     10  C   UNL     1       3.524   3.671  16.804  0.00  0.00    +0.000 C 
ATOM     11  N   UNL     1       3.273   4.367  18.112  0.00  0.00    +0.000 NA
BRANCH  11  12
ATOM     12  C   UNL     1       3.332   3.362  19.274  0.00  0.00    +0.000 C 
ATOM     13  C   UNL     1       2.742   3.849  20.613  0.00  0.00    +0.000 C 
ATOM     14  C   UNL     1       1.219   4.023  20.613  0.00  0.00    +0.000 C 
ATOM     15  C   UNL     1       0.469   2.814  20.058  0.00  0.00    +0.000 C 
ATOM     16  C   UNL     1       1.075   2.312  18.753  0.00  0.00    +0.000 C 
ATOM     17  C   UNL     1       2.572   2.061  18.921  0.00  0.00    +0.000 C 
ENDBRANCH  11  12
ENDBRANCH   7  11
ENDBRANCH   1   7
BRANCH   4  18
ATOM     18  S   UNL     1       0.290  10.597  18.819  0.00  0.00    +0.000 S 
BRANCH  18  19
ATOM     19  C   UNL     1       1.384  11.886  19.498  0.00  0.00    +0.000 C 
BRANCH  19  20
ATOM     20  C   UNL     1       1.889  12.871  18.463  0.00  0.00    +0.000 C 
ATOM     21  N   UNL     1       2.713  12.393  17.488  0.00  0.00    +0.000 N 
ATOM     22  O   UNL     1       1.510  14.045  18.430  0.00  0.00    +0.000 OA
ATOM     23  H   UNL     1       3.247  11.544  17.657  0.00  0.00    +0.000 HD
ATOM     24  H   UNL     1       3.110  13.070  16.852  0.00  0.00    +0.000 HD
ENDBRANCH  19  20
ENDBRANCH  18  19
ENDBRANCH   4  18
TORSDOF 6
ENDMDL
MODEL 7
REMARK VINA RESULT:      -6.7      4.605      7.421
REMARK  Name = 
REMARK  7 active torsions:
REMARK  status: ('A' for Active; 'I' for Inactive)
REMARK    1  A    between atoms: C_1  and  N_2
REMARK    2  A    between atoms: N_2  and  C_3
REMARK    3  A    between atoms: N_2  and  S_9
REMARK    4  A    between atoms: S_9  and  C_12
REMARK    5  A    between atoms: C_15  and  S_16
REMARK    6  A    between atoms: S_16  and  C_17
REMARK    7  A    between atoms: C_17  and  C_18
REMARK                            x       y       z     vdW  Elec       q    Type
REMARK                         _______ _______ _______ _____ _____    ______ ____
ROOT
ATOM      1  C   UNL     1       3.083   7.204  18.491  0.00  0.00    +0.000 A 
ATOM      2  C   UNL     1       2.359   7.330  19.675  0.00  0.00    +0.000 A 
ATOM      3  C   UNL     1       1.469   8.400  19.813  0.00  0.00    +0.000 A 
ATOM      4  C   UNL     1       1.352   9.316  18.773  0.00  0.00    +0.000 A 
ATOM      5  N   UNL     1       2.044   9.196  17.614  0.00  0.00    +0.000 NA
ATOM      6  C   UNL     1       2.876   8.130  17.486  0.00  0.00    +0.000 A 
ENDROOT
BRANCH   1   7
ATOM      7  S   UNL     1       4.205   5.863  18.201  0.00  0.00    +0.000 S 
ATOM      8  O   UNL     1       5.023   5.785  19.388  0.00  0.00    +0.000 OA
ATOM      9  O   UNL     1       4.792   6.052  16.891  0.00  0.00    +0.000 OA
BRANCH   7  11
ATOM     10  C   UNL     1       3.384   3.741  16.798  0.00  0.00    +0.000 C 
ATOM     11  N   UNL     1       3.177   4.458  18.102  0.00  0.00    +0.000 NA
BRANCH  11  12
ATOM     12  C   UNL     1       3.268   3.471  19.277  0.00  0.00    +0.000 C 
ATOM     13  C   UNL     1       2.638   3.946  20.603  0.00  0.00    +0.000 C 
ATOM     14  C   UNL     1       1.109   4.049  20.582  0.00  0.00    +0.000 C 
ATOM     15  C   UNL     1       0.424   2.800  20.032  0.00  0.00    +0.000 C 
ATOM     16  C   UNL     1       1.069   2.311  18.741  0.00  0.00    +0.000 C 
ATOM     17  C   UNL     1       2.573   2.132  18.931  0.00  0.00    +0.000 C 
ENDBRANCH  11  12
ENDBRANCH   7  11
ENDBRANCH   1   7
BRANCH   4  18
ATOM     18  S   UNL     1       0.251  10.710  18.855  0.00  0.00    +0.000 S 
BRANCH  18  19
ATOM     19  C   UNL     1      -1.192  10.065  17.950  0.00  0.00    +0.000 C 
BRANCH  19  20
ATOM     20  C   UNL     1      -2.208  11.125  17.576  0.00  0.00    +0.000 C 
ATOM     21  N   UNL     1      -2.214  11.564  16.286  0.00  0.00    +0.000 N 
ATOM     22  O   UNL     1      -3.067  11.522  18.367  0.00  0.00    +0.000 OA
ATOM     23  H   UNL     1      -1.372  11.475  15.723  0.00  0.00    +0.000 HD
ATOM     24  H   UNL     1      -2.838  12.328  16.065  0.00  0.00    +0.000 HD
ENDBRANCH  19  20
ENDBRANCH  18  19
ENDBRANCH   4  18
TORSDOF 6
ENDMDL
MODEL 8
REMARK VINA RESULT:      -6.6      4.437      7.416
REMARK  Name = 
REMARK  7 active torsions:
REMARK  status: ('A' for Active; 'I' for Inactive)
REMARK    1  A    between atoms: C_1  and  N_2
REMARK    2  A    between atoms: N_2  and  C_3
REMARK    3  A    between atoms: N_2  and  S_9
REMARK    4  A    between atoms: S_9  and  C_12
REMARK    5  A    between atoms: C_15  and  S_16
REMARK    6  A    between atoms: S_16  and  C_17
REMARK    7  A    between atoms: C_17  and  C_18
REMARK                            x       y       z     vdW  Elec       q    Type
REMARK                         _______ _______ _______ _____ _____    ______ ____
ROOT
ATOM      1  C   UNL     1       3.087   7.109  18.526  0.00  0.00    +0.000 A 
ATOM      2  C   UNL     1       2.827   8.071  17.551  0.00  0.00    +0.000 A 
ATOM      3  C   UNL     1       1.930   9.104  17.843  0.00  0.00    +0.000 A 
ATOM      4  C   UNL     1       1.310   9.125  19.088  0.00  0.00    +0.000 A 
ATOM      5  N   UNL     1       1.564   8.200  20.045  0.00  0.00    +0.000 NA
ATOM      6  C   UNL     1       2.466   7.226  19.755  0.00  0.00    +0.000 A 
ENDROOT
BRANCH   1   7
ATOM      7  S   UNL     1       4.236   5.784  18.270  0.00  0.00    +0.000 S 
ATOM      8  O   UNL     1       5.004   5.704  19.489  0.00  0.00    +0.000 OA
ATOM      9  O   UNL     1       4.874   5.993  16.987  0.00  0.00    +0.000 OA
BRANCH   7  11
ATOM     10  C   UNL     1       3.488   3.676  16.808  0.00  0.00    +0.000 C 
ATOM     11  N   UNL     1       3.229   4.369  18.115  0.00  0.00    +0.000 NA
BRANCH  11  12
ATOM     12  C   UNL     1       3.293   3.365  19.278  0.00  0.00    +0.000 C 
ATOM     13  C   UNL     1       2.677   3.839  20.610  0.00  0.00    +0.000 C 
ATOM     14  C   UNL     1       1.151   3.984  20.591  0.00  0.00    +0.000 C 
ATOM     15  C   UNL     1       0.431   2.761  20.025  0.00  0.00    +0.000 C 
ATOM     16  C   UNL     1       1.063   2.272  18.728  0.00  0.00    +0.000 C 
ATOM     17  C   UNL     1       2.562   2.049  18.915  0.00  0.00    +0.000 C 
ENDBRANCH  11  12
ENDBRANCH   7  11
ENDBRANCH   1   7
BRANCH   4  18
ATOM     18  S   UNL     1       0.153  10.394  19.552  0.00  0.00    +0.000 S 
BRANCH  18  19
ATOM     19  C   UNL     1       1.263  11.829  19.716  0.00  0.00    +0.000 C 
BRANCH  19  20
ATOM     20  C   UNL     1       1.210  12.786  18.542  0.00  0.00    +0.000 C 
ATOM     21  N   UNL     1       2.241  12.747  17.652  0.00  0.00    +0.000 N 
ATOM     22  O   UNL     1       0.237  13.514  18.328  0.00  0.00    +0.000 OA
ATOM     23  H   UNL     1       3.145  12.388  17.949  0.00  0.00    +0.000 HD
ATOM     24  H   UNL     1       2.239  13.443  16.919  0.00  0.00    +0.000 HD
ENDBRANCH  19  20
ENDBRANCH  18  19
ENDBRANCH   4  18
TORSDOF 6
ENDMDL
MODEL 9
REMARK VINA RESULT:      -6.5      4.505      8.148
REMARK  Name = 
REMARK  7 active torsions:
REMARK  status: ('A' for Active; 'I' for Inactive)
REMARK    1  A    between atoms: C_1  and  N_2
REMARK    2  A    between atoms: N_2  and  C_3
REMARK    3  A    between atoms: N_2  and  S_9
REMARK    4  A    between atoms: S_9  and  C_12
REMARK    5  A    between atoms: C_15  and  S_16
REMARK    6  A    between atoms: S_16  and  C_17
REMARK    7  A    between atoms: C_17  and  C_18
REMARK                            x       y       z     vdW  Elec       q    Type
REMARK                         _______ _______ _______ _____ _____    ______ ____
ROOT
ATOM      1  C   UNL     1       2.486   6.264  18.776  0.00  0.00    +0.000 A 
ATOM      2  C   UNL     1       2.394   7.199  17.747  0.00  0.00    +0.000 A 
ATOM      3  C   UNL     1       1.941   8.489  18.042  0.00  0.00    +0.000 A 
ATOM      4  C   UNL     1       1.577   8.789  19.351  0.00  0.00    +0.000 A 
ATOM      5  N   UNL     1       1.672   7.890  20.360  0.00  0.00    +0.000 NA
ATOM      6  C   UNL     1       2.148   6.654  20.058  0.00  0.00    +0.000 A 
ENDROOT
BRANCH   1   7
ATOM      7  S   UNL     1       3.085   4.617  18.513  0.00  0.00    +0.000 S 
ATOM      8  O   UNL     1       2.775   4.312  17.137  0.00  0.00    +0.000 OA
ATOM      9  O   UNL     1       2.599   3.790  19.597  0.00  0.00    +0.000 OA
BRANCH   7  11
ATOM     10  C   UNL     1       5.324   3.693  19.644  0.00  0.00    +0.000 C 
ATOM     11  N   UNL     1       4.812   4.753  18.709  0.00  0.00    +0.000 NA
BRANCH  11  12
ATOM     12  C   UNL     1       5.640   4.772  17.414  0.00  0.00    +0.000 C 
ATOM     13  C   UNL     1       5.490   6.034  16.540  0.00  0.00    +0.000 C 
ATOM     14  C   UNL     1       6.091   7.306  17.147  0.00  0.00    +0.000 C 
ATOM     15  C   UNL     1       7.520   7.121  17.652  0.00  0.00    +0.000 C 
ATOM     16  C   UNL     1       7.676   5.856  18.487  0.00  0.00    +0.000 C 
ATOM     17  C   UNL     1       7.152   4.643  17.720  0.00  0.00    +0.000 C 
ENDBRANCH  11  12
ENDBRANCH   7  11
ENDBRANCH   1   7
BRANCH   4  18
ATOM     18  S   UNL     1       0.986  10.399  19.825  0.00  0.00    +0.000 S 
BRANCH  18  19
ATOM     19  C   UNL     1      -0.310  10.673  18.575  0.00  0.00    +0.000 C 
BRANCH  19  20
ATOM     20  C   UNL     1      -0.956  12.042  18.649  0.00  0.00    +0.000 C 
ATOM     21  N   UNL     1      -1.123  12.723  17.480  0.00  0.00    +0.000 N 
ATOM     22  O   UNL     1      -1.405  12.503  19.701  0.00  0.00    +0.000 OA
ATOM     23  H   UNL     1      -0.527  12.506  16.685  0.00  0.00    +0.000 HD
ATOM     24  H   UNL     1      -1.478  13.667  17.547  0.00  0.00    +0.000 HD
ENDBRANCH  19  20
ENDBRANCH  18  19
ENDBRANCH   4  18
TORSDOF 6
ENDMDL
