MODEL 1
REMARK VINA RESULT:      -8.1      0.000      0.000
REMARK  Name = 
REMARK  10 active torsions:
REMARK  status: ('A' for Active; 'I' for Inactive)
REMARK    1  A    between atoms: C_1  and  O_2
REMARK    2  A    between atoms: O_2  and  C_3
REMARK    3  A    between atoms: N_9  and  C_10
REMARK    4  A    between atoms: C_10  and  C_11
REMARK    5  A    between atoms: C_11  and  C_12
REMARK    6  A    between atoms: C_12  and  C_13
REMARK    7  A    between atoms: N_15  and  C_16
REMARK    8  A    between atoms: C_16  and  C_17
REMARK    9  A    between atoms: C_27  and  O_28
REMARK   10  A    between atoms: O_28  and  C_29
REMARK                            x       y       z     vdW  Elec       q    Type
REMARK                         _______ _______ _______ _____ _____    ______ ____
ROOT
ATOM      1  C   UNL     1       6.736   5.523  16.841  0.00  0.00    +0.000 A 
ATOM      2  C   UNL     1       6.623   4.863  18.079  0.00  0.00    +0.000 A 
ATOM      3  C   UNL     1       5.527   4.038  18.343  0.00  0.00    +0.000 A 
ATOM      4  N   UNL     1       5.375   3.417  19.581  0.00  0.00    +0.000 N 
ATOM      5  C   UNL     1       4.332   2.589  19.908  0.00  0.00    +0.000 A 
ATOM      6  O   UNL     1       4.266   2.138  21.050  0.00  0.00    +0.000 OA
ATOM      7  N   UNL     1       3.407   2.315  18.912  0.00  0.00    +0.000 N 
ATOM      8  C   UNL     1       3.410   2.964  17.674  0.00  0.00    +0.000 A 
ATOM      9  O   UNL     1       2.507   2.873  16.848  0.00  0.00    +0.000 OA
ATOM     10  C   UNL     1       4.563   3.847  17.372  0.00  0.00    +0.000 A 
ATOM     11  C   UNL     1       4.670   4.475  16.129  0.00  0.00    +0.000 A 
ATOM     12  C   UNL     1       5.766   5.320  15.844  0.00  0.00    +0.000 A 
ATOM     13  H   UNL     1       6.048   3.577  20.319  0.00  0.00    +0.000 HD
ENDROOT
BRANCH   1  15
ATOM     14  C   UNL     1       7.877   7.527  17.442  0.00  0.00    +0.000 C 
ATOM     15  O   UNL     1       7.871   6.292  16.725  0.00  0.00    +0.000 OA
ENDBRANCH   1  15
BRANCH  12  16
ATOM     16  O   UNL     1       5.951   5.936  14.639  0.00  0.00    +0.000 OA
ATOM     17  C   UNL     1       6.687   5.264  13.626  0.00  0.00    +0.000 C 
ENDBRANCH  12  16
BRANCH   7  18
ATOM     18  C   UNL     1       2.246   1.448  19.246  0.00  0.00    +0.000 C 
BRANCH  18  19
ATOM     19  C   UNL     1       1.214   2.281  19.987  0.00  0.00    +0.000 C 
BRANCH  19  20
ATOM     20  C   UNL     1       1.030   3.771  19.840  0.00  0.00    +0.000 C 
BRANCH  20  21
ATOM     21  C   UNL     1       1.939   4.587  20.773  0.00  0.00    +0.000 C 
ATOM     22  O   UNL     1       2.057   4.233  21.955  0.00  0.00    +0.000 OA
ATOM     23  N   UNL     1       2.639   5.698  20.415  0.00  0.00    +0.000 N 
ATOM     24  H   UNL     1       3.174   6.047  21.201  0.00  0.00    +0.000 HD
BRANCH  23  25
ATOM     25  C   UNL     1       2.838   6.465  19.191  0.00  0.00    +0.000 C 
BRANCH  25  26
ATOM     26  C   UNL     1       2.115   7.788  19.126  0.00  0.00    +0.000 A 
ATOM     27  C   UNL     1       1.996   8.562  17.964  0.00  0.00    +0.000 A 
ATOM     28  C   UNL     1       1.343   9.797  18.006  0.00  0.00    +0.000 A 
ATOM     29  C   UNL     1       0.788  10.260  19.198  0.00  0.00    +0.000 A 
ATOM     30  C   UNL     1       0.849   9.475  20.344  0.00  0.00    +0.000 A 
ATOM     31  C   UNL     1       1.502   8.245  20.305  0.00  0.00    +0.000 A 
ENDBRANCH  25  26
ENDBRANCH  23  25
ENDBRANCH  20  21
ENDBRANCH  19  20
ENDBRANCH  18  19
ENDBRANCH   7  18
TORSDOF 8
ENDMDL
MODEL 2
REMARK VINA RESULT:      -8.1      1.337      2.640
REMARK  Name = 
REMARK  10 active torsions:
REMARK  status: ('A' for Active; 'I' for Inactive)
REMARK    1  A    between atoms: C_1  and  O_2
REMARK    2  A    between atoms: O_2  and  C_3
REMARK    3  A    between atoms: N_9  and  C_10
REMARK    4  A    between atoms: C_10  and  C_11
REMARK    5  A    between atoms: C_11  and  C_12
REMARK    6  A    between atoms: C_12  and  C_13
REMARK    7  A    between atoms: N_15  and  C_16
REMARK    8  A    between atoms: C_16  and  C_17
REMARK    9  A    between atoms: C_27  and  O_28
REMARK   10  A    between atoms: O_28  and  C_29
REMARK                            x       y       z     vdW  Elec       q    Type
REMARK                         _______ _______ _______ _____ _____    ______ ____
ROOT
ATOM      1  C   UNL     1       6.581   5.259  15.538  0.00  0.00    +0.000 A 
ATOM      2  C   UNL     1       5.699   4.168  15.643  0.00  0.00    +0.000 A 
ATOM      3  C   UNL     1       5.242   3.746  16.894  0.00  0.00    +0.000 A 
ATOM      4  N   UNL     1       4.407   2.638  17.019  0.00  0.00    +0.000 N 
ATOM      5  C   UNL     1       3.913   2.172  18.211  0.00  0.00    +0.000 A 
ATOM      6  O   UNL     1       3.229   1.150  18.213  0.00  0.00    +0.000 OA
ATOM      7  N   UNL     1       4.227   2.897  19.351  0.00  0.00    +0.000 N 
ATOM      8  C   UNL     1       5.137   3.958  19.349  0.00  0.00    +0.000 A 
ATOM      9  O   UNL     1       5.565   4.498  20.365  0.00  0.00    +0.000 OA
ATOM     10  C   UNL     1       5.638   4.422  18.032  0.00  0.00    +0.000 A 
ATOM     11  C   UNL     1       6.495   5.522  17.946  0.00  0.00    +0.000 A 
ATOM     12  C   UNL     1       6.975   5.960  16.692  0.00  0.00    +0.000 A 
ATOM     13  H   UNL     1       4.140   2.104  16.202  0.00  0.00    +0.000 HD
ENDROOT
BRANCH   1  15
ATOM     14  C   UNL     1       6.976   4.470  13.325  0.00  0.00    +0.000 C 
ATOM     15  O   UNL     1       6.937   5.562  14.244  0.00  0.00    +0.000 OA
ENDBRANCH   1  15
BRANCH  12  16
ATOM     16  O   UNL     1       7.786   7.048  16.532  0.00  0.00    +0.000 OA
ATOM     17  C   UNL     1       7.779   8.066  17.523  0.00  0.00    +0.000 C 
ENDBRANCH  12  16
BRANCH   7  18
ATOM     18  C   UNL     1       3.735   2.398  20.662  0.00  0.00    +0.000 C 
BRANCH  18  19
ATOM     19  C   UNL     1       2.562   3.257  21.101  0.00  0.00    +0.000 C 
BRANCH  19  20
ATOM     20  C   UNL     1       1.235   3.347  20.388  0.00  0.00    +0.000 C 
BRANCH  20  21
ATOM     21  C   UNL     1       1.325   4.071  19.034  0.00  0.00    +0.000 C 
ATOM     22  O   UNL     1       0.880   3.509  18.024  0.00  0.00    +0.000 OA
ATOM     23  N   UNL     1       1.871   5.301  18.835  0.00  0.00    +0.000 N 
ATOM     24  H   UNL     1       1.799   5.567  17.861  0.00  0.00    +0.000 HD
BRANCH  23  25
ATOM     25  C   UNL     1       2.482   6.328  19.673  0.00  0.00    +0.000 C 
BRANCH  25  26
ATOM     26  C   UNL     1       1.974   7.732  19.457  0.00  0.00    +0.000 A 
ATOM     27  C   UNL     1       1.309   8.486  20.431  0.00  0.00    +0.000 A 
ATOM     28  C   UNL     1       0.835   9.766  20.129  0.00  0.00    +0.000 A 
ATOM     29  C   UNL     1       1.038  10.311  18.862  0.00  0.00    +0.000 A 
ATOM     30  C   UNL     1       1.749   9.595  17.903  0.00  0.00    +0.000 A 
ATOM     31  C   UNL     1       2.218   8.318  18.202  0.00  0.00    +0.000 A 
ENDBRANCH  25  26
ENDBRANCH  23  25
ENDBRANCH  20  21
ENDBRANCH  19  20
ENDBRANCH  18  19
ENDBRANCH   7  18
TORSDOF 8
ENDMDL
MODEL 3
REMARK VINA RESULT:      -8.0      3.089      7.400
REMARK  Name = 
REMARK  10 active torsions:
REMARK  status: ('A' for Active; 'I' for Inactive)
REMARK    1  A    between atoms: C_1  and  O_2
REMARK    2  A    between atoms: O_2  and  C_3
REMARK    3  A    between atoms: N_9  and  C_10
REMARK    4  A    between atoms: C_10  and  C_11
REMARK    5  A    between atoms: C_11  and  C_12
REMARK    6  A    between atoms: C_12  and  C_13
REMARK    7  A    between atoms: N_15  and  C_16
REMARK    8  A    between atoms: C_16  and  C_17
REMARK    9  A    between atoms: C_27  and  O_28
REMARK   10  A    between atoms: O_28  and  C_29
REMARK                            x       y       z     vdW  Elec       q    Type
REMARK                         _______ _______ _______ _____ _____    ______ ____
ROOT
ATOM      1  C   UNL     1      -0.330  11.221  21.094  0.00  0.00    +0.000 A 
ATOM      2  C   UNL     1       0.199   9.981  21.498  0.00  0.00    +0.000 A 
ATOM      3  C   UNL     1       0.879   9.172  20.585  0.00  0.00    +0.000 A 
ATOM      4  N   UNL     1       1.366   7.920  20.954  0.00  0.00    +0.000 N 
ATOM      5  C   UNL     1       2.050   7.077  20.117  0.00  0.00    +0.000 A 
ATOM      6  O   UNL     1       2.386   5.968  20.531  0.00  0.00    +0.000 OA
ATOM      7  N   UNL     1       2.318   7.539  18.837  0.00  0.00    +0.000 N 
ATOM      8  C   UNL     1       1.788   8.731  18.334  0.00  0.00    +0.000 A 
ATOM      9  O   UNL     1       1.862   9.074  17.158  0.00  0.00    +0.000 OA
ATOM     10  C   UNL     1       1.059   9.605  19.285  0.00  0.00    +0.000 A 
ATOM     11  C   UNL     1       0.561  10.844  18.872  0.00  0.00    +0.000 A 
ATOM     12  C   UNL     1      -0.137  11.674  19.777  0.00  0.00    +0.000 A 
ATOM     13  H   UNL     1       1.209   7.566  21.890  0.00  0.00    +0.000 HD
ENDROOT
BRANCH   1  15
ATOM     14  C   UNL     1      -1.485  11.121  23.176  0.00  0.00    +0.000 C 
ATOM     15  O   UNL     1      -0.965  11.907  22.103  0.00  0.00    +0.000 OA
ENDBRANCH   1  15
BRANCH  12  16
ATOM     16  O   UNL     1      -0.618  12.910  19.451  0.00  0.00    +0.000 OA
ATOM     17  C   UNL     1      -0.089  13.579  18.313  0.00  0.00    +0.000 C 
ENDBRANCH  12  16
BRANCH   7  18
ATOM     18  C   UNL     1       3.027   6.635  17.894  0.00  0.00    +0.000 C 
BRANCH  18  19
ATOM     19  C   UNL     1       4.500   6.601  18.266  0.00  0.00    +0.000 C 
BRANCH  19  20
ATOM     20  C   UNL     1       5.589   5.946  17.452  0.00  0.00    +0.000 C 
BRANCH  20  21
ATOM     21  C   UNL     1       6.072   4.615  18.051  0.00  0.00    +0.000 C 
ATOM     22  O   UNL     1       7.218   4.550  18.518  0.00  0.00    +0.000 OA
ATOM     23  N   UNL     1       5.342   3.468  18.110  0.00  0.00    +0.000 N 
ATOM     24  H   UNL     1       5.873   2.734  18.562  0.00  0.00    +0.000 HD
BRANCH  23  25
ATOM     25  C   UNL     1       3.994   3.060  17.730  0.00  0.00    +0.000 C 
BRANCH  25  26
ATOM     26  C   UNL     1       3.006   2.942  18.863  0.00  0.00    +0.000 A 
ATOM     27  C   UNL     1       1.617   3.031  18.707  0.00  0.00    +0.000 A 
ATOM     28  C   UNL     1       0.776   2.951  19.822  0.00  0.00    +0.000 A 
ATOM     29  C   UNL     1       1.312   2.764  21.095  0.00  0.00    +0.000 A 
ATOM     30  C   UNL     1       2.686   2.616  21.257  0.00  0.00    +0.000 A 
ATOM     31  C   UNL     1       3.525   2.698  20.147  0.00  0.00    +0.000 A 
ENDBRANCH  25  26
ENDBRANCH  23  25
ENDBRANCH  20  21
ENDBRANCH  19  20
ENDBRANCH  18  19
ENDBRANCH   7  18
TORSDOF 8
ENDMDL
MODEL 4
REMARK VINA RESULT:      -7.8      3.058      7.405
REMARK  Name = 
REMARK  10 active torsions:
REMARK  status: ('A' for Active; 'I' for Inactive)
REMARK    1  A    between atoms: C_1  and  O_2
REMARK    2  A    between atoms: O_2  and  C_3
REMARK    3  A    between atoms: N_9  and  C_10
REMARK    4  A    between atoms: C_10  and  C_11
REMARK    5  A    between atoms: C_11  and  C_12
REMARK    6  A    between atoms: C_12  and  C_13
REMARK    7  A    between atoms: N_15  and  C_16
REMARK    8  A    between atoms: C_16  and  C_17
REMARK    9  A    between atoms: C_27  and  O_28
REMARK   10  A    between atoms: O_28  and  C_29
REMARK                            x       y       z     vdW  Elec       q    Type
REMARK                         _______ _______ _______ _____ _____    ______ ____
ROOT
ATOM      1  C   UNL     1      -0.197  11.694  19.429  0.00  0.00    +0.000 A 
ATOM      2  C   UNL     1       0.639  11.085  18.475  0.00  0.00    +0.000 A 
ATOM      3  C   UNL     1       1.225   9.844  18.739  0.00  0.00    +0.000 A 
ATOM      4  N   UNL     1       2.093   9.249  17.827  0.00  0.00    +0.000 N 
ATOM      5  C   UNL     1       2.697   8.032  18.012  0.00  0.00    +0.000 A 
ATOM      6  O   UNL     1       3.492   7.626  17.167  0.00  0.00    +0.000 OA
ATOM      7  N   UNL     1       2.365   7.332  19.163  0.00  0.00    +0.000 N 
ATOM      8  C   UNL     1       1.588   7.880  20.187  0.00  0.00    +0.000 A 
ATOM      9  O   UNL     1       1.427   7.355  21.285  0.00  0.00    +0.000 OA
ATOM     10  C   UNL     1       0.958   9.199  19.931  0.00  0.00    +0.000 A 
ATOM     11  C   UNL     1       0.112   9.778  20.880  0.00  0.00    +0.000 A 
ATOM     12  C   UNL     1      -0.484  11.035  20.638  0.00  0.00    +0.000 A 
ATOM     13  H   UNL     1       2.335   9.724  16.966  0.00  0.00    +0.000 HD
ENDROOT
BRANCH   1  15
ATOM     14  C   UNL     1       0.081  14.059  19.335  0.00  0.00    +0.000 C 
ATOM     15  O   UNL     1      -0.705  12.907  19.026  0.00  0.00    +0.000 OA
ENDBRANCH   1  15
BRANCH  12  16
ATOM     16  O   UNL     1      -1.348  11.642  21.506  0.00  0.00    +0.000 OA
ATOM     17  C   UNL     1      -1.290  11.307  22.885  0.00  0.00    +0.000 C 
ENDBRANCH  12  16
BRANCH   7  18
ATOM     18  C   UNL     1       3.029   6.025  19.410  0.00  0.00    +0.000 C 
BRANCH  18  19
ATOM     19  C   UNL     1       2.109   4.914  18.933  0.00  0.00    +0.000 C 
BRANCH  19  20
ATOM     20  C   UNL     1       2.284   4.127  17.657  0.00  0.00    +0.000 C 
BRANCH  20  21
ATOM     21  C   UNL     1       3.492   3.176  17.696  0.00  0.00    +0.000 C 
ATOM     22  O   UNL     1       3.374   2.080  18.262  0.00  0.00    +0.000 OA
ATOM     23  N   UNL     1       4.714   3.436  17.157  0.00  0.00    +0.000 N 
ATOM     24  H   UNL     1       5.337   2.650  17.299  0.00  0.00    +0.000 HD
BRANCH  23  25
ATOM     25  C   UNL     1       5.319   4.527  16.402  0.00  0.00    +0.000 C 
BRANCH  25  26
ATOM     26  C   UNL     1       6.274   5.403  17.174  0.00  0.00    +0.000 A 
ATOM     27  C   UNL     1       6.748   6.640  16.720  0.00  0.00    +0.000 A 
ATOM     28  C   UNL     1       7.666   7.366  17.485  0.00  0.00    +0.000 A 
ATOM     29  C   UNL     1       8.103   6.874  18.714  0.00  0.00    +0.000 A 
ATOM     30  C   UNL     1       7.595   5.674  19.203  0.00  0.00    +0.000 A 
ATOM     31  C   UNL     1       6.683   4.948  18.441  0.00  0.00    +0.000 A 
ENDBRANCH  25  26
ENDBRANCH  23  25
ENDBRANCH  20  21
ENDBRANCH  19  20
ENDBRANCH  18  19
ENDBRANCH   7  18
TORSDOF 8
ENDMDL
MODEL 5
REMARK VINA RESULT:      -7.8      3.137      7.354
REMARK  Name = 
REMARK  10 active torsions:
REMARK  status: ('A' for Active; 'I' for Inactive)
REMARK    1  A    between atoms: C_1  and  O_2
REMARK    2  A    between atoms: O_2  and  C_3
REMARK    3  A    between atoms: N_9  and  C_10
REMARK    4  A    between atoms: C_10  and  C_11
REMARK    5  A    between atoms: C_11  and  C_12
REMARK    6  A    between atoms: C_12  and  C_13
REMARK    7  A    between atoms: N_15  and  C_16
REMARK    8  A    between atoms: C_16  and  C_17
REMARK    9  A    between atoms: C_27  and  O_28
REMARK   10  A    between atoms: O_28  and  C_29
REMARK                            x       y       z     vdW  Elec       q    Type
REMARK                         _______ _______ _______ _____ _____    ______ ____
ROOT
ATOM      1  C   UNL     1      -0.210  11.491  20.653  0.00  0.00    +0.000 A 
ATOM      2  C   UNL     1       0.162  10.246  21.193  0.00  0.00    +0.000 A 
ATOM      3  C   UNL     1       0.855   9.316  20.414  0.00  0.00    +0.000 A 
ATOM      4  N   UNL     1       1.189   8.061  20.917  0.00  0.00    +0.000 N 
ATOM      5  C   UNL     1       1.875   7.102  20.215  0.00  0.00    +0.000 A 
ATOM      6  O   UNL     1       2.066   6.005  20.737  0.00  0.00    +0.000 OA
ATOM      7  N   UNL     1       2.310   7.443  18.943  0.00  0.00    +0.000 N 
ATOM      8  C   UNL     1       1.942   8.632  18.307  0.00  0.00    +0.000 A 
ATOM      9  O   UNL     1       2.164   8.877  17.126  0.00  0.00    +0.000 OA
ATOM     10  C   UNL     1       1.202   9.633  19.115  0.00  0.00    +0.000 A 
ATOM     11  C   UNL     1       0.862  10.873  18.569  0.00  0.00    +0.000 A 
ATOM     12  C   UNL     1       0.154  11.824  19.336  0.00  0.00    +0.000 A 
ATOM     13  H   UNL     1       0.907   7.794  21.852  0.00  0.00    +0.000 HD
ENDROOT
BRANCH   1  15
ATOM     14  C   UNL     1      -1.024  11.803  22.870  0.00  0.00    +0.000 C 
ATOM     15  O   UNL     1      -0.879  12.302  21.540  0.00  0.00    +0.000 OA
ENDBRANCH   1  15
BRANCH  12  16
ATOM     16  O   UNL     1      -0.179  13.068  18.878  0.00  0.00    +0.000 OA
ATOM     17  C   UNL     1       0.756  14.128  19.016  0.00  0.00    +0.000 C 
ENDBRANCH  12  16
BRANCH   7  18
ATOM     18  C   UNL     1       3.026   6.414  18.144  0.00  0.00    +0.000 C 
BRANCH  18  19
ATOM     19  C   UNL     1       4.493   6.799  18.057  0.00  0.00    +0.000 C 
BRANCH  19  20
ATOM     20  C   UNL     1       5.598   5.908  17.545  0.00  0.00    +0.000 C 
BRANCH  20  21
ATOM     21  C   UNL     1       6.096   4.900  18.594  0.00  0.00    +0.000 C 
ATOM     22  O   UNL     1       7.113   5.169  19.248  0.00  0.00    +0.000 OA
ATOM     23  N   UNL     1       5.512   3.703  18.872  0.00  0.00    +0.000 N 
ATOM     24  H   UNL     1       6.016   3.227  19.611  0.00  0.00    +0.000 HD
BRANCH  23  25
ATOM     25  C   UNL     1       4.336   2.974  18.409  0.00  0.00    +0.000 C 
BRANCH  25  26
ATOM     26  C   UNL     1       3.185   2.910  19.382  0.00  0.00    +0.000 A 
ATOM     27  C   UNL     1       3.332   2.726  20.763  0.00  0.00    +0.000 A 
ATOM     28  C   UNL     1       2.205   2.637  21.585  0.00  0.00    +0.000 A 
ATOM     29  C   UNL     1       0.926   2.749  21.042  0.00  0.00    +0.000 A 
ATOM     30  C   UNL     1       0.768   2.990  19.681  0.00  0.00    +0.000 A 
ATOM     31  C   UNL     1       1.890   3.076  18.859  0.00  0.00    +0.000 A 
ENDBRANCH  25  26
ENDBRANCH  23  25
ENDBRANCH  20  21
ENDBRANCH  19  20
ENDBRANCH  18  19
ENDBRANCH   7  18
TORSDOF 8
ENDMDL
MODEL 6
REMARK VINA RESULT:      -7.7      3.037      7.105
REMARK  Name = 
REMARK  10 active torsions:
REMARK  status: ('A' for Active; 'I' for Inactive)
REMARK    1  A    between atoms: C_1  and  O_2
REMARK    2  A    between atoms: O_2  and  C_3
REMARK    3  A    between atoms: N_9  and  C_10
REMARK    4  A    between atoms: C_10  and  C_11
REMARK    5  A    between atoms: C_11  and  C_12
REMARK    6  A    between atoms: C_12  and  C_13
REMARK    7  A    between atoms: N_15  and  C_16
REMARK    8  A    between atoms: C_16  and  C_17
REMARK    9  A    between atoms: C_27  and  O_28
REMARK   10  A    between atoms: O_28  and  C_29
REMARK                            x       y       z     vdW  Elec       q    Type
REMARK                         _______ _______ _______ _____ _____    ______ ____
ROOT
ATOM      1  C   UNL     1      -0.260  11.287  20.470  0.00  0.00    +0.000 A 
ATOM      2  C   UNL     1       0.044  10.065  21.099  0.00  0.00    +0.000 A 
ATOM      3  C   UNL     1       0.806   9.100  20.436  0.00  0.00    +0.000 A 
ATOM      4  N   UNL     1       1.076   7.866  21.024  0.00  0.00    +0.000 N 
ATOM      5  C   UNL     1       1.823   6.876  20.439  0.00  0.00    +0.000 A 
ATOM      6  O   UNL     1       1.950   5.801  21.023  0.00  0.00    +0.000 OA
ATOM      7  N   UNL     1       2.389   7.159  19.205  0.00  0.00    +0.000 N 
ATOM      8  C   UNL     1       2.099   8.321  18.484  0.00  0.00    +0.000 A 
ATOM      9  O   UNL     1       2.443   8.513  17.322  0.00  0.00    +0.000 OA
ATOM     10  C   UNL     1       1.288   9.359  19.167  0.00  0.00    +0.000 A 
ATOM     11  C   UNL     1       1.016  10.576  18.536  0.00  0.00    +0.000 A 
ATOM     12  C   UNL     1       0.240  11.561  19.185  0.00  0.00    +0.000 A 
ATOM     13  H   UNL     1       0.697   7.641  21.935  0.00  0.00    +0.000 HD
ENDROOT
BRANCH   1  15
ATOM     14  C   UNL     1      -0.286  13.099  22.017  0.00  0.00    +0.000 C 
ATOM     15  O   UNL     1      -1.010  12.137  21.248  0.00  0.00    +0.000 OA
ENDBRANCH   1  15
BRANCH  12  16
ATOM     16  O   UNL     1      -0.034  12.785  18.642  0.00  0.00    +0.000 OA
ATOM     17  C   UNL     1       0.977  13.784  18.646  0.00  0.00    +0.000 C 
ENDBRANCH  12  16
BRANCH   7  18
ATOM     18  C   UNL     1       3.176   6.093  18.528  0.00  0.00    +0.000 C 
BRANCH  18  19
ATOM     19  C   UNL     1       2.217   5.035  18.011  0.00  0.00    +0.000 C 
BRANCH  19  20
ATOM     20  C   UNL     1       2.587   3.904  17.083  0.00  0.00    +0.000 C 
BRANCH  20  21
ATOM     21  C   UNL     1       3.759   3.055  17.603  0.00  0.00    +0.000 C 
ATOM     22  O   UNL     1       3.522   2.119  18.381  0.00  0.00    +0.000 OA
ATOM     23  N   UNL     1       5.069   3.245  17.287  0.00  0.00    +0.000 N 
ATOM     24  H   UNL     1       5.647   2.549  17.743  0.00  0.00    +0.000 HD
BRANCH  23  25
ATOM     25  C   UNL     1       5.822   4.158  16.435  0.00  0.00    +0.000 C 
BRANCH  25  26
ATOM     26  C   UNL     1       6.587   5.240  17.155  0.00  0.00    +0.000 A 
ATOM     27  C   UNL     1       6.676   6.566  16.713  0.00  0.00    +0.000 A 
ATOM     28  C   UNL     1       7.443   7.495  17.423  0.00  0.00    +0.000 A 
ATOM     29  C   UNL     1       8.109   7.115  18.587  0.00  0.00    +0.000 A 
ATOM     30  C   UNL     1       7.980   5.816  19.069  0.00  0.00    +0.000 A 
ATOM     31  C   UNL     1       7.219   4.888  18.361  0.00  0.00    +0.000 A 
ENDBRANCH  25  26
ENDBRANCH  23  25
ENDBRANCH  20  21
ENDBRANCH  19  20
ENDBRANCH  18  19
ENDBRANCH   7  18
TORSDOF 8
ENDMDL
MODEL 7
REMARK VINA RESULT:      -7.6      2.008      3.178
REMARK  Name = 
REMARK  10 active torsions:
REMARK  status: ('A' for Active; 'I' for Inactive)
REMARK    1  A    between atoms: C_1  and  O_2
REMARK    2  A    between atoms: O_2  and  C_3
REMARK    3  A    between atoms: N_9  and  C_10
REMARK    4  A    between atoms: C_10  and  C_11
REMARK    5  A    between atoms: C_11  and  C_12
REMARK    6  A    between atoms: C_12  and  C_13
REMARK    7  A    between atoms: N_15  and  C_16
REMARK    8  A    between atoms: C_16  and  C_17
REMARK    9  A    between atoms: C_27  and  O_28
REMARK   10  A    between atoms: O_28  and  C_29
REMARK                            x       y       z     vdW  Elec       q    Type
REMARK                         _______ _______ _______ _____ _____    ______ ____
ROOT
ATOM      1  C   UNL     1       7.041   5.253  15.657  0.00  0.00    +0.000 A 
ATOM      2  C   UNL     1       6.091   4.214  15.668  0.00  0.00    +0.000 A 
ATOM      3  C   UNL     1       5.294   3.998  16.795  0.00  0.00    +0.000 A 
ATOM      4  N   UNL     1       4.383   2.945  16.842  0.00  0.00    +0.000 N 
ATOM      5  C   UNL     1       3.563   2.677  17.908  0.00  0.00    +0.000 A 
ATOM      6  O   UNL     1       2.836   1.686  17.866  0.00  0.00    +0.000 OA
ATOM      7  N   UNL     1       3.614   3.556  18.980  0.00  0.00    +0.000 N 
ATOM      8  C   UNL     1       4.561   4.580  19.078  0.00  0.00    +0.000 A 
ATOM      9  O   UNL     1       4.741   5.254  20.087  0.00  0.00    +0.000 OA
ATOM     10  C   UNL     1       5.420   4.826  17.893  0.00  0.00    +0.000 A 
ATOM     11  C   UNL     1       6.341   5.877  17.892  0.00  0.00    +0.000 A 
ATOM     12  C   UNL     1       7.162   6.108  16.766  0.00  0.00    +0.000 A 
ATOM     13  H   UNL     1       4.305   2.302  16.064  0.00  0.00    +0.000 HD
ENDROOT
BRANCH   1  15
ATOM     14  C   UNL     1       7.118   4.791  13.321  0.00  0.00    +0.000 C 
ATOM     15  O   UNL     1       7.743   5.348  14.478  0.00  0.00    +0.000 OA
ENDBRANCH   1  15
BRANCH  12  16
ATOM     16  O   UNL     1       8.058   7.137  16.683  0.00  0.00    +0.000 OA
ATOM     17  C   UNL     1       7.912   8.251  17.554  0.00  0.00    +0.000 C 
ENDBRANCH  12  16
BRANCH   7  18
ATOM     18  C   UNL     1       2.762   3.274  20.165  0.00  0.00    +0.000 C 
BRANCH  18  19
ATOM     19  C   UNL     1       1.602   4.254  20.176  0.00  0.00    +0.000 C 
BRANCH  19  20
ATOM     20  C   UNL     1       1.525   5.503  21.020  0.00  0.00    +0.000 C 
BRANCH  20  21
ATOM     21  C   UNL     1       1.679   6.795  20.202  0.00  0.00    +0.000 C 
ATOM     22  O   UNL     1       2.080   6.720  19.032  0.00  0.00    +0.000 OA
ATOM     23  N   UNL     1       1.415   8.050  20.657  0.00  0.00    +0.000 N 
ATOM     24  H   UNL     1       1.579   8.733  19.927  0.00  0.00    +0.000 HD
BRANCH  23  25
ATOM     25  C   UNL     1       0.921   8.635  21.899  0.00  0.00    +0.000 C 
BRANCH  25  26
ATOM     26  C   UNL     1       0.015   9.831  21.740  0.00  0.00    +0.000 A 
ATOM     27  C   UNL     1      -0.319  10.405  20.507  0.00  0.00    +0.000 A 
ATOM     28  C   UNL     1      -1.133  11.541  20.457  0.00  0.00    +0.000 A 
ATOM     29  C   UNL     1      -1.635  12.100  21.632  0.00  0.00    +0.000 A 
ATOM     30  C   UNL     1      -1.358  11.505  22.858  0.00  0.00    +0.000 A 
ATOM     31  C   UNL     1      -0.544  10.375  22.910  0.00  0.00    +0.000 A 
ENDBRANCH  25  26
ENDBRANCH  23  25
ENDBRANCH  20  21
ENDBRANCH  19  20
ENDBRANCH  18  19
ENDBRANCH   7  18
TORSDOF 8
ENDMDL
MODEL 8
REMARK VINA RESULT:      -7.6      3.215      7.238
REMARK  Name = 
REMARK  10 active torsions:
REMARK  status: ('A' for Active; 'I' for Inactive)
REMARK    1  A    between atoms: C_1  and  O_2
REMARK    2  A    between atoms: O_2  and  C_3
REMARK    3  A    between atoms: N_9  and  C_10
REMARK    4  A    between atoms: C_10  and  C_11
REMARK    5  A    between atoms: C_11  and  C_12
REMARK    6  A    between atoms: C_12  and  C_13
REMARK    7  A    between atoms: N_15  and  C_16
REMARK    8  A    between atoms: C_16  and  C_17
REMARK    9  A    between atoms: C_27  and  O_28
REMARK   10  A    between atoms: O_28  and  C_29
REMARK                            x       y       z     vdW  Elec       q    Type
REMARK                         _______ _______ _______ _____ _____    ______ ____
ROOT
ATOM      1  C   UNL     1       0.483  11.815  20.996  0.00  0.00    +0.000 A 
ATOM      2  C   UNL     1       0.736  10.519  21.481  0.00  0.00    +0.000 A 
ATOM      3  C   UNL     1       1.197   9.519  20.621  0.00  0.00    +0.000 A 
ATOM      4  N   UNL     1       1.407   8.219  21.074  0.00  0.00    +0.000 N 
ATOM      5  C   UNL     1       1.865   7.190  20.291  0.00  0.00    +0.000 A 
ATOM      6  O   UNL     1       1.960   6.066  20.780  0.00  0.00    +0.000 OA
ATOM      7  N   UNL     1       2.194   7.495  18.978  0.00  0.00    +0.000 N 
ATOM      8  C   UNL     1       1.926   8.737  18.397  0.00  0.00    +0.000 A 
ATOM      9  O   UNL     1       2.041   8.975  17.199  0.00  0.00    +0.000 OA
ATOM     10  C   UNL     1       1.433   9.814  19.292  0.00  0.00    +0.000 A 
ATOM     11  C   UNL     1       1.209  11.101  18.796  0.00  0.00    +0.000 A 
ATOM     12  C   UNL     1       0.735  12.124  19.647  0.00  0.00    +0.000 A 
ATOM     13  H   UNL     1       1.201   7.973  22.034  0.00  0.00    +0.000 HD
ENDROOT
BRANCH   1  15
ATOM     14  C   UNL     1      -1.330  13.080  21.884  0.00  0.00    +0.000 C 
ATOM     15  O   UNL     1       0.042  12.691  21.960  0.00  0.00    +0.000 OA
ENDBRANCH   1  15
BRANCH  12  16
ATOM     16  O   UNL     1       0.529  13.411  19.238  0.00  0.00    +0.000 OA
ATOM     17  C   UNL     1       1.602  14.126  18.640  0.00  0.00    +0.000 C 
ENDBRANCH  12  16
BRANCH   7  18
ATOM     18  C   UNL     1       2.661   6.394  18.094  0.00  0.00    +0.000 C 
BRANCH  18  19
ATOM     19  C   UNL     1       4.180   6.404  18.066  0.00  0.00    +0.000 C 
BRANCH  19  20
ATOM     20  C   UNL     1       5.050   5.237  17.668  0.00  0.00    +0.000 C 
BRANCH  20  21
ATOM     21  C   UNL     1       5.740   4.562  18.866  0.00  0.00    +0.000 C 
ATOM     22  O   UNL     1       6.644   5.170  19.457  0.00  0.00    +0.000 OA
ATOM     23  N   UNL     1       5.448   3.323  19.345  0.00  0.00    +0.000 N 
ATOM     24  H   UNL     1       6.027   3.108  20.148  0.00  0.00    +0.000 HD
BRANCH  23  25
ATOM     25  C   UNL     1       4.492   2.269  19.020  0.00  0.00    +0.000 C 
BRANCH  25  26
ATOM     26  C   UNL     1       3.062   2.543  19.413  0.00  0.00    +0.000 A 
ATOM     27  C   UNL     1       2.012   2.696  18.498  0.00  0.00    +0.000 A 
ATOM     28  C   UNL     1       0.722   2.990  18.950  0.00  0.00    +0.000 A 
ATOM     29  C   UNL     1       0.466   3.115  20.315  0.00  0.00    +0.000 A 
ATOM     30  C   UNL     1       1.488   2.908  21.236  0.00  0.00    +0.000 A 
ATOM     31  C   UNL     1       2.774   2.617  20.787  0.00  0.00    +0.000 A 
ENDBRANCH  25  26
ENDBRANCH  23  25
ENDBRANCH  20  21
ENDBRANCH  19  20
ENDBRANCH  18  19
ENDBRANCH   7  18
TORSDOF 8
ENDMDL
MODEL 9
REMARK VINA RESULT:      -7.6      3.624      7.754
REMARK  Name = 
REMARK  10 active torsions:
REMARK  status: ('A' for Active; 'I' for Inactive)
REMARK    1  A    between atoms: C_1  and  O_2
REMARK    2  A    between atoms: O_2  and  C_3
REMARK    3  A    between atoms: N_9  and  C_10
REMARK    4  A    between atoms: C_10  and  C_11
REMARK    5  A    between atoms: C_11  and  C_12
REMARK    6  A    between atoms: C_12  and  C_13
REMARK    7  A    between atoms: N_15  and  C_16
REMARK    8  A    between atoms: C_16  and  C_17
REMARK    9  A    between atoms: C_27  and  O_28
REMARK   10  A    between atoms: O_28  and  C_29
REMARK                            x       y       z     vdW  Elec       q    Type
REMARK                         _______ _______ _______ _____ _____    ______ ____
ROOT
ATOM      1  C   UNL     1       0.022  10.171  21.021  0.00  0.00    +0.000 A 
ATOM      2  C   UNL     1       0.559   8.914  21.356  0.00  0.00    +0.000 A 
ATOM      3  C   UNL     1       1.323   8.203  20.428  0.00  0.00    +0.000 A 
ATOM      4  N   UNL     1       1.821   6.937  20.725  0.00  0.00    +0.000 N 
ATOM      5  C   UNL     1       2.586   6.184  19.870  0.00  0.00    +0.000 A 
ATOM      6  O   UNL     1       2.925   5.053  20.213  0.00  0.00    +0.000 OA
ATOM      7  N   UNL     1       2.925   6.761  18.655  0.00  0.00    +0.000 N 
ATOM      8  C   UNL     1       2.395   7.978  18.218  0.00  0.00    +0.000 A 
ATOM      9  O   UNL     1       2.538   8.422  17.082  0.00  0.00    +0.000 OA
ATOM     10  C   UNL     1       1.577   8.750  19.185  0.00  0.00    +0.000 A 
ATOM     11  C   UNL     1       1.072  10.007  18.843  0.00  0.00    +0.000 A 
ATOM     12  C   UNL     1       0.290  10.739  19.763  0.00  0.00    +0.000 A 
ATOM     13  H   UNL     1       1.612   6.500  21.614  0.00  0.00    +0.000 HD
ENDROOT
BRANCH   1  15
ATOM     14  C   UNL     1      -0.619  10.122  23.316  0.00  0.00    +0.000 C 
ATOM     15  O   UNL     1      -0.700  10.753  22.037  0.00  0.00    +0.000 OA
ENDBRANCH   1  15
BRANCH  12  16
ATOM     16  O   UNL     1      -0.205  11.988  19.508  0.00  0.00    +0.000 OA
ATOM     17  C   UNL     1       0.544  12.872  18.686  0.00  0.00    +0.000 C 
ENDBRANCH  12  16
BRANCH   7  18
ATOM     18  C   UNL     1       3.724   5.958  17.692  0.00  0.00    +0.000 C 
BRANCH  18  19
ATOM     19  C   UNL     1       5.198   6.234  17.932  0.00  0.00    +0.000 C 
BRANCH  19  20
ATOM     20  C   UNL     1       6.017   7.276  17.211  0.00  0.00    +0.000 C 
BRANCH  20  21
ATOM     21  C   UNL     1       7.511   7.228  17.575  0.00  0.00    +0.000 C 
ATOM     22  O   UNL     1       8.096   6.137  17.560  0.00  0.00    +0.000 OA
ATOM     23  N   UNL     1       8.268   8.302  17.929  0.00  0.00    +0.000 N 
ATOM     24  H   UNL     1       9.224   8.017  18.107  0.00  0.00    +0.000 HD
BRANCH  23  25
ATOM     25  C   UNL     1       8.055   9.739  18.068  0.00  0.00    +0.000 C 
BRANCH  25  26
ATOM     26  C   UNL     1       9.231  10.524  18.591  0.00  0.00    +0.000 A 
ATOM     27  C   UNL     1      10.266  11.018  17.786  0.00  0.00    +0.000 A 
ATOM     28  C   UNL     1      11.341  11.702  18.362  0.00  0.00    +0.000 A 
ATOM     29  C   UNL     1      11.383  11.914  19.739  0.00  0.00    +0.000 A 
ATOM     30  C   UNL     1      10.334  11.479  20.542  0.00  0.00    +0.000 A 
ATOM     31  C   UNL     1       9.263  10.795  19.970  0.00  0.00    +0.000 A 
ENDBRANCH  25  26
ENDBRANCH  23  25
ENDBRANCH  20  21
ENDBRANCH  19  20
ENDBRANCH  18  19
ENDBRANCH   7  18
TORSDOF 8
ENDMDL
