MODEL 1
REMARK VINA RESULT:      -9.3      0.000      0.000
REMARK  Name = 
REMARK  3 active torsions:
REMARK  status: ('A' for Active; 'I' for Inactive)
REMARK    1  A    between atoms: C_11  and  C_12
REMARK    2  A    between atoms: N_21  and  C_22
REMARK    3  A    between atoms: C_22  and  C_23
REMARK                            x       y       z     vdW  Elec       q    Type
REMARK                         _______ _______ _______ _____ _____    ______ ____
ROOT
ATOM      1  O   UNL     1       4.358   2.687  19.042  0.00  0.00    +0.000 OA
ATOM      2  C   UNL     1       4.019   3.828  18.738  0.00  0.00    +0.000 A 
ATOM      3  C   UNL     1       4.517   4.477  17.550  0.00  0.00    +0.000 A 
ATOM      4  C   UNL     1       5.349   4.033  16.551  0.00  0.00    +0.000 A 
ATOM      5  N   UNL     1       5.492   5.092  15.700  0.00  0.00    +0.000 N 
ATOM      6  N   UNL     1       4.813   6.189  16.085  0.00  0.00    +0.000 NA
ATOM      7  C   UNL     1       4.212   5.801  17.215  0.00  0.00    +0.000 A 
ATOM      8  C   UNL     1       3.356   6.599  18.060  0.00  0.00    +0.000 A 
ATOM      9  C   UNL     1       3.082   7.933  17.740  0.00  0.00    +0.000 A 
ATOM     10  C   UNL     1       2.283   8.699  18.584  0.00  0.00    +0.000 A 
ATOM     11  C   UNL     1       1.750   8.157  19.763  0.00  0.00    +0.000 A 
ATOM     12  C   UNL     1       2.018   6.793  20.046  0.00  0.00    +0.000 A 
ATOM     13  C   UNL     1       2.828   5.992  19.224  0.00  0.00    +0.000 A 
ATOM     14  N   UNL     1       3.148   4.606  19.537  0.00  0.00    +0.000 N 
ATOM     15  H   UNL     1       6.038   5.139  14.845  0.00  0.00    +0.000 HD
ENDROOT
BRANCH  11  16
ATOM     16  C   UNL     1       0.938   8.971  20.695  0.00  0.00    +0.000 A 
ATOM     17  C   UNL     1       0.887   8.725  22.071  0.00  0.00    +0.000 A 
ATOM     18  C   UNL     1       0.096   9.533  22.885  0.00  0.00    +0.000 A 
ATOM     19  C   UNL     1      -0.639  10.561  22.310  0.00  0.00    +0.000 A 
ATOM     20  C   UNL     1      -0.548  10.724  20.941  0.00  0.00    +0.000 A 
ATOM     21 CL   UNL     1      -1.454  11.938  20.138  0.00  0.00    +0.000 Cl
ATOM     22  N   UNL     1       0.211   9.963  20.126  0.00  0.00    +0.000 NA
ENDBRANCH  11  16
BRANCH  14  23
ATOM     23  C   UNL     1       2.717   3.957  20.787  0.00  0.00    +0.000 C 
BRANCH  23  24
ATOM     24  C   UNL     1       1.374   3.207  20.758  0.00  0.00    +0.000 C 
ATOM     25  F   UNL     1       0.329   3.968  20.375  0.00  0.00    +0.000 F 
ATOM     26  F   UNL     1       1.435   2.129  19.943  0.00  0.00    +0.000 F 
ATOM     27  F   UNL     1       1.080   2.736  21.999  0.00  0.00    +0.000 F 
ENDBRANCH  23  24
ENDBRANCH  14  23
TORSDOF 3
ENDMDL
MODEL 2
REMARK VINA RESULT:      -9.0      1.132      1.408
REMARK  Name = 
REMARK  3 active torsions:
REMARK  status: ('A' for Active; 'I' for Inactive)
REMARK    1  A    between atoms: C_11  and  C_12
REMARK    2  A    between atoms: N_21  and  C_22
REMARK    3  A    between atoms: C_22  and  C_23
REMARK                            x       y       z     vdW  Elec       q    Type
REMARK                         _______ _______ _______ _____ _____    ______ ____
ROOT
ATOM      1  O   UNL     1       4.457   2.726  19.289  0.00  0.00    +0.000 OA
ATOM      2  C   UNL     1       4.162   3.827  18.831  0.00  0.00    +0.000 A 
ATOM      3  C   UNL     1       4.770   4.338  17.628  0.00  0.00    +0.000 A 
ATOM      4  C   UNL     1       5.681   3.782  16.761  0.00  0.00    +0.000 A 
ATOM      5  N   UNL     1       5.912   4.739  15.814  0.00  0.00    +0.000 N 
ATOM      6  N   UNL     1       5.217   5.874  16.014  0.00  0.00    +0.000 NA
ATOM      7  C   UNL     1       4.514   5.618  17.123  0.00  0.00    +0.000 A 
ATOM      8  C   UNL     1       3.599   6.509  17.795  0.00  0.00    +0.000 A 
ATOM      9  C   UNL     1       3.373   7.800  17.307  0.00  0.00    +0.000 A 
ATOM     10  C   UNL     1       2.514   8.658  17.987  0.00  0.00    +0.000 A 
ATOM     11  C   UNL     1       1.873   8.253  19.167  0.00  0.00    +0.000 A 
ATOM     12  C   UNL     1       2.096   6.928  19.622  0.00  0.00    +0.000 A 
ATOM     13  C   UNL     1       2.963   6.037  18.969  0.00  0.00    +0.000 A 
ATOM     14  N   UNL     1       3.236   4.693  19.459  0.00  0.00    +0.000 N 
ATOM     15  H   UNL     1       6.531   4.688  15.011  0.00  0.00    +0.000 HD
ENDROOT
BRANCH  11  16
ATOM     16  C   UNL     1       0.994   9.169  19.928  0.00  0.00    +0.000 A 
ATOM     17  C   UNL     1       0.297  10.224  19.331  0.00  0.00    +0.000 A 
ATOM     18  C   UNL     1      -0.509  11.047  20.115  0.00  0.00    +0.000 A 
ATOM     19  C   UNL     1      -0.594  10.810  21.480  0.00  0.00    +0.000 A 
ATOM     20  C   UNL     1       0.143   9.760  21.994  0.00  0.00    +0.000 A 
ATOM     21 CL   UNL     1       0.135   9.421  23.674  0.00  0.00    +0.000 Cl
ATOM     22  N   UNL     1       0.927   8.943  21.263  0.00  0.00    +0.000 NA
ENDBRANCH  11  16
BRANCH  14  23
ATOM     23  C   UNL     1       2.688   4.190  20.731  0.00  0.00    +0.000 C 
BRANCH  23  24
ATOM     24  C   UNL     1       1.348   3.436  20.665  0.00  0.00    +0.000 C 
ATOM     25  F   UNL     1       0.297   4.214  20.334  0.00  0.00    +0.000 F 
ATOM     26  F   UNL     1       1.409   2.409  19.786  0.00  0.00    +0.000 F 
ATOM     27  F   UNL     1       1.064   2.891  21.877  0.00  0.00    +0.000 F 
ENDBRANCH  23  24
ENDBRANCH  14  23
TORSDOF 3
ENDMDL
MODEL 3
REMARK VINA RESULT:      -8.3      1.156      1.407
REMARK  Name = 
REMARK  3 active torsions:
REMARK  status: ('A' for Active; 'I' for Inactive)
REMARK    1  A    between atoms: C_11  and  C_12
REMARK    2  A    between atoms: N_21  and  C_22
REMARK    3  A    between atoms: C_22  and  C_23
REMARK                            x       y       z     vdW  Elec       q    Type
REMARK                         _______ _______ _______ _____ _____    ______ ____
ROOT
ATOM      1  O   UNL     1       3.714   1.887  17.864  0.00  0.00    +0.000 OA
ATOM      2  C   UNL     1       3.698   3.107  17.723  0.00  0.00    +0.000 A 
ATOM      3  C   UNL     1       4.598   3.778  16.818  0.00  0.00    +0.000 A 
ATOM      4  C   UNL     1       5.548   3.293  15.952  0.00  0.00    +0.000 A 
ATOM      5  N   UNL     1       6.111   4.395  15.374  0.00  0.00    +0.000 N 
ATOM      6  N   UNL     1       5.592   5.558  15.812  0.00  0.00    +0.000 NA
ATOM      7  C   UNL     1       4.661   5.171  16.692  0.00  0.00    +0.000 A 
ATOM      8  C   UNL     1       3.799   6.024  17.475  0.00  0.00    +0.000 A 
ATOM      9  C   UNL     1       3.889   7.416  17.370  0.00  0.00    +0.000 A 
ATOM     10  C   UNL     1       3.075   8.224  18.158  0.00  0.00    +0.000 A 
ATOM     11  C   UNL     1       2.166   7.666  19.068  0.00  0.00    +0.000 A 
ATOM     12  C   UNL     1       2.074   6.252  19.130  0.00  0.00    +0.000 A 
ATOM     13  C   UNL     1       2.885   5.403  18.359  0.00  0.00    +0.000 A 
ATOM     14  N   UNL     1       2.830   3.951  18.455  0.00  0.00    +0.000 N 
ATOM     15  H   UNL     1       6.852   4.430  14.680  0.00  0.00    +0.000 HD
ENDROOT
BRANCH  11  16
ATOM     16  C   UNL     1       1.327   8.511  19.948  0.00  0.00    +0.000 A 
ATOM     17  C   UNL     1       1.077   8.199  21.287  0.00  0.00    +0.000 A 
ATOM     18  C   UNL     1       0.273   9.042  22.052  0.00  0.00    +0.000 A 
ATOM     19  C   UNL     1      -0.276  10.172  21.462  0.00  0.00    +0.000 A 
ATOM     20  C   UNL     1       0.004  10.397  20.127  0.00  0.00    +0.000 A 
ATOM     21 CL   UNL     1      -0.666  11.743  19.304  0.00  0.00    +0.000 Cl
ATOM     22  N   UNL     1       0.781   9.605  19.362  0.00  0.00    +0.000 NA
ENDBRANCH  11  16
BRANCH  14  23
ATOM     23  C   UNL     1       1.977   3.255  19.434  0.00  0.00    +0.000 C 
BRANCH  23  24
ATOM     24  C   UNL     1       2.527   3.111  20.864  0.00  0.00    +0.000 C 
ATOM     25  F   UNL     1       3.777   2.608  20.922  0.00  0.00    +0.000 F 
ATOM     26  F   UNL     1       2.518   4.299  21.512  0.00  0.00    +0.000 F 
ATOM     27  F   UNL     1       1.735   2.272  21.582  0.00  0.00    +0.000 F 
ENDBRANCH  23  24
ENDBRANCH  14  23
TORSDOF 3
ENDMDL
MODEL 4
REMARK VINA RESULT:      -8.2      1.520      1.932
REMARK  Name = 
REMARK  3 active torsions:
REMARK  status: ('A' for Active; 'I' for Inactive)
REMARK    1  A    between atoms: C_11  and  C_12
REMARK    2  A    between atoms: N_21  and  C_22
REMARK    3  A    between atoms: C_22  and  C_23
REMARK                            x       y       z     vdW  Elec       q    Type
REMARK                         _______ _______ _______ _____ _____    ______ ____
ROOT
ATOM      1  O   UNL     1       3.743   2.288  17.824  0.00  0.00    +0.000 OA
ATOM      2  C   UNL     1       3.748   3.501  17.630  0.00  0.00    +0.000 A 
ATOM      3  C   UNL     1       4.746   4.133  16.805  0.00  0.00    +0.000 A 
ATOM      4  C   UNL     1       5.786   3.612  16.072  0.00  0.00    +0.000 A 
ATOM      5  N   UNL     1       6.414   4.690  15.514  0.00  0.00    +0.000 N 
ATOM      6  N   UNL     1       5.853   5.869  15.841  0.00  0.00    +0.000 NA
ATOM      7  C   UNL     1       4.828   5.520  16.626  0.00  0.00    +0.000 A 
ATOM      8  C   UNL     1       3.887   6.405  17.269  0.00  0.00    +0.000 A 
ATOM      9  C   UNL     1       3.993   7.791  17.115  0.00  0.00    +0.000 A 
ATOM     10  C   UNL     1       3.098   8.631  17.771  0.00  0.00    +0.000 A 
ATOM     11  C   UNL     1       2.090   8.112  18.596  0.00  0.00    +0.000 A 
ATOM     12  C   UNL     1       1.986   6.701  18.708  0.00  0.00    +0.000 A 
ATOM     13  C   UNL     1       2.876   5.821  18.071  0.00  0.00    +0.000 A 
ATOM     14  N   UNL     1       2.806   4.375  18.223  0.00  0.00    +0.000 N 
ATOM     15  H   UNL     1       7.229   4.695  14.908  0.00  0.00    +0.000 HD
ENDROOT
BRANCH  11  16
ATOM     16  C   UNL     1       1.160   8.993  19.338  0.00  0.00    +0.000 A 
ATOM     17  C   UNL     1       0.359   9.952  18.710  0.00  0.00    +0.000 A 
ATOM     18  C   UNL     1      -0.489  10.748  19.477  0.00  0.00    +0.000 A 
ATOM     19  C   UNL     1      -0.512  10.581  20.855  0.00  0.00    +0.000 A 
ATOM     20  C   UNL     1       0.325   9.626  21.398  0.00  0.00    +0.000 A 
ATOM     21 CL   UNL     1       0.397   9.381  23.093  0.00  0.00    +0.000 Cl
ATOM     22  N   UNL     1       1.153   8.837  20.684  0.00  0.00    +0.000 NA
ENDBRANCH  11  16
BRANCH  14  23
ATOM     23  C   UNL     1       1.846   3.721  19.128  0.00  0.00    +0.000 C 
BRANCH  23  24
ATOM     24  C   UNL     1       2.249   3.602  20.609  0.00  0.00    +0.000 C 
ATOM     25  F   UNL     1       3.228   2.704  20.840  0.00  0.00    +0.000 F 
ATOM     26  F   UNL     1       2.645   4.798  21.103  0.00  0.00    +0.000 F 
ATOM     27  F   UNL     1       1.179   3.212  21.350  0.00  0.00    +0.000 F 
ENDBRANCH  23  24
ENDBRANCH  14  23
TORSDOF 3
ENDMDL
MODEL 5
REMARK VINA RESULT:      -8.2      3.608      7.081
REMARK  Name = 
REMARK  3 active torsions:
REMARK  status: ('A' for Active; 'I' for Inactive)
REMARK    1  A    between atoms: C_11  and  C_12
REMARK    2  A    between atoms: N_21  and  C_22
REMARK    3  A    between atoms: C_22  and  C_23
REMARK                            x       y       z     vdW  Elec       q    Type
REMARK                         _______ _______ _______ _____ _____    ______ ____
ROOT
ATOM      1  O   UNL     1       2.494   3.863  21.025  0.00  0.00    +0.000 OA
ATOM      2  C   UNL     1       2.862   4.627  20.137  0.00  0.00    +0.000 A 
ATOM      3  C   UNL     1       2.420   5.998  20.083  0.00  0.00    +0.000 A 
ATOM      4  C   UNL     1       1.619   6.731  20.926  0.00  0.00    +0.000 A 
ATOM      5  N   UNL     1       1.525   7.968  20.355  0.00  0.00    +0.000 N 
ATOM      6  N   UNL     1       2.206   8.082  19.200  0.00  0.00    +0.000 NA
ATOM      7  C   UNL     1       2.757   6.873  19.043  0.00  0.00    +0.000 A 
ATOM      8  C   UNL     1       3.593   6.435  17.951  0.00  0.00    +0.000 A 
ATOM      9  C   UNL     1       3.899   7.302  16.896  0.00  0.00    +0.000 A 
ATOM     10  C   UNL     1       4.677   6.852  15.833  0.00  0.00    +0.000 A 
ATOM     11  C   UNL     1       5.156   5.535  15.794  0.00  0.00    +0.000 A 
ATOM     12  C   UNL     1       4.856   4.688  16.892  0.00  0.00    +0.000 A 
ATOM     13  C   UNL     1       4.067   5.102  17.977  0.00  0.00    +0.000 A 
ATOM     14  N   UNL     1       3.713   4.221  19.082  0.00  0.00    +0.000 N 
ATOM     15  H   UNL     1       1.013   8.777  20.694  0.00  0.00    +0.000 HD
ENDROOT
BRANCH  11  16
ATOM     16  C   UNL     1       5.944   5.027  14.649  0.00  0.00    +0.000 A 
ATOM     17  C   UNL     1       7.256   5.437  14.389  0.00  0.00    +0.000 A 
ATOM     18  C   UNL     1       7.933   4.917  13.287  0.00  0.00    +0.000 A 
ATOM     19  C   UNL     1       7.285   4.009  12.461  0.00  0.00    +0.000 A 
ATOM     20  C   UNL     1       5.983   3.673  12.776  0.00  0.00    +0.000 A 
ATOM     21 CL   UNL     1       5.089   2.595  11.788  0.00  0.00    +0.000 Cl
ATOM     22  N   UNL     1       5.301   4.154  13.836  0.00  0.00    +0.000 NA
ENDBRANCH  11  16
BRANCH  14  23
ATOM     23  C   UNL     1       4.087   2.796  19.108  0.00  0.00    +0.000 C 
BRANCH  23  24
ATOM     24  C   UNL     1       3.120   1.807  18.434  0.00  0.00    +0.000 C 
ATOM     25  F   UNL     1       2.054   1.480  19.193  0.00  0.00    +0.000 F 
ATOM     26  F   UNL     1       2.668   2.293  17.256  0.00  0.00    +0.000 F 
ATOM     27  F   UNL     1       3.767   0.647  18.151  0.00  0.00    +0.000 F 
ENDBRANCH  23  24
ENDBRANCH  14  23
TORSDOF 3
ENDMDL
MODEL 6
REMARK VINA RESULT:      -8.2      3.644      7.107
REMARK  Name = 
REMARK  3 active torsions:
REMARK  status: ('A' for Active; 'I' for Inactive)
REMARK    1  A    between atoms: C_11  and  C_12
REMARK    2  A    between atoms: N_21  and  C_22
REMARK    3  A    between atoms: C_22  and  C_23
REMARK                            x       y       z     vdW  Elec       q    Type
REMARK                         _______ _______ _______ _____ _____    ______ ____
ROOT
ATOM      1  O   UNL     1       2.586   3.848  20.997  0.00  0.00    +0.000 OA
ATOM      2  C   UNL     1       2.937   4.603  20.095  0.00  0.00    +0.000 A 
ATOM      3  C   UNL     1       2.499   5.976  20.041  0.00  0.00    +0.000 A 
ATOM      4  C   UNL     1       1.721   6.718  20.897  0.00  0.00    +0.000 A 
ATOM      5  N   UNL     1       1.619   7.952  20.318  0.00  0.00    +0.000 N 
ATOM      6  N   UNL     1       2.273   8.053  19.146  0.00  0.00    +0.000 NA
ATOM      7  C   UNL     1       2.816   6.841  18.987  0.00  0.00    +0.000 A 
ATOM      8  C   UNL     1       3.624   6.391  17.879  0.00  0.00    +0.000 A 
ATOM      9  C   UNL     1       3.910   7.248  16.811  0.00  0.00    +0.000 A 
ATOM     10  C   UNL     1       4.661   6.788  15.734  0.00  0.00    +0.000 A 
ATOM     11  C   UNL     1       5.133   5.468  15.694  0.00  0.00    +0.000 A 
ATOM     12  C   UNL     1       4.856   4.631  16.805  0.00  0.00    +0.000 A 
ATOM     13  C   UNL     1       4.093   5.056  17.904  0.00  0.00    +0.000 A 
ATOM     14  N   UNL     1       3.762   4.185  19.023  0.00  0.00    +0.000 N 
ATOM     15  H   UNL     1       1.118   8.765  20.662  0.00  0.00    +0.000 HD
ENDROOT
BRANCH  11  16
ATOM     16  C   UNL     1       5.893   4.949  14.534  0.00  0.00    +0.000 A 
ATOM     17  C   UNL     1       5.467   3.853  13.776  0.00  0.00    +0.000 A 
ATOM     18  C   UNL     1       6.239   3.419  12.700  0.00  0.00    +0.000 A 
ATOM     19  C   UNL     1       7.426   4.078  12.410  0.00  0.00    +0.000 A 
ATOM     20  C   UNL     1       7.784   5.138  13.220  0.00  0.00    +0.000 A 
ATOM     21 CL   UNL     1       9.255   5.982  12.963  0.00  0.00    +0.000 Cl
ATOM     22  N   UNL     1       7.059   5.585  14.264  0.00  0.00    +0.000 NA
ENDBRANCH  11  16
BRANCH  14  23
ATOM     23  C   UNL     1       4.130   2.759  19.052  0.00  0.00    +0.000 C 
BRANCH  23  24
ATOM     24  C   UNL     1       3.186   1.778  18.334  0.00  0.00    +0.000 C 
ATOM     25  F   UNL     1       2.563   2.305  17.260  0.00  0.00    +0.000 F 
ATOM     26  F   UNL     1       3.849   0.668  17.937  0.00  0.00    +0.000 F 
ATOM     27  F   UNL     1       2.213   1.364  19.186  0.00  0.00    +0.000 F 
ENDBRANCH  23  24
ENDBRANCH  14  23
TORSDOF 3
ENDMDL
MODEL 7
REMARK VINA RESULT:      -8.0      3.831      7.152
REMARK  Name = 
REMARK  3 active torsions:
REMARK  status: ('A' for Active; 'I' for Inactive)
REMARK    1  A    between atoms: C_11  and  C_12
REMARK    2  A    between atoms: N_21  and  C_22
REMARK    3  A    between atoms: C_22  and  C_23
REMARK                            x       y       z     vdW  Elec       q    Type
REMARK                         _______ _______ _______ _____ _____    ______ ____
ROOT
ATOM      1  O   UNL     1       1.130   3.416  20.135  0.00  0.00    +0.000 OA
ATOM      2  C   UNL     1       1.876   4.188  19.539  0.00  0.00    +0.000 A 
ATOM      3  C   UNL     1       1.959   5.585  19.889  0.00  0.00    +0.000 A 
ATOM      4  C   UNL     1       1.348   6.313  20.881  0.00  0.00    +0.000 A 
ATOM      5  N   UNL     1       1.784   7.597  20.712  0.00  0.00    +0.000 N 
ATOM      6  N   UNL     1       2.631   7.746  19.676  0.00  0.00    +0.000 NA
ATOM      7  C   UNL     1       2.738   6.507  19.181  0.00  0.00    +0.000 A 
ATOM      8  C   UNL     1       3.523   6.093  18.043  0.00  0.00    +0.000 A 
ATOM      9  C   UNL     1       4.274   7.024  17.318  0.00  0.00    +0.000 A 
ATOM     10  C   UNL     1       4.997   6.614  16.202  0.00  0.00    +0.000 A 
ATOM     11  C   UNL     1       4.982   5.276  15.783  0.00  0.00    +0.000 A 
ATOM     12  C   UNL     1       4.238   4.348  16.556  0.00  0.00    +0.000 A 
ATOM     13  C   UNL     1       3.487   4.725  17.681  0.00  0.00    +0.000 A 
ATOM     14  N   UNL     1       2.681   3.786  18.448  0.00  0.00    +0.000 N 
ATOM     15  H   UNL     1       1.544   8.417  21.259  0.00  0.00    +0.000 HD
ENDROOT
BRANCH  11  16
ATOM     16  C   UNL     1       5.708   4.832  14.571  0.00  0.00    +0.000 A 
ATOM     17  C   UNL     1       5.251   3.797  13.750  0.00  0.00    +0.000 A 
ATOM     18  C   UNL     1       5.992   3.432  12.627  0.00  0.00    +0.000 A 
ATOM     19  C   UNL     1       7.178   4.098  12.353  0.00  0.00    +0.000 A 
ATOM     20  C   UNL     1       7.569   5.095  13.227  0.00  0.00    +0.000 A 
ATOM     21 CL   UNL     1       9.042   5.941  12.993  0.00  0.00    +0.000 Cl
ATOM     22  N   UNL     1       6.873   5.475  14.318  0.00  0.00    +0.000 NA
ENDBRANCH  11  16
BRANCH  14  23
ATOM     23  C   UNL     1       2.520   2.376  18.053  0.00  0.00    +0.000 C 
BRANCH  23  24
ATOM     24  C   UNL     1       3.620   1.395  18.496  0.00  0.00    +0.000 C 
ATOM     25  F   UNL     1       3.152   0.288  19.108  0.00  0.00    +0.000 F 
ATOM     26  F   UNL     1       4.382   1.010  17.447  0.00  0.00    +0.000 F 
ATOM     27  F   UNL     1       4.455   2.004  19.377  0.00  0.00    +0.000 F 
ENDBRANCH  23  24
ENDBRANCH  14  23
TORSDOF 3
ENDMDL
MODEL 8
REMARK VINA RESULT:      -7.9      3.092      4.079
REMARK  Name = 
REMARK  3 active torsions:
REMARK  status: ('A' for Active; 'I' for Inactive)
REMARK    1  A    between atoms: C_11  and  C_12
REMARK    2  A    between atoms: N_21  and  C_22
REMARK    3  A    between atoms: C_22  and  C_23
REMARK                            x       y       z     vdW  Elec       q    Type
REMARK                         _______ _______ _______ _____ _____    ______ ____
ROOT
ATOM      1  O   UNL     1       5.347   3.892  16.348  0.00  0.00    +0.000 OA
ATOM      2  C   UNL     1       4.552   4.075  17.265  0.00  0.00    +0.000 A 
ATOM      3  C   UNL     1       3.863   2.980  17.902  0.00  0.00    +0.000 A 
ATOM      4  C   UNL     1       3.942   1.621  17.713  0.00  0.00    +0.000 A 
ATOM      5  N   UNL     1       3.036   1.080  18.581  0.00  0.00    +0.000 N 
ATOM      6  N   UNL     1       2.376   1.997  19.313  0.00  0.00    +0.000 NA
ATOM      7  C   UNL     1       2.893   3.159  18.896  0.00  0.00    +0.000 A 
ATOM      8  C   UNL     1       2.533   4.481  19.348  0.00  0.00    +0.000 A 
ATOM      9  C   UNL     1       1.539   4.657  20.317  0.00  0.00    +0.000 A 
ATOM     10  C   UNL     1       1.179   5.940  20.716  0.00  0.00    +0.000 A 
ATOM     11  C   UNL     1       1.792   7.070  20.156  0.00  0.00    +0.000 A 
ATOM     12  C   UNL     1       2.819   6.861  19.200  0.00  0.00    +0.000 A 
ATOM     13  C   UNL     1       3.202   5.583  18.764  0.00  0.00    +0.000 A 
ATOM     14  N   UNL     1       4.220   5.364  17.745  0.00  0.00    +0.000 N 
ATOM     15  H   UNL     1       2.814   0.100  18.724  0.00  0.00    +0.000 HD
ENDROOT
BRANCH  11  16
ATOM     16  C   UNL     1       1.388   8.443  20.535  0.00  0.00    +0.000 A 
ATOM     17  C   UNL     1       0.990   8.787  21.830  0.00  0.00    +0.000 A 
ATOM     18  C   UNL     1       0.620  10.101  22.110  0.00  0.00    +0.000 A 
ATOM     19  C   UNL     1       0.642  11.042  21.090  0.00  0.00    +0.000 A 
ATOM     20  C   UNL     1       1.029  10.616  19.834  0.00  0.00    +0.000 A 
ATOM     21 CL   UNL     1       1.043  11.698  18.504  0.00  0.00    +0.000 Cl
ATOM     22  N   UNL     1       1.397   9.354  19.532  0.00  0.00    +0.000 NA
ENDBRANCH  11  16
BRANCH  14  23
ATOM     23  C   UNL     1       4.870   6.474  17.026  0.00  0.00    +0.000 C 
BRANCH  23  24
ATOM     24  C   UNL     1       6.325   6.797  17.408  0.00  0.00    +0.000 C 
ATOM     25  F   UNL     1       6.597   8.116  17.466  0.00  0.00    +0.000 F 
ATOM     26  F   UNL     1       6.651   6.245  18.600  0.00  0.00    +0.000 F 
ATOM     27  F   UNL     1       7.174   6.264  16.490  0.00  0.00    +0.000 F 
ENDBRANCH  23  24
ENDBRANCH  14  23
TORSDOF 3
ENDMDL
MODEL 9
REMARK VINA RESULT:      -7.9      3.868      7.234
REMARK  Name = 
REMARK  3 active torsions:
REMARK  status: ('A' for Active; 'I' for Inactive)
REMARK    1  A    between atoms: C_11  and  C_12
REMARK    2  A    between atoms: N_21  and  C_22
REMARK    3  A    between atoms: C_22  and  C_23
REMARK                            x       y       z     vdW  Elec       q    Type
REMARK                         _______ _______ _______ _____ _____    ______ ____
ROOT
ATOM      1  O   UNL     1       1.244   3.399  19.961  0.00  0.00    +0.000 OA
ATOM      2  C   UNL     1       1.989   4.174  19.368  0.00  0.00    +0.000 A 
ATOM      3  C   UNL     1       2.048   5.575  19.703  0.00  0.00    +0.000 A 
ATOM      4  C   UNL     1       1.414   6.306  20.679  0.00  0.00    +0.000 A 
ATOM      5  N   UNL     1       1.836   7.593  20.502  0.00  0.00    +0.000 N 
ATOM      6  N   UNL     1       2.695   7.743  19.477  0.00  0.00    +0.000 NA
ATOM      7  C   UNL     1       2.826   6.501  18.997  0.00  0.00    +0.000 A 
ATOM      8  C   UNL     1       3.633   6.085  17.875  0.00  0.00    +0.000 A 
ATOM      9  C   UNL     1       4.382   7.018  17.150  0.00  0.00    +0.000 A 
ATOM     10  C   UNL     1       5.126   6.606  16.050  0.00  0.00    +0.000 A 
ATOM     11  C   UNL     1       5.134   5.263  15.644  0.00  0.00    +0.000 A 
ATOM     12  C   UNL     1       4.391   4.333  16.416  0.00  0.00    +0.000 A 
ATOM     13  C   UNL     1       3.620   4.713  17.527  0.00  0.00    +0.000 A 
ATOM     14  N   UNL     1       2.815   3.771  18.292  0.00  0.00    +0.000 N 
ATOM     15  H   UNL     1       1.577   8.416  21.037  0.00  0.00    +0.000 HD
ENDROOT
BRANCH  11  16
ATOM     16  C   UNL     1       5.883   4.816  14.448  0.00  0.00    +0.000 A 
ATOM     17  C   UNL     1       7.195   5.218  14.179  0.00  0.00    +0.000 A 
ATOM     18  C   UNL     1       7.833   4.757  13.029  0.00  0.00    +0.000 A 
ATOM     19  C   UNL     1       7.147   3.916  12.165  0.00  0.00    +0.000 A 
ATOM     20  C   UNL     1       5.847   3.583  12.493  0.00  0.00    +0.000 A 
ATOM     21 CL   UNL     1       4.907   2.586  11.463  0.00  0.00    +0.000 Cl
ATOM     22  N   UNL     1       5.202   4.007  13.599  0.00  0.00    +0.000 NA
ENDBRANCH  11  16
BRANCH  14  23
ATOM     23  C   UNL     1       2.678   2.355  17.910  0.00  0.00    +0.000 C 
BRANCH  23  24
ATOM     24  C   UNL     1       3.609   1.348  18.608  0.00  0.00    +0.000 C 
ATOM     25  F   UNL     1       4.518   1.918  19.425  0.00  0.00    +0.000 F 
ATOM     26  F   UNL     1       2.900   0.447  19.327  0.00  0.00    +0.000 F 
ATOM     27  F   UNL     1       4.306   0.642  17.680  0.00  0.00    +0.000 F 
ENDBRANCH  23  24
ENDBRANCH  14  23
TORSDOF 3
ENDMDL
