MODEL 1
REMARK VINA RESULT:      -8.3      0.000      0.000
REMARK  Name = 
REMARK  11 active torsions:
REMARK  status: ('A' for Active; 'I' for Inactive)
REMARK    1  A    between atoms: C_1  and  O_2
REMARK    2  A    between atoms: O_2  and  C_3
REMARK    3  A    between atoms: C_5  and  C_6
REMARK    4  A    between atoms: C_12  and  C_13
REMARK    5  A    between atoms: C_17  and  C_18
REMARK    6  A    between atoms: N_20  and  C_21
REMARK    7  A    between atoms: C_21  and  C_22
REMARK    8  A    between atoms: C_22  and  N_23
REMARK    9  A    between atoms: N_23  and  C_24
REMARK   10  A    between atoms: N_23  and  C_25
REMARK   11  A    between atoms: C_31  and  O_32
REMARK                            x       y       z     vdW  Elec       q    Type
REMARK                         _______ _______ _______ _____ _____    ______ ____
ROOT
ATOM      1  C   UNL     1       2.104   6.477  19.777  0.00  0.00    +0.000 A 
ATOM      2  C   UNL     1       1.188   5.614  20.588  0.00  0.00    +0.000 A 
ATOM      3  C   UNL     1       1.511   4.325  20.737  0.00  0.00    +0.000 A 
ATOM      4  C   UNL     1       2.667   3.823  20.111  0.00  0.00    +0.000 A 
ATOM      5  N   UNL     1       3.167   2.609  20.110  0.00  0.00    +0.000 NA
ATOM      6  C   UNL     1       4.303   2.705  19.357  0.00  0.00    +0.000 A 
ATOM      7  C   UNL     1       4.519   3.993  18.886  0.00  0.00    +0.000 A 
ATOM      8  N   UNL     1       3.430   4.709  19.364  0.00  0.00    +0.000 N 
ATOM      9  N   UNL     1       3.171   6.045  19.168  0.00  0.00    +0.000 NA
ENDROOT
BRANCH   1  12
ATOM     10  C   UNL     1       0.762   9.916  20.726  0.00  0.00    +0.000 A 
ATOM     11  C   UNL     1       1.098   8.552  20.774  0.00  0.00    +0.000 A 
ATOM     12  C   UNL     1       1.728   7.925  19.691  0.00  0.00    +0.000 A 
ATOM     13  C   UNL     1       1.986   8.665  18.532  0.00  0.00    +0.000 A 
ATOM     14  C   UNL     1       1.656  10.019  18.472  0.00  0.00    +0.000 A 
ATOM     15  C   UNL     1       1.050  10.645  19.563  0.00  0.00    +0.000 A 
BRANCH  10  17
ATOM     16  C   UNL     1       0.283   9.579  23.050  0.00  0.00    +0.000 C 
ATOM     17  O   UNL     1       0.170  10.371  21.876  0.00  0.00    +0.000 OA
ENDBRANCH  10  17
BRANCH  15  18
ATOM     18  O   UNL     1       0.745  11.973  19.448  0.00  0.00    +0.000 OA
ATOM     19  H   UNL     1       0.851  12.406  20.310  0.00  0.00    +0.000 HD
ENDBRANCH  15  18
ENDBRANCH   1  12
BRANCH   7  20
ATOM     20  C   UNL     1       5.663   4.513  18.131  0.00  0.00    +0.000 A 
ATOM     21  C   UNL     1       6.594   5.354  18.765  0.00  0.00    +0.000 A 
ATOM     22  C   UNL     1       7.623   5.962  18.044  0.00  0.00    +0.000 A 
ATOM     23  C   UNL     1       7.727   5.746  16.673  0.00  0.00    +0.000 A 
ATOM     24  C   UNL     1       6.811   4.912  16.019  0.00  0.00    +0.000 A 
ATOM     25  C   UNL     1       5.799   4.283  16.755  0.00  0.00    +0.000 A 
BRANCH  24  26
ATOM     26  C   UNL     1       6.935   4.770  14.542  0.00  0.00    +0.000 C 
ATOM     27  O   UNL     1       7.656   5.540  13.912  0.00  0.00    +0.000 OA
ATOM     28  N   UNL     1       6.164   3.799  13.939  0.00  0.00    +0.000 N 
ATOM     29  H   UNL     1       5.672   3.111  14.488  0.00  0.00    +0.000 HD
BRANCH  28  30
ATOM     30  C   UNL     1       6.214   3.578  12.509  0.00  0.00    +0.000 C 
BRANCH  30  31
ATOM     31  C   UNL     1       5.563   2.247  12.091  0.00  0.00    +0.000 C 
BRANCH  31  32
ATOM     32  N   UNL     1       6.273   1.512  11.018  0.00  0.00    +0.000 NA
ATOM     33  C   UNL     1       7.682   1.886  10.926  0.00  0.00    +0.000 C 
ATOM     34  C   UNL     1       6.160   0.070  11.264  0.00  0.00    +0.000 C 
ENDBRANCH  31  32
ENDBRANCH  30  31
ENDBRANCH  28  30
ENDBRANCH  24  26
ENDBRANCH   7  20
TORSDOF 8
ENDMDL
MODEL 2
REMARK VINA RESULT:      -8.1      2.809      9.913
REMARK  Name = 
REMARK  11 active torsions:
REMARK  status: ('A' for Active; 'I' for Inactive)
REMARK    1  A    between atoms: C_1  and  O_2
REMARK    2  A    between atoms: O_2  and  C_3
REMARK    3  A    between atoms: C_5  and  C_6
REMARK    4  A    between atoms: C_12  and  C_13
REMARK    5  A    between atoms: C_17  and  C_18
REMARK    6  A    between atoms: N_20  and  C_21
REMARK    7  A    between atoms: C_21  and  C_22
REMARK    8  A    between atoms: C_22  and  N_23
REMARK    9  A    between atoms: N_23  and  C_24
REMARK   10  A    between atoms: N_23  and  C_25
REMARK   11  A    between atoms: C_31  and  O_32
REMARK                            x       y       z     vdW  Elec       q    Type
REMARK                         _______ _______ _______ _____ _____    ______ ____
ROOT
ATOM      1  C   UNL     1       4.414   4.032  18.034  0.00  0.00    +0.000 A 
ATOM      2  C   UNL     1       4.378   2.579  18.395  0.00  0.00    +0.000 A 
ATOM      3  C   UNL     1       3.516   2.190  19.340  0.00  0.00    +0.000 A 
ATOM      4  C   UNL     1       2.707   3.149  19.978  0.00  0.00    +0.000 A 
ATOM      5  N   UNL     1       1.811   3.000  20.926  0.00  0.00    +0.000 NA
ATOM      6  C   UNL     1       1.328   4.260  21.143  0.00  0.00    +0.000 A 
ATOM      7  C   UNL     1       1.924   5.205  20.319  0.00  0.00    +0.000 A 
ATOM      8  N   UNL     1       2.842   4.471  19.580  0.00  0.00    +0.000 N 
ATOM      9  N   UNL     1       3.696   4.950  18.615  0.00  0.00    +0.000 NA
ENDROOT
BRANCH   1  12
ATOM     10  C   UNL     1       7.140   5.839  16.076  0.00  0.00    +0.000 A 
ATOM     11  C   UNL     1       6.230   5.487  17.089  0.00  0.00    +0.000 A 
ATOM     12  C   UNL     1       5.354   4.406  16.929  0.00  0.00    +0.000 A 
ATOM     13  C   UNL     1       5.361   3.696  15.723  0.00  0.00    +0.000 A 
ATOM     14  C   UNL     1       6.258   4.036  14.710  0.00  0.00    +0.000 A 
ATOM     15  C   UNL     1       7.146   5.099  14.884  0.00  0.00    +0.000 A 
BRANCH  10  17
ATOM     16  C   UNL     1       7.606   7.657  17.566  0.00  0.00    +0.000 C 
ATOM     17  O   UNL     1       7.934   6.906  16.405  0.00  0.00    +0.000 OA
ENDBRANCH  10  17
BRANCH  15  18
ATOM     18  O   UNL     1       8.001   5.390  13.858  0.00  0.00    +0.000 OA
ATOM     19  H   UNL     1       7.549   5.950  13.207  0.00  0.00    +0.000 HD
ENDBRANCH  15  18
ENDBRANCH   1  12
BRANCH   7  20
ATOM     20  C   UNL     1       1.614   6.632  20.187  0.00  0.00    +0.000 A 
ATOM     21  C   UNL     1       1.959   7.315  19.007  0.00  0.00    +0.000 A 
ATOM     22  C   UNL     1       1.789   8.696  18.898  0.00  0.00    +0.000 A 
ATOM     23  C   UNL     1       1.280   9.415  19.976  0.00  0.00    +0.000 A 
ATOM     24  C   UNL     1       0.929   8.758  21.161  0.00  0.00    +0.000 A 
ATOM     25  C   UNL     1       1.076   7.367  21.252  0.00  0.00    +0.000 A 
BRANCH  24  26
ATOM     26  C   UNL     1       0.450   9.589  22.300  0.00  0.00    +0.000 C 
ATOM     27  O   UNL     1       1.056   9.568  23.368  0.00  0.00    +0.000 OA
ATOM     28  N   UNL     1      -0.712  10.305  22.109  0.00  0.00    +0.000 N 
ATOM     29  H   UNL     1      -1.123  10.394  21.191  0.00  0.00    +0.000 HD
BRANCH  28  30
ATOM     30  C   UNL     1      -1.259  11.146  23.153  0.00  0.00    +0.000 C 
BRANCH  30  31
ATOM     31  C   UNL     1      -2.160  12.266  22.601  0.00  0.00    +0.000 C 
BRANCH  31  32
ATOM     32  N   UNL     1      -3.602  12.119  22.908  0.00  0.00    +0.000 NA
ATOM     33  C   UNL     1      -3.928  12.550  24.266  0.00  0.00    +0.000 C 
ATOM     34  C   UNL     1      -4.384  12.898  21.941  0.00  0.00    +0.000 C 
ENDBRANCH  31  32
ENDBRANCH  30  31
ENDBRANCH  28  30
ENDBRANCH  24  26
ENDBRANCH   7  20
TORSDOF 8
ENDMDL
MODEL 3
REMARK VINA RESULT:      -7.7      2.994      5.464
REMARK  Name = 
REMARK  11 active torsions:
REMARK  status: ('A' for Active; 'I' for Inactive)
REMARK    1  A    between atoms: C_1  and  O_2
REMARK    2  A    between atoms: O_2  and  C_3
REMARK    3  A    between atoms: C_5  and  C_6
REMARK    4  A    between atoms: C_12  and  C_13
REMARK    5  A    between atoms: C_17  and  C_18
REMARK    6  A    between atoms: N_20  and  C_21
REMARK    7  A    between atoms: C_21  and  C_22
REMARK    8  A    between atoms: C_22  and  N_23
REMARK    9  A    between atoms: N_23  and  C_24
REMARK   10  A    between atoms: N_23  and  C_25
REMARK   11  A    between atoms: C_31  and  O_32
REMARK                            x       y       z     vdW  Elec       q    Type
REMARK                         _______ _______ _______ _____ _____    ______ ____
ROOT
ATOM      1  C   UNL     1       1.769   6.222  19.939  0.00  0.00    +0.000 A 
ATOM      2  C   UNL     1       0.887   5.161  20.522  0.00  0.00    +0.000 A 
ATOM      3  C   UNL     1       1.142   3.889  20.201  0.00  0.00    +0.000 A 
ATOM      4  C   UNL     1       2.195   3.594  19.314  0.00  0.00    +0.000 A 
ATOM      5  N   UNL     1       2.613   2.437  18.857  0.00  0.00    +0.000 NA
ATOM      6  C   UNL     1       3.672   2.749  18.051  0.00  0.00    +0.000 A 
ATOM      7  C   UNL     1       3.920   4.114  18.007  0.00  0.00    +0.000 A 
ATOM      8  N   UNL     1       2.932   4.659  18.816  0.00  0.00    +0.000 N 
ATOM      9  N   UNL     1       2.740   5.990  19.102  0.00  0.00    +0.000 NA
ENDROOT
BRANCH   1  12
ATOM     10  C   UNL     1       1.076   9.967  19.812  0.00  0.00    +0.000 A 
ATOM     11  C   UNL     1       1.376   8.649  19.427  0.00  0.00    +0.000 A 
ATOM     12  C   UNL     1       1.479   7.624  20.377  0.00  0.00    +0.000 A 
ATOM     13  C   UNL     1       1.322   7.935  21.732  0.00  0.00    +0.000 A 
ATOM     14  C   UNL     1       1.026   9.240  22.127  0.00  0.00    +0.000 A 
ATOM     15  C   UNL     1       0.900  10.252  21.174  0.00  0.00    +0.000 A 
BRANCH  10  17
ATOM     16  C   UNL     1       2.200  11.263  18.138  0.00  0.00    +0.000 C 
ATOM     17  O   UNL     1       0.994  10.836  18.756  0.00  0.00    +0.000 OA
ENDBRANCH  10  17
BRANCH  15  18
ATOM     18  O   UNL     1       0.612  11.513  21.617  0.00  0.00    +0.000 OA
ATOM     19  H   UNL     1       0.927  11.617  22.529  0.00  0.00    +0.000 HD
ENDBRANCH  15  18
ENDBRANCH   1  12
BRANCH   7  20
ATOM     20  C   UNL     1       5.013   4.827  17.338  0.00  0.00    +0.000 A 
ATOM     21  C   UNL     1       5.355   4.497  16.014  0.00  0.00    +0.000 A 
ATOM     22  C   UNL     1       6.465   5.070  15.393  0.00  0.00    +0.000 A 
ATOM     23  C   UNL     1       7.257   5.976  16.094  0.00  0.00    +0.000 A 
ATOM     24  C   UNL     1       6.937   6.321  17.413  0.00  0.00    +0.000 A 
ATOM     25  C   UNL     1       5.804   5.762  18.019  0.00  0.00    +0.000 A 
BRANCH  24  26
ATOM     26  C   UNL     1       7.857   7.245  18.131  0.00  0.00    +0.000 C 
ATOM     27  O   UNL     1       8.525   6.830  19.074  0.00  0.00    +0.000 OA
ATOM     28  N   UNL     1       7.860   8.563  17.730  0.00  0.00    +0.000 N 
ATOM     29  H   UNL     1       7.391   8.850  16.884  0.00  0.00    +0.000 HD
BRANCH  28  30
ATOM     30  C   UNL     1       8.722   9.541  18.362  0.00  0.00    +0.000 C 
BRANCH  30  31
ATOM     31  C   UNL     1       8.523  10.959  17.797  0.00  0.00    +0.000 C 
BRANCH  31  32
ATOM     32  N   UNL     1       9.405  11.996  18.383  0.00  0.00    +0.000 NA
ATOM     33  C   UNL     1       9.623  11.797  19.814  0.00  0.00    +0.000 C 
ATOM     34  C   UNL     1      10.693  11.989  17.681  0.00  0.00    +0.000 C 
ENDBRANCH  31  32
ENDBRANCH  30  31
ENDBRANCH  28  30
ENDBRANCH  24  26
ENDBRANCH   7  20
TORSDOF 8
ENDMDL
MODEL 4
REMARK VINA RESULT:      -7.7      2.742      8.428
REMARK  Name = 
REMARK  11 active torsions:
REMARK  status: ('A' for Active; 'I' for Inactive)
REMARK    1  A    between atoms: C_1  and  O_2
REMARK    2  A    between atoms: O_2  and  C_3
REMARK    3  A    between atoms: C_5  and  C_6
REMARK    4  A    between atoms: C_12  and  C_13
REMARK    5  A    between atoms: C_17  and  C_18
REMARK    6  A    between atoms: N_20  and  C_21
REMARK    7  A    between atoms: C_21  and  C_22
REMARK    8  A    between atoms: C_22  and  N_23
REMARK    9  A    between atoms: N_23  and  C_24
REMARK   10  A    between atoms: N_23  and  C_25
REMARK   11  A    between atoms: C_31  and  O_32
REMARK                            x       y       z     vdW  Elec       q    Type
REMARK                         _______ _______ _______ _____ _____    ______ ____
ROOT
ATOM      1  C   UNL     1       4.117   3.896  17.639  0.00  0.00    +0.000 A 
ATOM      2  C   UNL     1       3.864   2.421  17.699  0.00  0.00    +0.000 A 
ATOM      3  C   UNL     1       2.929   1.980  18.546  0.00  0.00    +0.000 A 
ATOM      4  C   UNL     1       2.246   2.899  19.365  0.00  0.00    +0.000 A 
ATOM      5  N   UNL     1       1.311   2.695  20.264  0.00  0.00    +0.000 NA
ATOM      6  C   UNL     1       1.006   3.942  20.731  0.00  0.00    +0.000 A 
ATOM      7  C   UNL     1       1.753   4.936  20.115  0.00  0.00    +0.000 A 
ATOM      8  N   UNL     1       2.579   4.240  19.242  0.00  0.00    +0.000 N 
ATOM      9  N   UNL     1       3.519   4.774  18.394  0.00  0.00    +0.000 NA
ENDROOT
BRANCH   1  12
ATOM     10  C   UNL     1       6.970   5.828  16.009  0.00  0.00    +0.000 A 
ATOM     11  C   UNL     1       5.991   5.409  16.928  0.00  0.00    +0.000 A 
ATOM     12  C   UNL     1       5.132   4.343  16.632  0.00  0.00    +0.000 A 
ATOM     13  C   UNL     1       5.227   3.718  15.383  0.00  0.00    +0.000 A 
ATOM     14  C   UNL     1       6.193   4.126  14.463  0.00  0.00    +0.000 A 
ATOM     15  C   UNL     1       7.063   5.172  14.772  0.00  0.00    +0.000 A 
BRANCH  10  17
ATOM     16  C   UNL     1       7.561   7.293  17.811  0.00  0.00    +0.000 C 
ATOM     17  O   UNL     1       7.735   6.868  16.467  0.00  0.00    +0.000 OA
ENDBRANCH  10  17
BRANCH  15  18
ATOM     18  O   UNL     1       7.988   5.532  13.832  0.00  0.00    +0.000 OA
ATOM     19  H   UNL     1       7.664   6.300  13.335  0.00  0.00    +0.000 HD
ENDBRANCH  15  18
ENDBRANCH   1  12
BRANCH   7  20
ATOM     20  C   UNL     1       1.653   6.390  20.273  0.00  0.00    +0.000 A 
ATOM     21  C   UNL     1       1.079   6.929  21.438  0.00  0.00    +0.000 A 
ATOM     22  C   UNL     1       0.859   8.301  21.565  0.00  0.00    +0.000 A 
ATOM     23  C   UNL     1       1.201   9.155  20.520  0.00  0.00    +0.000 A 
ATOM     24  C   UNL     1       1.775   8.642  19.350  0.00  0.00    +0.000 A 
ATOM     25  C   UNL     1       2.019   7.267  19.242  0.00  0.00    +0.000 A 
BRANCH  24  26
ATOM     26  C   UNL     1       2.061   9.596  18.242  0.00  0.00    +0.000 C 
ATOM     27  O   UNL     1       2.277   9.171  17.111  0.00  0.00    +0.000 OA
ATOM     28  N   UNL     1       2.133  10.933  18.570  0.00  0.00    +0.000 N 
ATOM     29  H   UNL     1       1.840  11.263  19.478  0.00  0.00    +0.000 HD
BRANCH  28  30
ATOM     30  C   UNL     1       2.402  11.941  17.566  0.00  0.00    +0.000 C 
BRANCH  30  31
ATOM     31  C   UNL     1       2.196  13.373  18.092  0.00  0.00    +0.000 C 
BRANCH  31  32
ATOM     32  N   UNL     1       3.437  14.079  18.491  0.00  0.00    +0.000 NA
ATOM     33  C   UNL     1       3.645  15.309  17.730  0.00  0.00    +0.000 C 
ATOM     34  C   UNL     1       3.378  14.389  19.924  0.00  0.00    +0.000 C 
ENDBRANCH  31  32
ENDBRANCH  30  31
ENDBRANCH  28  30
ENDBRANCH  24  26
ENDBRANCH   7  20
TORSDOF 8
ENDMDL
MODEL 5
REMARK VINA RESULT:      -7.7      3.843      6.442
REMARK  Name = 
REMARK  11 active torsions:
REMARK  status: ('A' for Active; 'I' for Inactive)
REMARK    1  A    between atoms: C_1  and  O_2
REMARK    2  A    between atoms: O_2  and  C_3
REMARK    3  A    between atoms: C_5  and  C_6
REMARK    4  A    between atoms: C_12  and  C_13
REMARK    5  A    between atoms: C_17  and  C_18
REMARK    6  A    between atoms: N_20  and  C_21
REMARK    7  A    between atoms: C_21  and  C_22
REMARK    8  A    between atoms: C_22  and  N_23
REMARK    9  A    between atoms: N_23  and  C_24
REMARK   10  A    between atoms: N_23  and  C_25
REMARK   11  A    between atoms: C_31  and  O_32
REMARK                            x       y       z     vdW  Elec       q    Type
REMARK                         _______ _______ _______ _____ _____    ______ ____
ROOT
ATOM      1  C   UNL     1      -1.285  10.407  19.112  0.00  0.00    +0.000 A 
ATOM      2  C   UNL     1      -1.320  11.641  19.958  0.00  0.00    +0.000 A 
ATOM      3  C   UNL     1      -0.530  11.684  21.036  0.00  0.00    +0.000 A 
ATOM      4  C   UNL     1       0.272  10.571  21.353  0.00  0.00    +0.000 A 
ATOM      5  N   UNL     1       1.103  10.387  22.352  0.00  0.00    +0.000 NA
ATOM      6  C   UNL     1       1.615   9.137  22.148  0.00  0.00    +0.000 A 
ATOM      7  C   UNL     1       1.102   8.534  21.008  0.00  0.00    +0.000 A 
ATOM      8  N   UNL     1       0.206   9.471  20.510  0.00  0.00    +0.000 N 
ATOM      9  N   UNL     1      -0.572   9.351  19.383  0.00  0.00    +0.000 NA
ENDROOT
BRANCH   1  12
ATOM     10  C   UNL     1      -4.147  11.225  16.731  0.00  0.00    +0.000 A 
ATOM     11  C   UNL     1      -3.340  11.162  17.881  0.00  0.00    +0.000 A 
ATOM     12  C   UNL     1      -2.143  10.434  17.884  0.00  0.00    +0.000 A 
ATOM     13  C   UNL     1      -1.773   9.728  16.735  0.00  0.00    +0.000 A 
ATOM     14  C   UNL     1      -2.566   9.782  15.588  0.00  0.00    +0.000 A 
ATOM     15  C   UNL     1      -3.745  10.528  15.582  0.00  0.00    +0.000 A 
BRANCH  10  17
ATOM     16  C   UNL     1      -5.640  12.372  18.215  0.00  0.00    +0.000 C 
ATOM     17  O   UNL     1      -5.269  11.994  16.896  0.00  0.00    +0.000 OA
ENDBRANCH  10  17
BRANCH  15  18
ATOM     18  O   UNL     1      -4.485  10.543  14.433  0.00  0.00    +0.000 OA
ATOM     19  H   UNL     1      -4.101  11.178  13.807  0.00  0.00    +0.000 HD
ENDBRANCH  15  18
ENDBRANCH   1  12
BRANCH   7  20
ATOM     20  C   UNL     1       1.467   7.248  20.407  0.00  0.00    +0.000 A 
ATOM     21  C   UNL     1       1.006   6.051  20.982  0.00  0.00    +0.000 A 
ATOM     22  C   UNL     1       1.435   4.811  20.507  0.00  0.00    +0.000 A 
ATOM     23  C   UNL     1       2.343   4.752  19.454  0.00  0.00    +0.000 A 
ATOM     24  C   UNL     1       2.817   5.930  18.864  0.00  0.00    +0.000 A 
ATOM     25  C   UNL     1       2.360   7.170  19.328  0.00  0.00    +0.000 A 
BRANCH  24  26
ATOM     26  C   UNL     1       3.835   5.804  17.785  0.00  0.00    +0.000 C 
ATOM     27  O   UNL     1       3.852   4.802  17.075  0.00  0.00    +0.000 OA
ATOM     28  N   UNL     1       4.767   6.815  17.681  0.00  0.00    +0.000 N 
ATOM     29  H   UNL     1       4.661   7.675  18.198  0.00  0.00    +0.000 HD
BRANCH  28  30
ATOM     30  C   UNL     1       5.797   6.789  16.663  0.00  0.00    +0.000 C 
BRANCH  30  31
ATOM     31  C   UNL     1       7.204   7.040  17.236  0.00  0.00    +0.000 C 
BRANCH  31  32
ATOM     32  N   UNL     1       7.872   5.844  17.802  0.00  0.00    +0.000 NA
ATOM     33  C   UNL     1       7.683   5.734  19.247  0.00  0.00    +0.000 C 
ATOM     34  C   UNL     1       7.351   4.642  17.142  0.00  0.00    +0.000 C 
ENDBRANCH  31  32
ENDBRANCH  30  31
ENDBRANCH  28  30
ENDBRANCH  24  26
ENDBRANCH   7  20
TORSDOF 8
ENDMDL
MODEL 6
REMARK VINA RESULT:      -7.5      1.024      1.933
REMARK  Name = 
REMARK  11 active torsions:
REMARK  status: ('A' for Active; 'I' for Inactive)
REMARK    1  A    between atoms: C_1  and  O_2
REMARK    2  A    between atoms: O_2  and  C_3
REMARK    3  A    between atoms: C_5  and  C_6
REMARK    4  A    between atoms: C_12  and  C_13
REMARK    5  A    between atoms: C_17  and  C_18
REMARK    6  A    between atoms: N_20  and  C_21
REMARK    7  A    between atoms: C_21  and  C_22
REMARK    8  A    between atoms: C_22  and  N_23
REMARK    9  A    between atoms: N_23  and  C_24
REMARK   10  A    between atoms: N_23  and  C_25
REMARK   11  A    between atoms: C_31  and  O_32
REMARK                            x       y       z     vdW  Elec       q    Type
REMARK                         _______ _______ _______ _____ _____    ______ ____
ROOT
ATOM      1  C   UNL     1       1.947   5.903  20.315  0.00  0.00    +0.000 A 
ATOM      2  C   UNL     1       1.114   4.874  21.015  0.00  0.00    +0.000 A 
ATOM      3  C   UNL     1       1.538   3.606  20.995  0.00  0.00    +0.000 A 
ATOM      4  C   UNL     1       2.719   3.280  20.300  0.00  0.00    +0.000 A 
ATOM      5  N   UNL     1       3.310   2.119  20.140  0.00  0.00    +0.000 NA
ATOM      6  C   UNL     1       4.422   2.400  19.398  0.00  0.00    +0.000 A 
ATOM      7  C   UNL     1       4.531   3.750  19.095  0.00  0.00    +0.000 A 
ATOM      8  N   UNL     1       3.398   4.312  19.668  0.00  0.00    +0.000 N 
ATOM      9  N   UNL     1       3.034   5.637  19.647  0.00  0.00    +0.000 NA
ENDROOT
BRANCH   1  12
ATOM     10  C   UNL     1       1.197   9.532  19.423  0.00  0.00    +0.000 A 
ATOM     11  C   UNL     1       1.670   8.209  19.360  0.00  0.00    +0.000 A 
ATOM     12  C   UNL     1       1.460   7.316  20.418  0.00  0.00    +0.000 A 
ATOM     13  C   UNL     1       0.804   7.766  21.569  0.00  0.00    +0.000 A 
ATOM     14  C   UNL     1       0.331   9.077  21.644  0.00  0.00    +0.000 A 
ATOM     15  C   UNL     1       0.522   9.956  20.577  0.00  0.00    +0.000 A 
BRANCH  10  17
ATOM     16  C   UNL     1       2.526   9.823  17.449  0.00  0.00    +0.000 C 
ATOM     17  O   UNL     1       1.473  10.262  18.296  0.00  0.00    +0.000 OA
ENDBRANCH  10  17
BRANCH  15  18
ATOM     18  O   UNL     1       0.041  11.229  20.705  0.00  0.00    +0.000 OA
ATOM     19  H   UNL     1      -0.891  11.199  20.975  0.00  0.00    +0.000 HD
ENDBRANCH  15  18
ENDBRANCH   1  12
BRANCH   7  20
ATOM     20  C   UNL     1       5.618   4.451  18.405  0.00  0.00    +0.000 A 
ATOM     21  C   UNL     1       6.327   5.466  19.069  0.00  0.00    +0.000 A 
ATOM     22  C   UNL     1       7.283   6.233  18.402  0.00  0.00    +0.000 A 
ATOM     23  C   UNL     1       7.534   6.001  17.052  0.00  0.00    +0.000 A 
ATOM     24  C   UNL     1       6.841   4.996  16.368  0.00  0.00    +0.000 A 
ATOM     25  C   UNL     1       5.903   4.211  17.053  0.00  0.00    +0.000 A 
BRANCH  24  26
ATOM     26  C   UNL     1       7.106   4.837  14.911  0.00  0.00    +0.000 C 
ATOM     27  O   UNL     1       7.836   5.638  14.333  0.00  0.00    +0.000 OA
ATOM     28  N   UNL     1       6.450   3.813  14.262  0.00  0.00    +0.000 N 
ATOM     29  H   UNL     1       5.950   3.106  14.780  0.00  0.00    +0.000 HD
BRANCH  28  30
ATOM     30  C   UNL     1       6.642   3.573  12.847  0.00  0.00    +0.000 C 
BRANCH  30  31
ATOM     31  C   UNL     1       5.406   3.946  12.009  0.00  0.00    +0.000 C 
BRANCH  31  32
ATOM     32  N   UNL     1       4.547   2.804  11.617  0.00  0.00    +0.000 NA
ATOM     33  C   UNL     1       3.627   3.146  10.534  0.00  0.00    +0.000 C 
ATOM     34  C   UNL     1       5.395   1.679  11.208  0.00  0.00    +0.000 C 
ENDBRANCH  31  32
ENDBRANCH  30  31
ENDBRANCH  28  30
ENDBRANCH  24  26
ENDBRANCH   7  20
TORSDOF 8
ENDMDL
MODEL 7
REMARK VINA RESULT:      -7.5      4.038      7.449
REMARK  Name = 
REMARK  11 active torsions:
REMARK  status: ('A' for Active; 'I' for Inactive)
REMARK    1  A    between atoms: C_1  and  O_2
REMARK    2  A    between atoms: O_2  and  C_3
REMARK    3  A    between atoms: C_5  and  C_6
REMARK    4  A    between atoms: C_12  and  C_13
REMARK    5  A    between atoms: C_17  and  C_18
REMARK    6  A    between atoms: N_20  and  C_21
REMARK    7  A    between atoms: C_21  and  C_22
REMARK    8  A    between atoms: C_22  and  N_23
REMARK    9  A    between atoms: N_23  and  C_24
REMARK   10  A    between atoms: N_23  and  C_25
REMARK   11  A    between atoms: C_31  and  O_32
REMARK                            x       y       z     vdW  Elec       q    Type
REMARK                         _______ _______ _______ _____ _____    ______ ____
ROOT
ATOM      1  C   UNL     1      -0.227  13.501  20.906  0.00  0.00    +0.000 A 
ATOM      2  C   UNL     1      -0.934  13.794  22.193  0.00  0.00    +0.000 A 
ATOM      3  C   UNL     1      -1.162  12.775  23.027  0.00  0.00    +0.000 A 
ATOM      4  C   UNL     1      -0.767  11.475  22.660  0.00  0.00    +0.000 A 
ATOM      5  N   UNL     1      -0.897  10.339  23.305  0.00  0.00    +0.000 NA
ATOM      6  C   UNL     1      -0.319   9.411  22.486  0.00  0.00    +0.000 A 
ATOM      7  C   UNL     1       0.180   9.971  21.319  0.00  0.00    +0.000 A 
ATOM      8  N   UNL     1      -0.141  11.317  21.431  0.00  0.00    +0.000 N 
ATOM      9  N   UNL     1       0.137  12.311  20.523  0.00  0.00    +0.000 NA
ENDROOT
BRANCH   1  12
ATOM     10  C   UNL     1       1.605  15.932  18.611  0.00  0.00    +0.000 A 
ATOM     11  C   UNL     1       1.324  14.842  19.455  0.00  0.00    +0.000 A 
ATOM     12  C   UNL     1       0.058  14.686  20.035  0.00  0.00    +0.000 A 
ATOM     13  C   UNL     1      -0.923  15.656  19.799  0.00  0.00    +0.000 A 
ATOM     14  C   UNL     1      -0.655  16.742  18.965  0.00  0.00    +0.000 A 
ATOM     15  C   UNL     1       0.600  16.880  18.370  0.00  0.00    +0.000 A 
BRANCH  10  17
ATOM     16  C   UNL     1       3.963  15.991  19.036  0.00  0.00    +0.000 C 
ATOM     17  O   UNL     1       2.883  15.919  18.116  0.00  0.00    +0.000 OA
ENDBRANCH  10  17
BRANCH  15  18
ATOM     18  O   UNL     1       0.809  17.964  17.565  0.00  0.00    +0.000 OA
ATOM     19  H   UNL     1      -0.043  18.374  17.344  0.00  0.00    +0.000 HD
ENDBRANCH  15  18
ENDBRANCH   1  12
BRANCH   7  20
ATOM     20  C   UNL     1       0.943   9.327  20.245  0.00  0.00    +0.000 A 
ATOM     21  C   UNL     1       0.913   9.864  18.946  0.00  0.00    +0.000 A 
ATOM     22  C   UNL     1       1.528   9.207  17.880  0.00  0.00    +0.000 A 
ATOM     23  C   UNL     1       2.175   7.994  18.097  0.00  0.00    +0.000 A 
ATOM     24  C   UNL     1       2.219   7.438  19.382  0.00  0.00    +0.000 A 
ATOM     25  C   UNL     1       1.624   8.119  20.452  0.00  0.00    +0.000 A 
BRANCH  24  26
ATOM     26  C   UNL     1       2.869   6.108  19.540  0.00  0.00    +0.000 C 
ATOM     27  O   UNL     1       2.349   5.255  20.254  0.00  0.00    +0.000 OA
ATOM     28  N   UNL     1       4.083   5.925  18.913  0.00  0.00    +0.000 N 
ATOM     29  H   UNL     1       4.429   6.597  18.244  0.00  0.00    +0.000 HD
BRANCH  28  30
ATOM     30  C   UNL     1       4.795   4.667  19.001  0.00  0.00    +0.000 C 
BRANCH  30  31
ATOM     31  C   UNL     1       4.528   3.748  17.796  0.00  0.00    +0.000 C 
BRANCH  31  32
ATOM     32  N   UNL     1       3.833   2.479  18.118  0.00  0.00    +0.000 NA
ATOM     33  C   UNL     1       3.913   2.146  19.538  0.00  0.00    +0.000 C 
ATOM     34  C   UNL     1       2.427   2.582  17.712  0.00  0.00    +0.000 C 
ENDBRANCH  31  32
ENDBRANCH  30  31
ENDBRANCH  28  30
ENDBRANCH  24  26
ENDBRANCH   7  20
TORSDOF 8
ENDMDL
MODEL 8
REMARK VINA RESULT:      -7.4      5.932      9.621
REMARK  Name = 
REMARK  11 active torsions:
REMARK  status: ('A' for Active; 'I' for Inactive)
REMARK    1  A    between atoms: C_1  and  O_2
REMARK    2  A    between atoms: O_2  and  C_3
REMARK    3  A    between atoms: C_5  and  C_6
REMARK    4  A    between atoms: C_12  and  C_13
REMARK    5  A    between atoms: C_17  and  C_18
REMARK    6  A    between atoms: N_20  and  C_21
REMARK    7  A    between atoms: C_21  and  C_22
REMARK    8  A    between atoms: C_22  and  N_23
REMARK    9  A    between atoms: N_23  and  C_24
REMARK   10  A    between atoms: N_23  and  C_25
REMARK   11  A    between atoms: C_31  and  O_32
REMARK                            x       y       z     vdW  Elec       q    Type
REMARK                         _______ _______ _______ _____ _____    ______ ____
ROOT
ATOM      1  C   UNL     1      -5.631  12.161  19.781  0.00  0.00    +0.000 A 
ATOM      2  C   UNL     1      -6.671  11.957  18.723  0.00  0.00    +0.000 A 
ATOM      3  C   UNL     1      -6.260  11.607  17.500  0.00  0.00    +0.000 A 
ATOM      4  C   UNL     1      -4.883  11.475  17.243  0.00  0.00    +0.000 A 
ATOM      5  N   UNL     1      -4.259  11.156  16.132  0.00  0.00    +0.000 NA
ATOM      6  C   UNL     1      -2.934  11.162  16.469  0.00  0.00    +0.000 A 
ATOM      7  C   UNL     1      -2.728  11.484  17.803  0.00  0.00    +0.000 A 
ATOM      8  N   UNL     1      -4.007  11.711  18.293  0.00  0.00    +0.000 N 
ATOM      9  N   UNL     1      -4.348  12.066  19.576  0.00  0.00    +0.000 NA
ENDROOT
BRANCH   1  12
ATOM     10  C   UNL     1      -5.837  13.592  23.308  0.00  0.00    +0.000 A 
ATOM     11  C   UNL     1      -5.362  13.245  22.031  0.00  0.00    +0.000 A 
ATOM     12  C   UNL     1      -6.148  12.493  21.147  0.00  0.00    +0.000 A 
ATOM     13  C   UNL     1      -7.407  12.049  21.566  0.00  0.00    +0.000 A 
ATOM     14  C   UNL     1      -7.889  12.387  22.831  0.00  0.00    +0.000 A 
ATOM     15  C   UNL     1      -7.112  13.157  23.698  0.00  0.00    +0.000 A 
BRANCH  10  17
ATOM     16  C   UNL     1      -5.083  15.758  24.005  0.00  0.00    +0.000 C 
ATOM     17  O   UNL     1      -4.949  14.344  24.032  0.00  0.00    +0.000 OA
ENDBRANCH  10  17
BRANCH  15  18
ATOM     18  O   UNL     1      -7.632  13.455  24.926  0.00  0.00    +0.000 OA
ATOM     19  H   UNL     1      -6.947  13.865  25.479  0.00  0.00    +0.000 HD
ENDBRANCH  15  18
ENDBRANCH   1  12
BRANCH   7  20
ATOM     20  C   UNL     1      -1.471  11.503  18.558  0.00  0.00    +0.000 A 
ATOM     21  C   UNL     1      -0.769  12.711  18.716  0.00  0.00    +0.000 A 
ATOM     22  C   UNL     1       0.487  12.741  19.323  0.00  0.00    +0.000 A 
ATOM     23  C   UNL     1       1.065  11.556  19.771  0.00  0.00    +0.000 A 
ATOM     24  C   UNL     1       0.385  10.341  19.626  0.00  0.00    +0.000 A 
ATOM     25  C   UNL     1      -0.888  10.324  19.041  0.00  0.00    +0.000 A 
BRANCH  24  26
ATOM     26  C   UNL     1       1.081   9.100  20.067  0.00  0.00    +0.000 C 
ATOM     27  O   UNL     1       1.079   8.787  21.254  0.00  0.00    +0.000 OA
ATOM     28  N   UNL     1       1.763   8.388  19.103  0.00  0.00    +0.000 N 
ATOM     29  H   UNL     1       1.653   8.603  18.123  0.00  0.00    +0.000 HD
BRANCH  28  30
ATOM     30  C   UNL     1       2.469   7.166  19.428  0.00  0.00    +0.000 C 
BRANCH  30  31
ATOM     31  C   UNL     1       2.480   6.159  18.263  0.00  0.00    +0.000 C 
BRANCH  31  32
ATOM     32  N   UNL     1       3.401   5.011  18.435  0.00  0.00    +0.000 NA
ATOM     33  C   UNL     1       2.688   3.745  18.592  0.00  0.00    +0.000 C 
ATOM     34  C   UNL     1       4.298   4.934  17.277  0.00  0.00    +0.000 C 
ENDBRANCH  31  32
ENDBRANCH  30  31
ENDBRANCH  28  30
ENDBRANCH  24  26
ENDBRANCH   7  20
TORSDOF 8
ENDMDL
MODEL 9
REMARK VINA RESULT:      -7.4      2.903      5.259
REMARK  Name = 
REMARK  11 active torsions:
REMARK  status: ('A' for Active; 'I' for Inactive)
REMARK    1  A    between atoms: C_1  and  O_2
REMARK    2  A    between atoms: O_2  and  C_3
REMARK    3  A    between atoms: C_5  and  C_6
REMARK    4  A    between atoms: C_12  and  C_13
REMARK    5  A    between atoms: C_17  and  C_18
REMARK    6  A    between atoms: N_20  and  C_21
REMARK    7  A    between atoms: C_21  and  C_22
REMARK    8  A    between atoms: C_22  and  N_23
REMARK    9  A    between atoms: N_23  and  C_24
REMARK   10  A    between atoms: N_23  and  C_25
REMARK   11  A    between atoms: C_31  and  O_32
REMARK                            x       y       z     vdW  Elec       q    Type
REMARK                         _______ _______ _______ _____ _____    ______ ____
ROOT
ATOM      1  C   UNL     1       1.918   6.472  20.037  0.00  0.00    +0.000 A 
ATOM      2  C   UNL     1       1.103   5.512  20.848  0.00  0.00    +0.000 A 
ATOM      3  C   UNL     1       1.420   4.215  20.787  0.00  0.00    +0.000 A 
ATOM      4  C   UNL     1       2.472   3.796  19.951  0.00  0.00    +0.000 A 
ATOM      5  N   UNL     1       2.944   2.591  19.728  0.00  0.00    +0.000 NA
ATOM      6  C   UNL     1       3.971   2.782  18.848  0.00  0.00    +0.000 A 
ATOM      7  C   UNL     1       4.146   4.120  18.519  0.00  0.00    +0.000 A 
ATOM      8  N   UNL     1       3.144   4.770  19.226  0.00  0.00    +0.000 N 
ATOM      9  N   UNL     1       2.886   6.120  19.239  0.00  0.00    +0.000 NA
ENDROOT
BRANCH   1  12
ATOM     10  C   UNL     1       0.869   9.782  21.608  0.00  0.00    +0.000 A 
ATOM     11  C   UNL     1       1.182   8.422  21.438  0.00  0.00    +0.000 A 
ATOM     12  C   UNL     1       1.561   7.919  20.187  0.00  0.00    +0.000 A 
ATOM     13  C   UNL     1       1.586   8.781  19.086  0.00  0.00    +0.000 A 
ATOM     14  C   UNL     1       1.277  10.133  19.242  0.00  0.00    +0.000 A 
ATOM     15  C   UNL     1       0.924  10.634  20.496  0.00  0.00    +0.000 A 
BRANCH  10  17
ATOM     16  C   UNL     1      -0.838  10.222  23.233  0.00  0.00    +0.000 C 
ATOM     17  O   UNL     1       0.538  10.106  22.898  0.00  0.00    +0.000 OA
ENDBRANCH  10  17
BRANCH  15  18
ATOM     18  O   UNL     1       0.628  11.965  20.590  0.00  0.00    +0.000 OA
ATOM     19  H   UNL     1       0.480  12.200  21.520  0.00  0.00    +0.000 HD
ENDBRANCH  15  18
ENDBRANCH   1  12
BRANCH   7  20
ATOM     20  C   UNL     1       5.188   4.732  17.689  0.00  0.00    +0.000 A 
ATOM     21  C   UNL     1       5.521   4.158  16.449  0.00  0.00    +0.000 A 
ATOM     22  C   UNL     1       6.588   4.645  15.693  0.00  0.00    +0.000 A 
ATOM     23  C   UNL     1       7.347   5.708  16.175  0.00  0.00    +0.000 A 
ATOM     24  C   UNL     1       7.035   6.296  17.407  0.00  0.00    +0.000 A 
ATOM     25  C   UNL     1       5.944   5.820  18.145  0.00  0.00    +0.000 A 
BRANCH  24  26
ATOM     26  C   UNL     1       7.921   7.387  17.898  0.00  0.00    +0.000 C 
ATOM     27  O   UNL     1       8.627   7.202  18.886  0.00  0.00    +0.000 OA
ATOM     28  N   UNL     1       7.851   8.597  17.240  0.00  0.00    +0.000 N 
ATOM     29  H   UNL     1       7.351   8.685  16.368  0.00  0.00    +0.000 HD
BRANCH  28  30
ATOM     30  C   UNL     1       8.674   9.720  17.638  0.00  0.00    +0.000 C 
BRANCH  30  31
ATOM     31  C   UNL     1       8.609   9.996  19.151  0.00  0.00    +0.000 C 
BRANCH  31  32
ATOM     32  N   UNL     1       9.683  10.873  19.675  0.00  0.00    +0.000 NA
ATOM     33  C   UNL     1       9.869  12.072  18.859  0.00  0.00    +0.000 C 
ATOM     34  C   UNL     1       9.363  11.259  21.054  0.00  0.00    +0.000 C 
ENDBRANCH  31  32
ENDBRANCH  30  31
ENDBRANCH  28  30
ENDBRANCH  24  26
ENDBRANCH   7  20
TORSDOF 8
ENDMDL
