MODEL 1
REMARK VINA RESULT:      -8.6      0.000      0.000
REMARK  Name = 
REMARK  7 active torsions:
REMARK  status: ('A' for Active; 'I' for Inactive)
REMARK    1  A    between atoms: C_1  and  C_2
REMARK    2  A    between atoms: C_7  and  S_8
REMARK    3  A    between atoms: S_8  and  N_11
REMARK    4  A    between atoms: C_14  and  C_15
REMARK    5  A    between atoms: N_17  and  C_18
REMARK    6  A    between atoms: N_17  and  C_19
REMARK    7  A    between atoms: C_19  and  C_20
REMARK                            x       y       z     vdW  Elec       q    Type
REMARK                         _______ _______ _______ _____ _____    ______ ____
ROOT
ATOM      1  N   UNL     1       4.743   4.645  18.269  0.00  0.00    +0.000 NA
ATOM      2  C   UNL     1       5.148   4.993  16.893  0.00  0.00    +0.000 C 
ATOM      3  C   UNL     1       6.647   4.780  16.722  0.00  0.00    +0.000 C 
ATOM      4  C   UNL     1       7.445   5.654  17.693  0.00  0.00    +0.000 C 
ATOM      5  C   UNL     1       7.021   5.256  19.118  0.00  0.00    +0.000 C 
ATOM      6  C   UNL     1       5.509   5.331  19.344  0.00  0.00    +0.000 C 
ENDROOT
BRANCH   4   7
ATOM      7  C   UNL     1       7.258   7.162  17.441  0.00  0.00    +0.000 C 
ATOM      8  O   UNL     1       6.498   7.545  16.547  0.00  0.00    +0.000 OA
ATOM      9  N   UNL     1       7.974   8.071  18.207  0.00  0.00    +0.000 N 
ATOM     10  C   UNL     1       8.860   7.742  19.314  0.00  0.00    +0.000 C 
BRANCH   9  11
ATOM     11  C   UNL     1       7.883   9.490  17.858  0.00  0.00    +0.000 C 
BRANCH  11  12
ATOM     12  C   UNL     1       8.967  10.347  18.467  0.00  0.00    +0.000 A 
ATOM     13  C   UNL     1       8.996  10.603  19.846  0.00  0.00    +0.000 A 
ATOM     14  C   UNL     1      10.040  11.338  20.412  0.00  0.00    +0.000 A 
ATOM     15  C   UNL     1      11.069  11.824  19.608  0.00  0.00    +0.000 A 
ATOM     16  C   UNL     1      11.042  11.596  18.234  0.00  0.00    +0.000 A 
ATOM     17  C   UNL     1       9.993  10.870  17.665  0.00  0.00    +0.000 A 
ENDBRANCH  11  12
ENDBRANCH   9  11
ENDBRANCH   4   7
BRANCH   1  18
ATOM     18  S   UNL     1       3.054   4.521  18.532  0.00  0.00    +0.000 S 
ATOM     19  O   UNL     1       2.854   3.813  19.778  0.00  0.00    +0.000 OA
ATOM     20  O   UNL     1       2.425   4.068  17.308  0.00  0.00    +0.000 OA
BRANCH  18  27
ATOM     21  C   UNL     1      -0.111  11.713  21.625  0.00  0.00    +0.000 C 
ATOM     22  C   UNL     1       0.202  10.328  21.068  0.00  0.00    +0.000 C 
ATOM     23  S   UNL     1       1.172  10.513  19.540  0.00  0.00    +0.000 S 
ATOM     24  C   UNL     1       1.631   8.813  19.285  0.00  0.00    +0.000 A 
ATOM     25  C   UNL     1       2.011   8.412  17.995  0.00  0.00    +0.000 A 
ATOM     26  C   UNL     1       2.456   7.110  17.751  0.00  0.00    +0.000 A 
ATOM     27  C   UNL     1       2.531   6.205  18.809  0.00  0.00    +0.000 A 
ATOM     28  C   UNL     1       2.136   6.588  20.099  0.00  0.00    +0.000 A 
ATOM     29  C   UNL     1       1.700   7.893  20.340  0.00  0.00    +0.000 A 
ATOM     30  N   UNL     1       1.421   8.252  21.668  0.00  0.00    +0.000 N 
ATOM     31  C   UNL     1       0.909   9.450  22.094  0.00  0.00    +0.000 C 
ATOM     32  O   UNL     1       0.913   9.698  23.301  0.00  0.00    +0.000 OA
ATOM     33  H   UNL     1       1.708   7.633  22.416  0.00  0.00    +0.000 HD
ENDBRANCH  18  27
ENDBRANCH   1  18
TORSDOF 5
ENDMDL
MODEL 2
REMARK VINA RESULT:      -8.1      4.734     10.428
REMARK  Name = 
REMARK  7 active torsions:
REMARK  status: ('A' for Active; 'I' for Inactive)
REMARK    1  A    between atoms: C_1  and  C_2
REMARK    2  A    between atoms: C_7  and  S_8
REMARK    3  A    between atoms: S_8  and  N_11
REMARK    4  A    between atoms: C_14  and  C_15
REMARK    5  A    between atoms: N_17  and  C_18
REMARK    6  A    between atoms: N_17  and  C_19
REMARK    7  A    between atoms: C_19  and  C_20
REMARK                            x       y       z     vdW  Elec       q    Type
REMARK                         _______ _______ _______ _____ _____    ______ ____
ROOT
ATOM      1  N   UNL     1       0.740  10.847  19.944  0.00  0.00    +0.000 NA
ATOM      2  C   UNL     1       0.790  12.321  19.889  0.00  0.00    +0.000 C 
ATOM      3  C   UNL     1       0.684  12.897  21.296  0.00  0.00    +0.000 C 
ATOM      4  C   UNL     1      -0.629  12.487  21.966  0.00  0.00    +0.000 C 
ATOM      5  C   UNL     1      -0.647  10.949  22.030  0.00  0.00    +0.000 C 
ATOM      6  C   UNL     1      -0.431  10.283  20.670  0.00  0.00    +0.000 C 
ENDROOT
BRANCH   4   7
ATOM      7  C   UNL     1      -1.874  13.043  21.247  0.00  0.00    +0.000 C 
ATOM      8  O   UNL     1      -1.756  13.572  20.138  0.00  0.00    +0.000 OA
ATOM      9  N   UNL     1      -3.109  12.966  21.875  0.00  0.00    +0.000 N 
ATOM     10  C   UNL     1      -3.378  12.328  23.155  0.00  0.00    +0.000 C 
BRANCH   9  11
ATOM     11  C   UNL     1      -4.250  13.623  21.233  0.00  0.00    +0.000 C 
BRANCH  11  12
ATOM     12  C   UNL     1      -5.162  12.682  20.482  0.00  0.00    +0.000 A 
ATOM     13  C   UNL     1      -4.783  12.146  19.241  0.00  0.00    +0.000 A 
ATOM     14  C   UNL     1      -5.601  11.223  18.586  0.00  0.00    +0.000 A 
ATOM     15  C   UNL     1      -6.804  10.821  19.162  0.00  0.00    +0.000 A 
ATOM     16  C   UNL     1      -7.203  11.361  20.383  0.00  0.00    +0.000 A 
ATOM     17  C   UNL     1      -6.391  12.293  21.034  0.00  0.00    +0.000 A 
ENDBRANCH  11  12
ENDBRANCH   9  11
ENDBRANCH   4   7
BRANCH   1  18
ATOM     18  S   UNL     1       1.166  10.040  18.494  0.00  0.00    +0.000 S 
ATOM     19  O   UNL     1       2.333  10.701  17.950  0.00  0.00    +0.000 OA
ATOM     20  O   UNL     1      -0.029   9.861  17.694  0.00  0.00    +0.000 OA
BRANCH  18  27
ATOM     21  C   UNL     1       3.809   2.037  19.018  0.00  0.00    +0.000 C 
ATOM     22  C   UNL     1       3.110   3.376  18.805  0.00  0.00    +0.000 C 
ATOM     23  S   UNL     1       3.052   4.269  20.389  0.00  0.00    +0.000 S 
ATOM     24  C   UNL     1       2.480   5.850  19.806  0.00  0.00    +0.000 A 
ATOM     25  C   UNL     1       1.869   6.717  20.725  0.00  0.00    +0.000 A 
ATOM     26  C   UNL     1       1.472   8.002  20.342  0.00  0.00    +0.000 A 
ATOM     27  C   UNL     1       1.697   8.423  19.033  0.00  0.00    +0.000 A 
ATOM     28  C   UNL     1       2.288   7.559  18.100  0.00  0.00    +0.000 A 
ATOM     29  C   UNL     1       2.692   6.279  18.489  0.00  0.00    +0.000 A 
ATOM     30  N   UNL     1       3.376   5.497  17.546  0.00  0.00    +0.000 N 
ATOM     31  C   UNL     1       3.778   4.197  17.708  0.00  0.00    +0.000 C 
ATOM     32  O   UNL     1       4.549   3.709  16.879  0.00  0.00    +0.000 OA
ATOM     33  H   UNL     1       3.710   5.933  16.694  0.00  0.00    +0.000 HD
ENDBRANCH  18  27
ENDBRANCH   1  18
TORSDOF 5
ENDMDL
MODEL 3
REMARK VINA RESULT:      -8.0      4.965     10.604
REMARK  Name = 
REMARK  7 active torsions:
REMARK  status: ('A' for Active; 'I' for Inactive)
REMARK    1  A    between atoms: C_1  and  C_2
REMARK    2  A    between atoms: C_7  and  S_8
REMARK    3  A    between atoms: S_8  and  N_11
REMARK    4  A    between atoms: C_14  and  C_15
REMARK    5  A    between atoms: N_17  and  C_18
REMARK    6  A    between atoms: N_17  and  C_19
REMARK    7  A    between atoms: C_19  and  C_20
REMARK                            x       y       z     vdW  Elec       q    Type
REMARK                         _______ _______ _______ _____ _____    ______ ____
ROOT
ATOM      1  N   UNL     1       0.142  10.310  20.273  0.00  0.00    +0.000 NA
ATOM      2  C   UNL     1      -0.644   9.854  19.111  0.00  0.00    +0.000 C 
ATOM      3  C   UNL     1      -0.689  10.948  18.052  0.00  0.00    +0.000 C 
ATOM      4  C   UNL     1      -1.337  12.222  18.598  0.00  0.00    +0.000 C 
ATOM      5  C   UNL     1      -0.488  12.689  19.794  0.00  0.00    +0.000 C 
ATOM      6  C   UNL     1      -0.294  11.607  20.859  0.00  0.00    +0.000 C 
ENDROOT
BRANCH   4   7
ATOM      7  C   UNL     1      -2.815  12.028  18.988  0.00  0.00    +0.000 C 
ATOM      8  O   UNL     1      -3.189  12.305  20.131  0.00  0.00    +0.000 OA
ATOM      9  N   UNL     1      -3.701  11.514  18.052  0.00  0.00    +0.000 N 
ATOM     10  C   UNL     1      -3.388  11.195  16.667  0.00  0.00    +0.000 C 
BRANCH   9  11
ATOM     11  C   UNL     1      -5.066  11.211  18.488  0.00  0.00    +0.000 C 
BRANCH  11  12
ATOM     12  C   UNL     1      -6.024  12.373  18.369  0.00  0.00    +0.000 A 
ATOM     13  C   UNL     1      -6.178  13.061  17.156  0.00  0.00    +0.000 A 
ATOM     14  C   UNL     1      -7.116  14.088  17.035  0.00  0.00    +0.000 A 
ATOM     15  C   UNL     1      -7.914  14.439  18.121  0.00  0.00    +0.000 A 
ATOM     16  C   UNL     1      -7.758  13.778  19.338  0.00  0.00    +0.000 A 
ATOM     17  C   UNL     1      -6.812  12.757  19.464  0.00  0.00    +0.000 A 
ENDBRANCH  11  12
ENDBRANCH   9  11
ENDBRANCH   4   7
BRANCH   1  18
ATOM     18  S   UNL     1       0.558   9.094  21.406  0.00  0.00    +0.000 S 
ATOM     19  O   UNL     1      -0.673   8.536  21.923  0.00  0.00    +0.000 OA
ATOM     20  O   UNL     1       1.571   9.618  22.299  0.00  0.00    +0.000 OA
BRANCH  18  27
ATOM     21  C   UNL     1       3.788   1.900  18.385  0.00  0.00    +0.000 C 
ATOM     22  C   UNL     1       3.404   3.182  19.115  0.00  0.00    +0.000 C 
ATOM     23  S   UNL     1       3.290   4.538  17.907  0.00  0.00    +0.000 S 
ATOM     24  C   UNL     1       2.566   5.788  18.947  0.00  0.00    +0.000 A 
ATOM     25  C   UNL     1       2.703   7.132  18.567  0.00  0.00    +0.000 A 
ATOM     26  C   UNL     1       2.089   8.150  19.301  0.00  0.00    +0.000 A 
ATOM     27  C   UNL     1       1.324   7.819  20.418  0.00  0.00    +0.000 A 
ATOM     28  C   UNL     1       1.195   6.482  20.820  0.00  0.00    +0.000 A 
ATOM     29  C   UNL     1       1.803   5.466  20.077  0.00  0.00    +0.000 A 
ATOM     30  N   UNL     1       1.552   4.140  20.460  0.00  0.00    +0.000 N 
ATOM     31  C   UNL     1       2.116   3.016  19.914  0.00  0.00    +0.000 C 
ATOM     32  O   UNL     1       1.646   1.916  20.209  0.00  0.00    +0.000 OA
ATOM     33  H   UNL     1       0.814   3.951  21.129  0.00  0.00    +0.000 HD
ENDBRANCH  18  27
ENDBRANCH   1  18
TORSDOF 5
ENDMDL
MODEL 4
REMARK VINA RESULT:      -7.9      4.964      9.556
REMARK  Name = 
REMARK  7 active torsions:
REMARK  status: ('A' for Active; 'I' for Inactive)
REMARK    1  A    between atoms: C_1  and  C_2
REMARK    2  A    between atoms: C_7  and  S_8
REMARK    3  A    between atoms: S_8  and  N_11
REMARK    4  A    between atoms: C_14  and  C_15
REMARK    5  A    between atoms: N_17  and  C_18
REMARK    6  A    between atoms: N_17  and  C_19
REMARK    7  A    between atoms: C_19  and  C_20
REMARK                            x       y       z     vdW  Elec       q    Type
REMARK                         _______ _______ _______ _____ _____    ______ ____
ROOT
ATOM      1  N   UNL     1       0.572  10.435  20.344  0.00  0.00    +0.000 NA
ATOM      2  C   UNL     1      -0.736  10.442  19.661  0.00  0.00    +0.000 C 
ATOM      3  C   UNL     1      -0.726  11.463  18.530  0.00  0.00    +0.000 C 
ATOM      4  C   UNL     1      -0.454  12.873  19.059  0.00  0.00    +0.000 C 
ATOM      5  C   UNL     1       0.923  12.844  19.747  0.00  0.00    +0.000 C 
ATOM      6  C   UNL     1       1.040  11.764  20.824  0.00  0.00    +0.000 C 
ENDROOT
BRANCH   4   7
ATOM      7  C   UNL     1      -1.556  13.385  20.006  0.00  0.00    +0.000 C 
ATOM      8  O   UNL     1      -2.343  12.586  20.520  0.00  0.00    +0.000 OA
ATOM      9  N   UNL     1      -1.664  14.748  20.244  0.00  0.00    +0.000 N 
ATOM     10  C   UNL     1      -0.771  15.778  19.734  0.00  0.00    +0.000 C 
BRANCH   9  11
ATOM     11  C   UNL     1      -2.802  15.221  21.037  0.00  0.00    +0.000 C 
BRANCH  11  12
ATOM     12  C   UNL     1      -2.600  15.114  22.530  0.00  0.00    +0.000 A 
ATOM     13  C   UNL     1      -1.323  15.242  23.098  0.00  0.00    +0.000 A 
ATOM     14  C   UNL     1      -1.155  15.212  24.484  0.00  0.00    +0.000 A 
ATOM     15  C   UNL     1      -2.258  15.056  25.320  0.00  0.00    +0.000 A 
ATOM     16  C   UNL     1      -3.529  14.907  24.770  0.00  0.00    +0.000 A 
ATOM     17  C   UNL     1      -3.698  14.926  23.383  0.00  0.00    +0.000 A 
ENDBRANCH  11  12
ENDBRANCH   9  11
ENDBRANCH   4   7
BRANCH   1  18
ATOM     18  S   UNL     1       0.835   9.129  21.422  0.00  0.00    +0.000 S 
ATOM     19  O   UNL     1      -0.459   8.678  21.888  0.00  0.00    +0.000 OA
ATOM     20  O   UNL     1       1.875   9.502  22.359  0.00  0.00    +0.000 OA
BRANCH  18  27
ATOM     21  C   UNL     1       3.752   1.871  18.241  0.00  0.00    +0.000 C 
ATOM     22  C   UNL     1       3.446   3.172  18.975  0.00  0.00    +0.000 C 
ATOM     23  S   UNL     1       3.170   4.489  17.751  0.00  0.00    +0.000 S 
ATOM     24  C   UNL     1       2.564   5.765  18.834  0.00  0.00    +0.000 A 
ATOM     25  C   UNL     1       2.638   7.097  18.400  0.00  0.00    +0.000 A 
ATOM     26  C   UNL     1       2.107   8.133  19.174  0.00  0.00    +0.000 A 
ATOM     27  C   UNL     1       1.488   7.831  20.386  0.00  0.00    +0.000 A 
ATOM     28  C   UNL     1       1.425   6.506  20.840  0.00  0.00    +0.000 A 
ATOM     29  C   UNL     1       1.949   5.472  20.059  0.00  0.00    +0.000 A 
ATOM     30  N   UNL     1       1.762   4.156  20.509  0.00  0.00    +0.000 N 
ATOM     31  C   UNL     1       2.268   3.021  19.931  0.00  0.00    +0.000 C 
ATOM     32  O   UNL     1       1.850   1.926  20.314  0.00  0.00    +0.000 OA
ATOM     33  H   UNL     1       1.115   3.983  21.269  0.00  0.00    +0.000 HD
ENDBRANCH  18  27
ENDBRANCH   1  18
TORSDOF 5
ENDMDL
MODEL 5
REMARK VINA RESULT:      -7.9      4.124      9.558
REMARK  Name = 
REMARK  7 active torsions:
REMARK  status: ('A' for Active; 'I' for Inactive)
REMARK    1  A    between atoms: C_1  and  C_2
REMARK    2  A    between atoms: C_7  and  S_8
REMARK    3  A    between atoms: S_8  and  N_11
REMARK    4  A    between atoms: C_14  and  C_15
REMARK    5  A    between atoms: N_17  and  C_18
REMARK    6  A    between atoms: N_17  and  C_19
REMARK    7  A    between atoms: C_19  and  C_20
REMARK                            x       y       z     vdW  Elec       q    Type
REMARK                         _______ _______ _______ _____ _____    ______ ____
ROOT
ATOM      1  N   UNL     1       0.546   9.806  20.239  0.00  0.00    +0.000 NA
ATOM      2  C   UNL     1      -0.570   9.707  19.279  0.00  0.00    +0.000 C 
ATOM      3  C   UNL     1      -0.384  10.722  18.158  0.00  0.00    +0.000 C 
ATOM      4  C   UNL     1      -0.347  12.151  18.705  0.00  0.00    +0.000 C 
ATOM      5  C   UNL     1       0.837  12.234  19.686  0.00  0.00    +0.000 C 
ATOM      6  C   UNL     1       0.790  11.169  20.784  0.00  0.00    +0.000 C 
ENDROOT
BRANCH   4   7
ATOM      7  C   UNL     1      -1.670  12.578  19.370  0.00  0.00    +0.000 C 
ATOM      8  O   UNL     1      -2.684  11.892  19.212  0.00  0.00    +0.000 OA
ATOM      9  N   UNL     1      -1.708  13.748  20.114  0.00  0.00    +0.000 N 
ATOM     10  C   UNL     1      -0.573  14.611  20.407  0.00  0.00    +0.000 C 
BRANCH   9  11
ATOM     11  C   UNL     1      -3.006  14.202  20.619  0.00  0.00    +0.000 C 
BRANCH  11  12
ATOM     12  C   UNL     1      -3.253  13.872  22.072  0.00  0.00    +0.000 A 
ATOM     13  C   UNL     1      -3.649  14.866  22.981  0.00  0.00    +0.000 A 
ATOM     14  C   UNL     1      -3.944  14.540  24.307  0.00  0.00    +0.000 A 
ATOM     15  C   UNL     1      -3.848  13.220  24.741  0.00  0.00    +0.000 A 
ATOM     16  C   UNL     1      -3.435  12.227  23.856  0.00  0.00    +0.000 A 
ATOM     17  C   UNL     1      -3.130  12.553  22.532  0.00  0.00    +0.000 A 
ENDBRANCH  11  12
ENDBRANCH   9  11
ENDBRANCH   4   7
BRANCH   1  18
ATOM     18  S   UNL     1       0.657   8.528  21.376  0.00  0.00    +0.000 S 
ATOM     19  O   UNL     1      -0.671   7.980  21.550  0.00  0.00    +0.000 OA
ATOM     20  O   UNL     1       1.430   8.984  22.513  0.00  0.00    +0.000 OA
BRANCH  18  27
ATOM     21  C   UNL     1       5.314   4.056  15.933  0.00  0.00    +0.000 C 
ATOM     22  C   UNL     1       4.280   4.850  16.725  0.00  0.00    +0.000 C 
ATOM     23  S   UNL     1       4.090   4.097  18.370  0.00  0.00    +0.000 S 
ATOM     24  C   UNL     1       3.092   5.351  19.145  0.00  0.00    +0.000 A 
ATOM     25  C   UNL     1       2.336   4.996  20.273  0.00  0.00    +0.000 A 
ATOM     26  C   UNL     1       1.596   5.955  20.969  0.00  0.00    +0.000 A 
ATOM     27  C   UNL     1       1.622   7.281  20.538  0.00  0.00    +0.000 A 
ATOM     28  C   UNL     1       2.358   7.644  19.402  0.00  0.00    +0.000 A 
ATOM     29  C   UNL     1       3.104   6.684  18.714  0.00  0.00    +0.000 A 
ATOM     30  N   UNL     1       3.907   7.122  17.650  0.00  0.00    +0.000 N 
ATOM     31  C   UNL     1       4.642   6.328  16.808  0.00  0.00    +0.000 C 
ATOM     32  O   UNL     1       5.460   6.863  16.056  0.00  0.00    +0.000 OA
ATOM     33  H   UNL     1       4.063   8.115  17.527  0.00  0.00    +0.000 HD
ENDBRANCH  18  27
ENDBRANCH   1  18
TORSDOF 5
ENDMDL
MODEL 6
REMARK VINA RESULT:      -7.8      4.137      9.153
REMARK  Name = 
REMARK  7 active torsions:
REMARK  status: ('A' for Active; 'I' for Inactive)
REMARK    1  A    between atoms: C_1  and  C_2
REMARK    2  A    between atoms: C_7  and  S_8
REMARK    3  A    between atoms: S_8  and  N_11
REMARK    4  A    between atoms: C_14  and  C_15
REMARK    5  A    between atoms: N_17  and  C_18
REMARK    6  A    between atoms: N_17  and  C_19
REMARK    7  A    between atoms: C_19  and  C_20
REMARK                            x       y       z     vdW  Elec       q    Type
REMARK                         _______ _______ _______ _____ _____    ______ ____
ROOT
ATOM      1  N   UNL     1       0.457   9.892  20.168  0.00  0.00    +0.000 NA
ATOM      2  C   UNL     1      -0.883   9.973  19.554  0.00  0.00    +0.000 C 
ATOM      3  C   UNL     1      -0.837  10.871  18.324  0.00  0.00    +0.000 C 
ATOM      4  C   UNL     1      -0.390  12.289  18.690  0.00  0.00    +0.000 C 
ATOM      5  C   UNL     1       1.015  12.179  19.308  0.00  0.00    +0.000 C 
ATOM      6  C   UNL     1       1.086  11.203  20.484  0.00  0.00    +0.000 C 
ENDROOT
BRANCH   4   7
ATOM      7  C   UNL     1      -1.374  13.008  19.633  0.00  0.00    +0.000 C 
ATOM      8  O   UNL     1      -2.296  12.375  20.155  0.00  0.00    +0.000 OA
ATOM      9  N   UNL     1      -1.225  14.369  19.858  0.00  0.00    +0.000 N 
ATOM     10  C   UNL     1      -0.155  15.208  19.338  0.00  0.00    +0.000 C 
BRANCH   9  11
ATOM     11  C   UNL     1      -2.251  15.054  20.647  0.00  0.00    +0.000 C 
BRANCH  11  12
ATOM     12  C   UNL     1      -1.835  15.367  22.065  0.00  0.00    +0.000 A 
ATOM     13  C   UNL     1      -1.814  14.367  23.049  0.00  0.00    +0.000 A 
ATOM     14  C   UNL     1      -1.361  14.648  24.339  0.00  0.00    +0.000 A 
ATOM     15  C   UNL     1      -0.920  15.930  24.662  0.00  0.00    +0.000 A 
ATOM     16  C   UNL     1      -0.955  16.938  23.701  0.00  0.00    +0.000 A 
ATOM     17  C   UNL     1      -1.418  16.660  22.412  0.00  0.00    +0.000 A 
ENDBRANCH  11  12
ENDBRANCH   9  11
ENDBRANCH   4   7
BRANCH   1  18
ATOM     18  S   UNL     1       0.648   8.677  21.362  0.00  0.00    +0.000 S 
ATOM     19  O   UNL     1      -0.658   8.111  21.625  0.00  0.00    +0.000 OA
ATOM     20  O   UNL     1       1.462   9.206  22.437  0.00  0.00    +0.000 OA
BRANCH  18  27
ATOM     21  C   UNL     1       5.257   4.073  15.988  0.00  0.00    +0.000 C 
ATOM     22  C   UNL     1       4.231   4.889  16.768  0.00  0.00    +0.000 C 
ATOM     23  S   UNL     1       4.042   4.168  18.427  0.00  0.00    +0.000 S 
ATOM     24  C   UNL     1       3.055   5.442  19.182  0.00  0.00    +0.000 A 
ATOM     25  C   UNL     1       2.300   5.113  20.319  0.00  0.00    +0.000 A 
ATOM     26  C   UNL     1       1.568   6.090  21.000  0.00  0.00    +0.000 A 
ATOM     27  C   UNL     1       1.602   7.408  20.545  0.00  0.00    +0.000 A 
ATOM     28  C   UNL     1       2.337   7.745  19.399  0.00  0.00    +0.000 A 
ATOM     29  C   UNL     1       3.074   6.767  18.727  0.00  0.00    +0.000 A 
ATOM     30  N   UNL     1       3.877   7.180  17.653  0.00  0.00    +0.000 N 
ATOM     31  C   UNL     1       4.604   6.366  16.823  0.00  0.00    +0.000 C 
ATOM     32  O   UNL     1       5.423   6.882  16.059  0.00  0.00    +0.000 OA
ATOM     33  H   UNL     1       4.039   8.170  17.511  0.00  0.00    +0.000 HD
ENDBRANCH  18  27
ENDBRANCH   1  18
TORSDOF 5
ENDMDL
MODEL 7
REMARK VINA RESULT:      -7.7      4.670      8.986
REMARK  Name = 
REMARK  7 active torsions:
REMARK  status: ('A' for Active; 'I' for Inactive)
REMARK    1  A    between atoms: C_1  and  C_2
REMARK    2  A    between atoms: C_7  and  S_8
REMARK    3  A    between atoms: S_8  and  N_11
REMARK    4  A    between atoms: C_14  and  C_15
REMARK    5  A    between atoms: N_17  and  C_18
REMARK    6  A    between atoms: N_17  and  C_19
REMARK    7  A    between atoms: C_19  and  C_20
REMARK                            x       y       z     vdW  Elec       q    Type
REMARK                         _______ _______ _______ _____ _____    ______ ____
ROOT
ATOM      1  N   UNL     1       1.008  11.121  19.657  0.00  0.00    +0.000 NA
ATOM      2  C   UNL     1       1.670  12.438  19.594  0.00  0.00    +0.000 C 
ATOM      3  C   UNL     1       1.714  13.065  20.982  0.00  0.00    +0.000 C 
ATOM      4  C   UNL     1       0.305  13.263  21.546  0.00  0.00    +0.000 C 
ATOM      5  C   UNL     1      -0.355  11.875  21.621  0.00  0.00    +0.000 C 
ATOM      6  C   UNL     1      -0.339  11.122  20.289  0.00  0.00    +0.000 C 
ENDROOT
BRANCH   4   7
ATOM      7  C   UNL     1      -0.540  14.254  20.723  0.00  0.00    +0.000 C 
ATOM      8  O   UNL     1      -1.239  13.839  19.794  0.00  0.00    +0.000 OA
ATOM      9  N   UNL     1      -0.479  15.607  21.022  0.00  0.00    +0.000 N 
ATOM     10  C   UNL     1       0.269  16.206  22.117  0.00  0.00    +0.000 C 
BRANCH   9  11
ATOM     11  C   UNL     1      -1.184  16.541  20.140  0.00  0.00    +0.000 C 
BRANCH  11  12
ATOM     12  C   UNL     1      -0.358  17.034  18.976  0.00  0.00    +0.000 A 
ATOM     13  C   UNL     1      -0.931  17.822  17.966  0.00  0.00    +0.000 A 
ATOM     14  C   UNL     1      -0.146  18.333  16.930  0.00  0.00    +0.000 A 
ATOM     15  C   UNL     1       1.220  18.065  16.890  0.00  0.00    +0.000 A 
ATOM     16  C   UNL     1       1.799  17.266  17.874  0.00  0.00    +0.000 A 
ATOM     17  C   UNL     1       1.013  16.746  18.905  0.00  0.00    +0.000 A 
ENDBRANCH  11  12
ENDBRANCH   9  11
ENDBRANCH   4   7
BRANCH   1  18
ATOM     18  S   UNL     1       1.162  10.151  18.253  0.00  0.00    +0.000 S 
ATOM     19  O   UNL     1       2.275  10.664  17.484  0.00  0.00    +0.000 OA
ATOM     20  O   UNL     1      -0.147   9.991  17.653  0.00  0.00    +0.000 OA
BRANCH  18  27
ATOM     21  C   UNL     1       3.747   2.168  19.204  0.00  0.00    +0.000 C 
ATOM     22  C   UNL     1       3.064   3.499  18.909  0.00  0.00    +0.000 C 
ATOM     23  S   UNL     1       2.941   4.454  20.453  0.00  0.00    +0.000 S 
ATOM     24  C   UNL     1       2.401   6.012  19.784  0.00  0.00    +0.000 A 
ATOM     25  C   UNL     1       1.756   6.917  20.641  0.00  0.00    +0.000 A 
ATOM     26  C   UNL     1       1.380   8.186  20.191  0.00  0.00    +0.000 A 
ATOM     27  C   UNL     1       1.662   8.555  18.877  0.00  0.00    +0.000 A 
ATOM     28  C   UNL     1       2.289   7.653  18.005  0.00  0.00    +0.000 A 
ATOM     29  C   UNL     1       2.672   6.389  18.461  0.00  0.00    +0.000 A 
ATOM     30  N   UNL     1       3.392   5.568  17.580  0.00  0.00    +0.000 N 
ATOM     31  C   UNL     1       3.782   4.274  17.810  0.00  0.00    +0.000 C 
ATOM     32  O   UNL     1       4.584   3.752  17.034  0.00  0.00    +0.000 OA
ATOM     33  H   UNL     1       3.764   5.969  16.727  0.00  0.00    +0.000 HD
ENDBRANCH  18  27
ENDBRANCH   1  18
TORSDOF 5
ENDMDL
MODEL 8
REMARK VINA RESULT:      -7.7      7.843     11.414
REMARK  Name = 
REMARK  7 active torsions:
REMARK  status: ('A' for Active; 'I' for Inactive)
REMARK    1  A    between atoms: C_1  and  C_2
REMARK    2  A    between atoms: C_7  and  S_8
REMARK    3  A    between atoms: S_8  and  N_11
REMARK    4  A    between atoms: C_14  and  C_15
REMARK    5  A    between atoms: N_17  and  C_18
REMARK    6  A    between atoms: N_17  and  C_19
REMARK    7  A    between atoms: C_19  and  C_20
REMARK                            x       y       z     vdW  Elec       q    Type
REMARK                         _______ _______ _______ _____ _____    ______ ____
ROOT
ATOM      1  N   UNL     1      -0.116  11.747  19.966  0.00  0.00    +0.000 NA
ATOM      2  C   UNL     1      -0.834  10.480  19.725  0.00  0.00    +0.000 C 
ATOM      3  C   UNL     1      -0.950  10.226  18.227  0.00  0.00    +0.000 C 
ATOM      4  C   UNL     1      -1.717  11.353  17.531  0.00  0.00    +0.000 C 
ATOM      5  C   UNL     1      -0.937  12.657  17.779  0.00  0.00    +0.000 C 
ATOM      6  C   UNL     1      -0.674  12.933  19.261  0.00  0.00    +0.000 C 
ENDROOT
BRANCH   4   7
ATOM      7  C   UNL     1      -3.181  11.465  17.998  0.00  0.00    +0.000 C 
ATOM      8  O   UNL     1      -3.429  11.742  19.175  0.00  0.00    +0.000 OA
ATOM      9  N   UNL     1      -4.201  11.223  17.090  0.00  0.00    +0.000 N 
ATOM     10  C   UNL     1      -4.033  10.935  15.673  0.00  0.00    +0.000 C 
BRANCH   9  11
ATOM     11  C   UNL     1      -5.578  11.201  17.590  0.00  0.00    +0.000 C 
BRANCH  11  12
ATOM     12  C   UNL     1      -6.161  12.569  17.854  0.00  0.00    +0.000 A 
ATOM     13  C   UNL     1      -6.454  13.446  16.798  0.00  0.00    +0.000 A 
ATOM     14  C   UNL     1      -7.057  14.680  17.045  0.00  0.00    +0.000 A 
ATOM     15  C   UNL     1      -7.378  15.055  18.348  0.00  0.00    +0.000 A 
ATOM     16  C   UNL     1      -7.074  14.204  19.409  0.00  0.00    +0.000 A 
ATOM     17  C   UNL     1      -6.460  12.972  19.164  0.00  0.00    +0.000 A 
ENDBRANCH  11  12
ENDBRANCH   9  11
ENDBRANCH   4   7
BRANCH   1  18
ATOM     18  S   UNL     1       0.378  12.017  21.585  0.00  0.00    +0.000 S 
ATOM     19  O   UNL     1       1.512  12.916  21.553  0.00  0.00    +0.000 OA
ATOM     20  O   UNL     1       0.457  10.741  22.266  0.00  0.00    +0.000 OA
BRANCH  18  27
ATOM     21  C   UNL     1      -7.171  14.940  23.990  0.00  0.00    +0.000 C 
ATOM     22  C   UNL     1      -5.886  14.484  23.305  0.00  0.00    +0.000 C 
ATOM     23  S   UNL     1      -4.466  15.247  24.147  0.00  0.00    +0.000 S 
ATOM     24  C   UNL     1      -3.149  14.342  23.364  0.00  0.00    +0.000 A 
ATOM     25  C   UNL     1      -1.860  14.897  23.377  0.00  0.00    +0.000 A 
ATOM     26  C   UNL     1      -0.773  14.197  22.847  0.00  0.00    +0.000 A 
ATOM     27  C   UNL     1      -0.977  12.927  22.309  0.00  0.00    +0.000 A 
ATOM     28  C   UNL     1      -2.263  12.369  22.272  0.00  0.00    +0.000 A 
ATOM     29  C   UNL     1      -3.345  13.069  22.812  0.00  0.00    +0.000 A 
ATOM     30  N   UNL     1      -4.589  12.420  22.847  0.00  0.00    +0.000 N 
ATOM     31  C   UNL     1      -5.778  12.964  23.258  0.00  0.00    +0.000 C 
ATOM     32  O   UNL     1      -6.742  12.216  23.431  0.00  0.00    +0.000 OA
ATOM     33  H   UNL     1      -4.631  11.426  22.655  0.00  0.00    +0.000 HD
ENDBRANCH  18  27
ENDBRANCH   1  18
TORSDOF 5
ENDMDL
MODEL 9
REMARK VINA RESULT:      -7.7      4.160      9.788
REMARK  Name = 
REMARK  7 active torsions:
REMARK  status: ('A' for Active; 'I' for Inactive)
REMARK    1  A    between atoms: C_1  and  C_2
REMARK    2  A    between atoms: C_7  and  S_8
REMARK    3  A    between atoms: S_8  and  N_11
REMARK    4  A    between atoms: C_14  and  C_15
REMARK    5  A    between atoms: N_17  and  C_18
REMARK    6  A    between atoms: N_17  and  C_19
REMARK    7  A    between atoms: C_19  and  C_20
REMARK                            x       y       z     vdW  Elec       q    Type
REMARK                         _______ _______ _______ _____ _____    ______ ____
ROOT
ATOM      1  N   UNL     1       0.189   9.727  20.077  0.00  0.00    +0.000 NA
ATOM      2  C   UNL     1      -1.252  10.041  20.007  0.00  0.00    +0.000 C 
ATOM      3  C   UNL     1      -1.571  10.723  18.682  0.00  0.00    +0.000 C 
ATOM      4  C   UNL     1      -0.787  12.029  18.528  0.00  0.00    +0.000 C 
ATOM      5  C   UNL     1       0.709  11.672  18.583  0.00  0.00    +0.000 C 
ATOM      6  C   UNL     1       1.098  10.880  19.833  0.00  0.00    +0.000 C 
ENDROOT
BRANCH   4   7
ATOM      7  C   UNL     1      -1.162  13.086  19.584  0.00  0.00    +0.000 C 
ATOM      8  O   UNL     1      -0.274  13.746  20.133  0.00  0.00    +0.000 OA
ATOM      9  N   UNL     1      -2.495  13.260  19.926  0.00  0.00    +0.000 N 
ATOM     10  C   UNL     1      -3.628  12.576  19.318  0.00  0.00    +0.000 C 
BRANCH   9  11
ATOM     11  C   UNL     1      -2.811  14.171  21.028  0.00  0.00    +0.000 C 
BRANCH  11  12
ATOM     12  C   UNL     1      -3.494  13.509  22.201  0.00  0.00    +0.000 A 
ATOM     13  C   UNL     1      -2.819  12.563  22.989  0.00  0.00    +0.000 A 
ATOM     14  C   UNL     1      -3.432  12.007  24.114  0.00  0.00    +0.000 A 
ATOM     15  C   UNL     1      -4.724  12.390  24.468  0.00  0.00    +0.000 A 
ATOM     16  C   UNL     1      -5.413  13.313  23.683  0.00  0.00    +0.000 A 
ATOM     17  C   UNL     1      -4.805  13.862  22.552  0.00  0.00    +0.000 A 
ENDBRANCH  11  12
ENDBRANCH   9  11
ENDBRANCH   4   7
BRANCH   1  18
ATOM     18  S   UNL     1       0.654   8.679  21.351  0.00  0.00    +0.000 S 
ATOM     19  O   UNL     1      -0.544   8.044  21.857  0.00  0.00    +0.000 OA
ATOM     20  O   UNL     1       1.549   9.394  22.237  0.00  0.00    +0.000 OA
BRANCH  18  27
ATOM     21  C   UNL     1       5.260   4.038  16.007  0.00  0.00    +0.000 C 
ATOM     22  C   UNL     1       4.235   4.859  16.782  0.00  0.00    +0.000 C 
ATOM     23  S   UNL     1       4.046   4.149  18.446  0.00  0.00    +0.000 S 
ATOM     24  C   UNL     1       3.059   5.429  19.193  0.00  0.00    +0.000 A 
ATOM     25  C   UNL     1       2.304   5.108  20.332  0.00  0.00    +0.000 A 
ATOM     26  C   UNL     1       1.573   6.090  21.006  0.00  0.00    +0.000 A 
ATOM     27  C   UNL     1       1.607   7.404  20.542  0.00  0.00    +0.000 A 
ATOM     28  C   UNL     1       2.341   7.734  19.394  0.00  0.00    +0.000 A 
ATOM     29  C   UNL     1       3.079   6.751  18.728  0.00  0.00    +0.000 A 
ATOM     30  N   UNL     1       3.881   7.156  17.651  0.00  0.00    +0.000 N 
ATOM     31  C   UNL     1       4.608   6.336  16.827  0.00  0.00    +0.000 C 
ATOM     32  O   UNL     1       5.426   6.846  16.059  0.00  0.00    +0.000 OA
ATOM     33  H   UNL     1       4.044   8.145  17.503  0.00  0.00    +0.000 HD
ENDBRANCH  18  27
ENDBRANCH   1  18
TORSDOF 5
ENDMDL
