MODEL 1
REMARK VINA RESULT:      -8.5      0.000      0.000
REMARK  Name = 
REMARK  8 active torsions:
REMARK  status: ('A' for Active; 'I' for Inactive)
REMARK    1  A    between atoms: C_1  and  O_2
REMARK    2  A    between atoms: O_2  and  C_3
REMARK    3  A    between atoms: C_6  and  C_7
REMARK    4  A    between atoms: C_11  and  N_12
REMARK    5  A    between atoms: C_13  and  C_15
REMARK    6  A    between atoms: C_15  and  O_16
REMARK    7  A    between atoms: O_16  and  C_17
REMARK    8  A    between atoms: C_22  and  C_23
REMARK                            x       y       z     vdW  Elec       q    Type
REMARK                         _______ _______ _______ _____ _____    ______ ____
ROOT
ATOM      1  C   UNL     1       1.046   8.696  20.416  0.00  0.00    +0.000 A 
ATOM      2  N   UNL     1       1.608   7.545  20.747  0.00  0.00    +0.000 NA
ATOM      3  C   UNL     1       2.370   7.227  19.653  0.00  0.00    +0.000 A 
ATOM      4  C   UNL     1       3.252   6.161  19.434  0.00  0.00    +0.000 A 
ATOM      5  C   UNL     1       3.981   6.170  18.236  0.00  0.00    +0.000 A 
ATOM      6  C   UNL     1       3.780   7.147  17.252  0.00  0.00    +0.000 A 
ATOM      7  C   UNL     1       2.861   8.185  17.443  0.00  0.00    +0.000 A 
ATOM      8  C   UNL     1       2.209   8.188  18.670  0.00  0.00    +0.000 A 
ATOM      9  O   UNL     1       1.339   9.126  19.144  0.00  0.00    +0.000 OA
ENDROOT
BRANCH   1  13
ATOM     10  C   UNL     1      -1.436  11.278  22.763  0.00  0.00    +0.000 A 
ATOM     11  C   UNL     1      -1.152  11.579  21.431  0.00  0.00    +0.000 A 
ATOM     12  C   UNL     1      -0.321  10.742  20.678  0.00  0.00    +0.000 A 
ATOM     13  C   UNL     1       0.255   9.598  21.251  0.00  0.00    +0.000 A 
ATOM     14  C   UNL     1       0.001   9.332  22.603  0.00  0.00    +0.000 A 
ATOM     15  C   UNL     1      -0.839  10.167  23.355  0.00  0.00    +0.000 A 
BRANCH  10  17
ATOM     16  C   UNL     1      -3.040  12.994  22.532  0.00  0.00    +0.000 C 
ATOM     17  O   UNL     1      -2.282  12.151  23.391  0.00  0.00    +0.000 OA
ENDBRANCH  10  17
ENDBRANCH   1  13
BRANCH   5  18
ATOM     18  N   UNL     1       4.941   5.179  17.997  0.00  0.00    +0.000 N 
ATOM     19  C   UNL     1       4.705   4.091  17.186  0.00  0.00    +0.000 C 
ATOM     20  O   UNL     1       5.676   3.496  16.708  0.00  0.00    +0.000 OA
ATOM     21  H   UNL     1       5.895   5.495  17.852  0.00  0.00    +0.000 HD
BRANCH  19  22
ATOM     22  C   UNL     1       3.268   3.653  16.884  0.00  0.00    +0.000 C 
BRANCH  22  23
ATOM     23  O   UNL     1       2.953   2.485  17.620  0.00  0.00    +0.000 OA
BRANCH  23  24
ATOM     24  C   UNL     1       2.523   2.619  18.914  0.00  0.00    +0.000 A 
ATOM     25  C   UNL     1       1.207   3.100  18.989  0.00  0.00    +0.000 A 
ATOM     26  C   UNL     1       0.604   3.396  20.213  0.00  0.00    +0.000 A 
ATOM     27  C   UNL     1       1.319   3.221  21.386  0.00  0.00    +0.000 A 
ATOM     28  C   UNL     1       2.628   2.741  21.330  0.00  0.00    +0.000 A 
ATOM     29  C   UNL     1       3.255   2.441  20.101  0.00  0.00    +0.000 A 
ATOM     30  C   UNL     1       4.688   1.993  20.172  0.00  0.00    +0.000 C 
ENDBRANCH  23  24
ENDBRANCH  22  23
ENDBRANCH  19  22
ENDBRANCH   5  18
TORSDOF 6
ENDMDL
MODEL 2
REMARK VINA RESULT:      -8.3      2.026      2.534
REMARK  Name = 
REMARK  8 active torsions:
REMARK  status: ('A' for Active; 'I' for Inactive)
REMARK    1  A    between atoms: C_1  and  O_2
REMARK    2  A    between atoms: O_2  and  C_3
REMARK    3  A    between atoms: C_6  and  C_7
REMARK    4  A    between atoms: C_11  and  N_12
REMARK    5  A    between atoms: C_13  and  C_15
REMARK    6  A    between atoms: C_15  and  O_16
REMARK    7  A    between atoms: O_16  and  C_17
REMARK    8  A    between atoms: C_22  and  C_23
REMARK                            x       y       z     vdW  Elec       q    Type
REMARK                         _______ _______ _______ _____ _____    ______ ____
ROOT
ATOM      1  C   UNL     1       1.024   9.192  18.502  0.00  0.00    +0.000 A 
ATOM      2  N   UNL     1       1.897   8.971  17.534  0.00  0.00    +0.000 NA
ATOM      3  C   UNL     1       2.660   7.937  18.012  0.00  0.00    +0.000 A 
ATOM      4  C   UNL     1       3.699   7.214  17.410  0.00  0.00    +0.000 A 
ATOM      5  C   UNL     1       4.215   6.123  18.123  0.00  0.00    +0.000 A 
ATOM      6  C   UNL     1       3.784   5.812  19.419  0.00  0.00    +0.000 A 
ATOM      7  C   UNL     1       2.784   6.563  20.046  0.00  0.00    +0.000 A 
ATOM      8  C   UNL     1       2.242   7.592  19.286  0.00  0.00    +0.000 A 
ATOM      9  O   UNL     1       1.204   8.411  19.619  0.00  0.00    +0.000 OA
ENDROOT
BRANCH   1  13
ATOM     10  C   UNL     1      -2.509  11.611  18.539  0.00  0.00    +0.000 A 
ATOM     11  C   UNL     1      -2.318  10.643  17.554  0.00  0.00    +0.000 A 
ATOM     12  C   UNL     1      -1.149   9.873  17.535  0.00  0.00    +0.000 A 
ATOM     13  C   UNL     1      -0.144  10.070  18.494  0.00  0.00    +0.000 A 
ATOM     14  C   UNL     1      -0.327  11.078  19.450  0.00  0.00    +0.000 A 
ATOM     15  C   UNL     1      -1.502  11.843  19.473  0.00  0.00    +0.000 A 
BRANCH  10  17
ATOM     16  C   UNL     1      -4.710  11.663  17.688  0.00  0.00    +0.000 C 
ATOM     17  O   UNL     1      -3.700  12.281  18.475  0.00  0.00    +0.000 OA
ENDBRANCH  10  17
ENDBRANCH   1  13
BRANCH   5  18
ATOM     18  N   UNL     1       5.195   5.311  17.540  0.00  0.00    +0.000 N 
ATOM     19  C   UNL     1       4.890   4.235  16.735  0.00  0.00    +0.000 C 
ATOM     20  O   UNL     1       5.756   3.825  15.954  0.00  0.00    +0.000 OA
ATOM     21  H   UNL     1       6.011   5.783  17.160  0.00  0.00    +0.000 HD
BRANCH  19  22
ATOM     22  C   UNL     1       3.506   3.583  16.812  0.00  0.00    +0.000 C 
BRANCH  22  23
ATOM     23  O   UNL     1       3.540   2.473  17.691  0.00  0.00    +0.000 OA
BRANCH  23  24
ATOM     24  C   UNL     1       2.883   2.563  18.890  0.00  0.00    +0.000 A 
ATOM     25  C   UNL     1       1.560   3.007  18.737  0.00  0.00    +0.000 A 
ATOM     26  C   UNL     1       0.740   3.256  19.840  0.00  0.00    +0.000 A 
ATOM     27  C   UNL     1       1.239   3.070  21.118  0.00  0.00    +0.000 A 
ATOM     28  C   UNL     1       2.552   2.628  21.288  0.00  0.00    +0.000 A 
ATOM     29  C   UNL     1       3.396   2.376  20.184  0.00  0.00    +0.000 A 
ATOM     30  C   UNL     1       4.807   1.964  20.501  0.00  0.00    +0.000 C 
ENDBRANCH  23  24
ENDBRANCH  22  23
ENDBRANCH  19  22
ENDBRANCH   5  18
TORSDOF 6
ENDMDL
MODEL 3
REMARK VINA RESULT:      -7.8      1.580      2.200
REMARK  Name = 
REMARK  8 active torsions:
REMARK  status: ('A' for Active; 'I' for Inactive)
REMARK    1  A    between atoms: C_1  and  O_2
REMARK    2  A    between atoms: O_2  and  C_3
REMARK    3  A    between atoms: C_6  and  C_7
REMARK    4  A    between atoms: C_11  and  N_12
REMARK    5  A    between atoms: C_13  and  C_15
REMARK    6  A    between atoms: C_15  and  O_16
REMARK    7  A    between atoms: O_16  and  C_17
REMARK    8  A    between atoms: C_22  and  C_23
REMARK                            x       y       z     vdW  Elec       q    Type
REMARK                         _______ _______ _______ _____ _____    ______ ____
ROOT
ATOM      1  C   UNL     1       1.211   9.042  18.775  0.00  0.00    +0.000 A 
ATOM      2  N   UNL     1       1.980   8.855  17.716  0.00  0.00    +0.000 NA
ATOM      3  C   UNL     1       2.778   7.800  18.073  0.00  0.00    +0.000 A 
ATOM      4  C   UNL     1       3.744   7.097  17.341  0.00  0.00    +0.000 A 
ATOM      5  C   UNL     1       4.321   5.975  17.955  0.00  0.00    +0.000 A 
ATOM      6  C   UNL     1       4.020   5.616  19.275  0.00  0.00    +0.000 A 
ATOM      7  C   UNL     1       3.095   6.345  20.029  0.00  0.00    +0.000 A 
ATOM      8  C   UNL     1       2.488   7.406  19.368  0.00  0.00    +0.000 A 
ATOM      9  O   UNL     1       1.496   8.216  19.837  0.00  0.00    +0.000 OA
ENDROOT
BRANCH   1  13
ATOM     10  C   UNL     1      -2.051  11.786  19.179  0.00  0.00    +0.000 A 
ATOM     11  C   UNL     1      -1.134  11.611  20.215  0.00  0.00    +0.000 A 
ATOM     12  C   UNL     1      -0.084  10.695  20.084  0.00  0.00    +0.000 A 
ATOM     13  C   UNL     1       0.055   9.925  18.920  0.00  0.00    +0.000 A 
ATOM     14  C   UNL     1      -0.900  10.075  17.905  0.00  0.00    +0.000 A 
ATOM     15  C   UNL     1      -1.946  11.000  18.034  0.00  0.00    +0.000 A 
BRANCH  10  17
ATOM     16  C   UNL     1      -3.320  12.977  20.775  0.00  0.00    +0.000 C 
ATOM     17  O   UNL     1      -3.016  12.729  19.407  0.00  0.00    +0.000 OA
ENDBRANCH  10  17
ENDBRANCH   1  13
BRANCH   5  18
ATOM     18  N   UNL     1       5.229   5.182  17.244  0.00  0.00    +0.000 N 
ATOM     19  C   UNL     1       4.839   4.110  16.472  0.00  0.00    +0.000 C 
ATOM     20  O   UNL     1       5.604   3.720  15.584  0.00  0.00    +0.000 OA
ATOM     21  H   UNL     1       5.985   5.669  16.770  0.00  0.00    +0.000 HD
BRANCH  19  22
ATOM     22  C   UNL     1       3.484   3.439  16.715  0.00  0.00    +0.000 C 
BRANCH  22  23
ATOM     23  O   UNL     1       3.614   2.420  17.689  0.00  0.00    +0.000 OA
BRANCH  23  24
ATOM     24  C   UNL     1       2.925   2.542  18.867  0.00  0.00    +0.000 A 
ATOM     25  C   UNL     1       1.626   3.037  18.672  0.00  0.00    +0.000 A 
ATOM     26  C   UNL     1       0.784   3.325  19.747  0.00  0.00    +0.000 A 
ATOM     27  C   UNL     1       1.236   3.128  21.041  0.00  0.00    +0.000 A 
ATOM     28  C   UNL     1       2.524   2.635  21.253  0.00  0.00    +0.000 A 
ATOM     29  C   UNL     1       3.391   2.342  20.177  0.00  0.00    +0.000 A 
ATOM     30  C   UNL     1       4.774   1.877  20.540  0.00  0.00    +0.000 C 
ENDBRANCH  23  24
ENDBRANCH  22  23
ENDBRANCH  19  22
ENDBRANCH   5  18
TORSDOF 6
ENDMDL
MODEL 4
REMARK VINA RESULT:      -7.8      5.125      7.129
REMARK  Name = 
REMARK  8 active torsions:
REMARK  status: ('A' for Active; 'I' for Inactive)
REMARK    1  A    between atoms: C_1  and  O_2
REMARK    2  A    between atoms: O_2  and  C_3
REMARK    3  A    between atoms: C_6  and  C_7
REMARK    4  A    between atoms: C_11  and  N_12
REMARK    5  A    between atoms: C_13  and  C_15
REMARK    6  A    between atoms: C_15  and  O_16
REMARK    7  A    between atoms: O_16  and  C_17
REMARK    8  A    between atoms: C_22  and  C_23
REMARK                            x       y       z     vdW  Elec       q    Type
REMARK                         _______ _______ _______ _____ _____    ______ ____
ROOT
ATOM      1  C   UNL     1       8.546   9.186  18.240  0.00  0.00    +0.000 A 
ATOM      2  N   UNL     1       7.855   8.741  17.203  0.00  0.00    +0.000 NA
ATOM      3  C   UNL     1       7.611   7.428  17.511  0.00  0.00    +0.000 A 
ATOM      4  C   UNL     1       6.864   6.455  16.836  0.00  0.00    +0.000 A 
ATOM      5  C   UNL     1       6.705   5.215  17.471  0.00  0.00    +0.000 A 
ATOM      6  C   UNL     1       7.337   4.917  18.685  0.00  0.00    +0.000 A 
ATOM      7  C   UNL     1       8.128   5.868  19.339  0.00  0.00    +0.000 A 
ATOM      8  C   UNL     1       8.206   7.110  18.721  0.00  0.00    +0.000 A 
ATOM      9  O   UNL     1       8.830   8.229  19.186  0.00  0.00    +0.000 OA
ENDROOT
BRANCH   1  13
ATOM     10  C   UNL     1       9.908  13.154  19.094  0.00  0.00    +0.000 A 
ATOM     11  C   UNL     1      10.216  12.096  19.948  0.00  0.00    +0.000 A 
ATOM     12  C   UNL     1       9.747  10.806  19.674  0.00  0.00    +0.000 A 
ATOM     13  C   UNL     1       8.947  10.557  18.548  0.00  0.00    +0.000 A 
ATOM     14  C   UNL     1       8.605  11.637  17.724  0.00  0.00    +0.000 A 
ATOM     15  C   UNL     1       9.083  12.928  17.995  0.00  0.00    +0.000 A 
BRANCH  10  17
ATOM     16  C   UNL     1      10.379  15.376  18.450  0.00  0.00    +0.000 C 
ATOM     17  O   UNL     1      10.445  14.363  19.446  0.00  0.00    +0.000 OA
ENDBRANCH  10  17
ENDBRANCH   1  13
BRANCH   5  18
ATOM     18  N   UNL     1       5.899   4.232  16.886  0.00  0.00    +0.000 N 
ATOM     19  C   UNL     1       4.548   4.400  16.678  0.00  0.00    +0.000 C 
ATOM     20  O   UNL     1       3.995   3.697  15.826  0.00  0.00    +0.000 OA
ATOM     21  H   UNL     1       6.292   3.732  16.093  0.00  0.00    +0.000 HD
BRANCH  19  22
ATOM     22  C   UNL     1       3.770   5.446  17.483  0.00  0.00    +0.000 C 
BRANCH  22  23
ATOM     23  O   UNL     1       2.435   5.016  17.676  0.00  0.00    +0.000 OA
BRANCH  23  24
ATOM     24  C   UNL     1       2.126   4.319  18.814  0.00  0.00    +0.000 A 
ATOM     25  C   UNL     1       1.986   2.944  18.573  0.00  0.00    +0.000 A 
ATOM     26  C   UNL     1       1.582   2.062  19.577  0.00  0.00    +0.000 A 
ATOM     27  C   UNL     1       1.305   2.550  20.844  0.00  0.00    +0.000 A 
ATOM     28  C   UNL     1       1.441   3.914  21.101  0.00  0.00    +0.000 A 
ATOM     29  C   UNL     1       1.842   4.821  20.096  0.00  0.00    +0.000 A 
ATOM     30  C   UNL     1       1.890   6.273  20.484  0.00  0.00    +0.000 C 
ENDBRANCH  23  24
ENDBRANCH  22  23
ENDBRANCH  19  22
ENDBRANCH   5  18
TORSDOF 6
ENDMDL
MODEL 5
REMARK VINA RESULT:      -7.7      2.730      4.553
REMARK  Name = 
REMARK  8 active torsions:
REMARK  status: ('A' for Active; 'I' for Inactive)
REMARK    1  A    between atoms: C_1  and  O_2
REMARK    2  A    between atoms: O_2  and  C_3
REMARK    3  A    between atoms: C_6  and  C_7
REMARK    4  A    between atoms: C_11  and  N_12
REMARK    5  A    between atoms: C_13  and  C_15
REMARK    6  A    between atoms: C_15  and  O_16
REMARK    7  A    between atoms: O_16  and  C_17
REMARK    8  A    between atoms: C_22  and  C_23
REMARK                            x       y       z     vdW  Elec       q    Type
REMARK                         _______ _______ _______ _____ _____    ______ ____
ROOT
ATOM      1  C   UNL     1       1.656   9.212  18.770  0.00  0.00    +0.000 A 
ATOM      2  N   UNL     1       2.059   8.361  17.842  0.00  0.00    +0.000 NA
ATOM      3  C   UNL     1       2.118   7.161  18.503  0.00  0.00    +0.000 A 
ATOM      4  C   UNL     1       2.411   5.874  18.035  0.00  0.00    +0.000 A 
ATOM      5  C   UNL     1       2.279   4.816  18.946  0.00  0.00    +0.000 A 
ATOM      6  C   UNL     1       1.957   5.032  20.292  0.00  0.00    +0.000 A 
ATOM      7  C   UNL     1       1.715   6.322  20.779  0.00  0.00    +0.000 A 
ATOM      8  C   UNL     1       1.783   7.340  19.835  0.00  0.00    +0.000 A 
ATOM      9  O   UNL     1       1.507   8.662  20.021  0.00  0.00    +0.000 OA
ENDROOT
BRANCH   1  13
ATOM     10  C   UNL     1       0.455  13.314  18.508  0.00  0.00    +0.000 A 
ATOM     11  C   UNL     1      -0.488  12.306  18.707  0.00  0.00    +0.000 A 
ATOM     12  C   UNL     1      -0.090  10.966  18.768  0.00  0.00    +0.000 A 
ATOM     13  C   UNL     1       1.258  10.610  18.613  0.00  0.00    +0.000 A 
ATOM     14  C   UNL     1       2.190  11.627  18.366  0.00  0.00    +0.000 A 
ATOM     15  C   UNL     1       1.791  12.971  18.314  0.00  0.00    +0.000 A 
BRANCH  10  17
ATOM     16  C   UNL     1      -0.401  15.119  19.766  0.00  0.00    +0.000 C 
ATOM     17  O   UNL     1      -0.045  14.588  18.495  0.00  0.00    +0.000 OA
ENDBRANCH  10  17
ENDBRANCH   1  13
BRANCH   5  18
ATOM     18  N   UNL     1       2.474   3.498  18.516  0.00  0.00    +0.000 N 
ATOM     19  C   UNL     1       3.662   2.825  18.689  0.00  0.00    +0.000 C 
ATOM     20  O   UNL     1       3.644   1.590  18.662  0.00  0.00    +0.000 OA
ATOM     21  H   UNL     1       1.705   2.851  18.669  0.00  0.00    +0.000 HD
BRANCH  19  22
ATOM     22  C   UNL     1       4.962   3.603  18.921  0.00  0.00    +0.000 C 
BRANCH  22  23
ATOM     23  O   UNL     1       5.451   4.108  17.692  0.00  0.00    +0.000 OA
BRANCH  23  24
ATOM     24  C   UNL     1       6.252   5.219  17.709  0.00  0.00    +0.000 A 
ATOM     25  C   UNL     1       7.179   5.188  18.761  0.00  0.00    +0.000 A 
ATOM     26  C   UNL     1       8.031   6.264  19.018  0.00  0.00    +0.000 A 
ATOM     27  C   UNL     1       7.960   7.397  18.223  0.00  0.00    +0.000 A 
ATOM     28  C   UNL     1       7.044   7.443  17.171  0.00  0.00    +0.000 A 
ATOM     29  C   UNL     1       6.172   6.366  16.900  0.00  0.00    +0.000 A 
ATOM     30  C   UNL     1       5.191   6.565  15.779  0.00  0.00    +0.000 C 
ENDBRANCH  23  24
ENDBRANCH  22  23
ENDBRANCH  19  22
ENDBRANCH   5  18
TORSDOF 6
ENDMDL
MODEL 6
REMARK VINA RESULT:      -7.7      0.568      1.629
REMARK  Name = 
REMARK  8 active torsions:
REMARK  status: ('A' for Active; 'I' for Inactive)
REMARK    1  A    between atoms: C_1  and  O_2
REMARK    2  A    between atoms: O_2  and  C_3
REMARK    3  A    between atoms: C_6  and  C_7
REMARK    4  A    between atoms: C_11  and  N_12
REMARK    5  A    between atoms: C_13  and  C_15
REMARK    6  A    between atoms: C_15  and  O_16
REMARK    7  A    between atoms: O_16  and  C_17
REMARK    8  A    between atoms: C_22  and  C_23
REMARK                            x       y       z     vdW  Elec       q    Type
REMARK                         _______ _______ _______ _____ _____    ______ ____
ROOT
ATOM      1  C   UNL     1       1.142   8.588  20.263  0.00  0.00    +0.000 A 
ATOM      2  N   UNL     1       1.872   7.570  20.687  0.00  0.00    +0.000 NA
ATOM      3  C   UNL     1       2.656   7.258  19.608  0.00  0.00    +0.000 A 
ATOM      4  C   UNL     1       3.683   6.315  19.467  0.00  0.00    +0.000 A 
ATOM      5  C   UNL     1       4.385   6.310  18.254  0.00  0.00    +0.000 A 
ATOM      6  C   UNL     1       4.028   7.144  17.186  0.00  0.00    +0.000 A 
ATOM      7  C   UNL     1       2.970   8.052  17.302  0.00  0.00    +0.000 A 
ATOM      8  C   UNL     1       2.341   8.083  18.541  0.00  0.00    +0.000 A 
ATOM      9  O   UNL     1       1.350   8.927  18.947  0.00  0.00    +0.000 OA
ENDROOT
BRANCH   1  13
ATOM     10  C   UNL     1      -1.347  11.168  22.605  0.00  0.00    +0.000 A 
ATOM     11  C   UNL     1      -0.766  10.033  23.169  0.00  0.00    +0.000 A 
ATOM     12  C   UNL     1       0.027   9.182  22.391  0.00  0.00    +0.000 A 
ATOM     13  C   UNL     1       0.238   9.445  21.029  0.00  0.00    +0.000 A 
ATOM     14  C   UNL     1      -0.389  10.562  20.462  0.00  0.00    +0.000 A 
ATOM     15  C   UNL     1      -1.177  11.419  21.245  0.00  0.00    +0.000 A 
BRANCH  10  17
ATOM     16  C   UNL     1      -3.235  12.551  22.913  0.00  0.00    +0.000 C 
ATOM     17  O   UNL     1      -2.076  11.941  23.468  0.00  0.00    +0.000 OA
ENDBRANCH  10  17
ENDBRANCH   1  13
BRANCH   5  18
ATOM     18  N   UNL     1       5.477   5.450  18.084  0.00  0.00    +0.000 N 
ATOM     19  C   UNL     1       5.434   4.340  17.270  0.00  0.00    +0.000 C 
ATOM     20  O   UNL     1       6.502   3.874  16.859  0.00  0.00    +0.000 OA
ATOM     21  H   UNL     1       6.390   5.886  17.995  0.00  0.00    +0.000 HD
BRANCH  19  22
ATOM     22  C   UNL     1       4.087   3.721  16.883  0.00  0.00    +0.000 C 
BRANCH  22  23
ATOM     23  O   UNL     1       3.739   2.702  17.804  0.00  0.00    +0.000 OA
BRANCH  23  24
ATOM     24  C   UNL     1       2.921   3.018  18.856  0.00  0.00    +0.000 A 
ATOM     25  C   UNL     1       3.393   2.494  20.070  0.00  0.00    +0.000 A 
ATOM     26  C   UNL     1       2.664   2.619  21.254  0.00  0.00    +0.000 A 
ATOM     27  C   UNL     1       1.440   3.268  21.237  0.00  0.00    +0.000 A 
ATOM     28  C   UNL     1       0.957   3.796  20.039  0.00  0.00    +0.000 A 
ATOM     29  C   UNL     1       1.679   3.674  18.832  0.00  0.00    +0.000 A 
ATOM     30  C   UNL     1       1.021   4.230  17.599  0.00  0.00    +0.000 C 
ENDBRANCH  23  24
ENDBRANCH  22  23
ENDBRANCH  19  22
ENDBRANCH   5  18
TORSDOF 6
ENDMDL
MODEL 7
REMARK VINA RESULT:      -7.6      4.779      7.362
REMARK  Name = 
REMARK  8 active torsions:
REMARK  status: ('A' for Active; 'I' for Inactive)
REMARK    1  A    between atoms: C_1  and  O_2
REMARK    2  A    between atoms: O_2  and  C_3
REMARK    3  A    between atoms: C_6  and  C_7
REMARK    4  A    between atoms: C_11  and  N_12
REMARK    5  A    between atoms: C_13  and  C_15
REMARK    6  A    between atoms: C_15  and  O_16
REMARK    7  A    between atoms: O_16  and  C_17
REMARK    8  A    between atoms: C_22  and  C_23
REMARK                            x       y       z     vdW  Elec       q    Type
REMARK                         _______ _______ _______ _____ _____    ______ ____
ROOT
ATOM      1  C   UNL     1       8.232   8.877  18.062  0.00  0.00    +0.000 A 
ATOM      2  N   UNL     1       7.291   8.556  17.190  0.00  0.00    +0.000 NA
ATOM      3  C   UNL     1       7.016   7.244  17.475  0.00  0.00    +0.000 A 
ATOM      4  C   UNL     1       6.057   6.374  16.939  0.00  0.00    +0.000 A 
ATOM      5  C   UNL     1       5.945   5.106  17.525  0.00  0.00    +0.000 A 
ATOM      6  C   UNL     1       6.808   4.680  18.543  0.00  0.00    +0.000 A 
ATOM      7  C   UNL     1       7.802   5.525  19.047  0.00  0.00    +0.000 A 
ATOM      8  C   UNL     1       7.840   6.800  18.496  0.00  0.00    +0.000 A 
ATOM      9  O   UNL     1       8.643   7.839  18.863  0.00  0.00    +0.000 OA
ENDROOT
BRANCH   1  13
ATOM     10  C   UNL     1       9.734  12.784  18.966  0.00  0.00    +0.000 A 
ATOM     11  C   UNL     1       8.816  12.594  17.933  0.00  0.00    +0.000 A 
ATOM     12  C   UNL     1       8.349  11.311  17.628  0.00  0.00    +0.000 A 
ATOM     13  C   UNL     1       8.805  10.193  18.343  0.00  0.00    +0.000 A 
ATOM     14  C   UNL     1       9.762  10.390  19.347  0.00  0.00    +0.000 A 
ATOM     15  C   UNL     1      10.223  11.678  19.657  0.00  0.00    +0.000 A 
BRANCH  10  17
ATOM     16  C   UNL     1       9.143  15.064  18.802  0.00  0.00    +0.000 C 
ATOM     17  O   UNL     1      10.097  14.084  19.192  0.00  0.00    +0.000 OA
ENDBRANCH  10  17
ENDBRANCH   1  13
BRANCH   5  18
ATOM     18  N   UNL     1       4.949   4.223  17.091  0.00  0.00    +0.000 N 
ATOM     19  C   UNL     1       3.622   4.370  17.429  0.00  0.00    +0.000 C 
ATOM     20  O   UNL     1       2.772   3.826  16.716  0.00  0.00    +0.000 OA
ATOM     21  H   UNL     1       5.008   3.910  16.126  0.00  0.00    +0.000 HD
BRANCH  19  22
ATOM     22  C   UNL     1       3.227   5.199  18.656  0.00  0.00    +0.000 C 
BRANCH  22  23
ATOM     23  O   UNL     1       2.950   6.533  18.271  0.00  0.00    +0.000 OA
BRANCH  23  24
ATOM     24  C   UNL     1       2.265   7.340  19.140  0.00  0.00    +0.000 A 
ATOM     25  C   UNL     1       1.950   6.681  20.339  0.00  0.00    +0.000 A 
ATOM     26  C   UNL     1       1.174   7.291  21.327  0.00  0.00    +0.000 A 
ATOM     27  C   UNL     1       0.694   8.574  21.124  0.00  0.00    +0.000 A 
ATOM     28  C   UNL     1       1.000   9.244  19.939  0.00  0.00    +0.000 A 
ATOM     29  C   UNL     1       1.779   8.641  18.927  0.00  0.00    +0.000 A 
ATOM     30  C   UNL     1       1.984   9.444  17.672  0.00  0.00    +0.000 C 
ENDBRANCH  23  24
ENDBRANCH  22  23
ENDBRANCH  19  22
ENDBRANCH   5  18
TORSDOF 6
ENDMDL
MODEL 8
REMARK VINA RESULT:      -7.6      2.867      4.633
REMARK  Name = 
REMARK  8 active torsions:
REMARK  status: ('A' for Active; 'I' for Inactive)
REMARK    1  A    between atoms: C_1  and  O_2
REMARK    2  A    between atoms: O_2  and  C_3
REMARK    3  A    between atoms: C_6  and  C_7
REMARK    4  A    between atoms: C_11  and  N_12
REMARK    5  A    between atoms: C_13  and  C_15
REMARK    6  A    between atoms: C_15  and  O_16
REMARK    7  A    between atoms: O_16  and  C_17
REMARK    8  A    between atoms: C_22  and  C_23
REMARK                            x       y       z     vdW  Elec       q    Type
REMARK                         _______ _______ _______ _____ _____    ______ ____
ROOT
ATOM      1  C   UNL     1       1.405   9.751  18.986  0.00  0.00    +0.000 A 
ATOM      2  N   UNL     1       1.908   9.035  17.995  0.00  0.00    +0.000 NA
ATOM      3  C   UNL     1       2.062   7.786  18.540  0.00  0.00    +0.000 A 
ATOM      4  C   UNL     1       2.484   6.582  17.960  0.00  0.00    +0.000 A 
ATOM      5  C   UNL     1       2.428   5.433  18.761  0.00  0.00    +0.000 A 
ATOM      6  C   UNL     1       2.055   5.485  20.110  0.00  0.00    +0.000 A 
ATOM      7  C   UNL     1       1.682   6.694  20.709  0.00  0.00    +0.000 A 
ATOM      8  C   UNL     1       1.679   7.802  19.870  0.00  0.00    +0.000 A 
ATOM      9  O   UNL     1       1.277   9.069  20.173  0.00  0.00    +0.000 OA
ENDROOT
BRANCH   1  13
ATOM     10  C   UNL     1      -0.008  13.785  18.723  0.00  0.00    +0.000 A 
ATOM     11  C   UNL     1       1.286  13.510  19.165  0.00  0.00    +0.000 A 
ATOM     12  C   UNL     1       1.732  12.188  19.270  0.00  0.00    +0.000 A 
ATOM     13  C   UNL     1       0.884  11.116  18.951  0.00  0.00    +0.000 A 
ATOM     14  C   UNL     1      -0.429  11.403  18.554  0.00  0.00    +0.000 A 
ATOM     15  C   UNL     1      -0.873  12.729  18.441  0.00  0.00    +0.000 A 
BRANCH  10  17
ATOM     16  C   UNL     1       0.773  16.012  18.735  0.00  0.00    +0.000 C 
ATOM     17  O   UNL     1      -0.324  15.113  18.632  0.00  0.00    +0.000 OA
ENDBRANCH  10  17
ENDBRANCH   1  13
BRANCH   5  18
ATOM     18  N   UNL     1       2.754   4.186  18.213  0.00  0.00    +0.000 N 
ATOM     19  C   UNL     1       3.846   3.453  18.624  0.00  0.00    +0.000 C 
ATOM     20  O   UNL     1       3.849   2.237  18.406  0.00  0.00    +0.000 OA
ATOM     21  H   UNL     1       1.982   3.551  18.034  0.00  0.00    +0.000 HD
BRANCH  19  22
ATOM     22  C   UNL     1       5.010   4.143  19.342  0.00  0.00    +0.000 C 
BRANCH  22  23
ATOM     23  O   UNL     1       6.167   4.118  18.525  0.00  0.00    +0.000 OA
BRANCH  23  24
ATOM     24  C   UNL     1       6.691   5.307  18.092  0.00  0.00    +0.000 A 
ATOM     25  C   UNL     1       7.613   5.844  19.003  0.00  0.00    +0.000 A 
ATOM     26  C   UNL     1       8.199   7.096  18.801  0.00  0.00    +0.000 A 
ATOM     27  C   UNL     1       7.860   7.835  17.679  0.00  0.00    +0.000 A 
ATOM     28  C   UNL     1       6.945   7.315  16.762  0.00  0.00    +0.000 A 
ATOM     29  C   UNL     1       6.341   6.054  16.953  0.00  0.00    +0.000 A 
ATOM     30  C   UNL     1       5.326   5.635  15.926  0.00  0.00    +0.000 C 
ENDBRANCH  23  24
ENDBRANCH  22  23
ENDBRANCH  19  22
ENDBRANCH   5  18
TORSDOF 6
ENDMDL
MODEL 9
REMARK VINA RESULT:      -7.5      5.209      6.928
REMARK  Name = 
REMARK  8 active torsions:
REMARK  status: ('A' for Active; 'I' for Inactive)
REMARK    1  A    between atoms: C_1  and  O_2
REMARK    2  A    between atoms: O_2  and  C_3
REMARK    3  A    between atoms: C_6  and  C_7
REMARK    4  A    between atoms: C_11  and  N_12
REMARK    5  A    between atoms: C_13  and  C_15
REMARK    6  A    between atoms: C_15  and  O_16
REMARK    7  A    between atoms: O_16  and  C_17
REMARK    8  A    between atoms: C_22  and  C_23
REMARK                            x       y       z     vdW  Elec       q    Type
REMARK                         _______ _______ _______ _____ _____    ______ ____
ROOT
ATOM      1  C   UNL     1       8.629   9.391  18.400  0.00  0.00    +0.000 A 
ATOM      2  N   UNL     1       7.957   9.009  17.327  0.00  0.00    +0.000 NA
ATOM      3  C   UNL     1       7.719   7.677  17.548  0.00  0.00    +0.000 A 
ATOM      4  C   UNL     1       6.989   6.743  16.802  0.00  0.00    +0.000 A 
ATOM      5  C   UNL     1       6.830   5.465  17.355  0.00  0.00    +0.000 A 
ATOM      6  C   UNL     1       7.446   5.095  18.558  0.00  0.00    +0.000 A 
ATOM      7  C   UNL     1       8.221   6.008  19.282  0.00  0.00    +0.000 A 
ATOM      8  C   UNL     1       8.298   7.287  18.745  0.00  0.00    +0.000 A 
ATOM      9  O   UNL     1       8.907   8.379  19.288  0.00  0.00    +0.000 OA
ENDROOT
BRANCH   1  13
ATOM     10  C   UNL     1       9.568  13.405  19.560  0.00  0.00    +0.000 A 
ATOM     11  C   UNL     1       9.220  13.106  18.243  0.00  0.00    +0.000 A 
ATOM     12  C   UNL     1       8.938  11.788  17.866  0.00  0.00    +0.000 A 
ATOM     13  C   UNL     1       9.015  10.744  18.800  0.00  0.00    +0.000 A 
ATOM     14  C   UNL     1       9.412  11.049  20.108  0.00  0.00    +0.000 A 
ATOM     15  C   UNL     1       9.686  12.372  20.486  0.00  0.00    +0.000 A 
BRANCH  10  17
ATOM     16  C   UNL     1      10.526  15.007  21.005  0.00  0.00    +0.000 C 
ATOM     17  O   UNL     1       9.793  14.730  19.818  0.00  0.00    +0.000 OA
ENDBRANCH  10  17
ENDBRANCH   1  13
BRANCH   5  18
ATOM     18  N   UNL     1       6.040   4.515  16.698  0.00  0.00    +0.000 N 
ATOM     19  C   UNL     1       4.673   4.635  16.577  0.00  0.00    +0.000 C 
ATOM     20  O   UNL     1       4.108   4.007  15.675  0.00  0.00    +0.000 OA
ATOM     21  H   UNL     1       6.413   4.131  15.834  0.00  0.00    +0.000 HD
BRANCH  19  22
ATOM     22  C   UNL     1       3.892   5.539  17.536  0.00  0.00    +0.000 C 
BRANCH  22  23
ATOM     23  O   UNL     1       2.563   5.069  17.671  0.00  0.00    +0.000 OA
BRANCH  23  24
ATOM     24  C   UNL     1       2.230   4.352  18.789  0.00  0.00    +0.000 A 
ATOM     25  C   UNL     1       2.089   5.169  19.921  0.00  0.00    +0.000 A 
ATOM     26  C   UNL     1       1.841   4.632  21.186  0.00  0.00    +0.000 A 
ATOM     27  C   UNL     1       1.738   3.259  21.337  0.00  0.00    +0.000 A 
ATOM     28  C   UNL     1       1.874   2.431  20.221  0.00  0.00    +0.000 A 
ATOM     29  C   UNL     1       2.129   2.957  18.936  0.00  0.00    +0.000 A 
ATOM     30  C   UNL     1       2.317   1.958  17.829  0.00  0.00    +0.000 C 
ENDBRANCH  23  24
ENDBRANCH  22  23
ENDBRANCH  19  22
ENDBRANCH   5  18
TORSDOF 6
ENDMDL
