MODEL 1
REMARK VINA RESULT:      -8.0      0.000      0.000
REMARK  Name = 
REMARK  7 active torsions:
REMARK  status: ('A' for Active; 'I' for Inactive)
REMARK    1  A    between atoms: C_1  and  C_2
REMARK    2  A    between atoms: C_2  and  C_3
REMARK    3  A    between atoms: C_3  and  C_4
REMARK    4  A    between atoms: C_4  and  C_5
REMARK    5  A    between atoms: C_8  and  S_9
REMARK    6  A    between atoms: S_9  and  N_12
REMARK    7  A    between atoms: N_12  and  C_13
REMARK                            x       y       z     vdW  Elec       q    Type
REMARK                         _______ _______ _______ _____ _____    ______ ____
ROOT
ATOM      1  S   UNL     1       5.023   4.416  19.044  0.00  0.00    +0.000 S 
ATOM      2  O   UNL     1       5.194   3.081  19.567  0.00  0.00    +0.000 OA
ATOM      3  O   UNL     1       5.633   5.560  19.697  0.00  0.00    +0.000 OA
ENDROOT
BRANCH   1   7
ATOM      4  C   UNL     1       6.424   4.371  14.700  0.00  0.00    +0.000 A 
ATOM      5  C   UNL     1       5.073   4.139  15.004  0.00  0.00    +0.000 A 
ATOM      6  C   UNL     1       4.635   4.183  16.322  0.00  0.00    +0.000 A 
ATOM      7  C   UNL     1       5.559   4.404  17.347  0.00  0.00    +0.000 A 
ATOM      8  C   UNL     1       6.911   4.611  17.061  0.00  0.00    +0.000 A 
ATOM      9  C   UNL     1       7.341   4.591  15.735  0.00  0.00    +0.000 A 
BRANCH   4  10
ATOM     10  C   UNL     1       6.866   4.457  13.254  0.00  0.00    +0.000 C 
BRANCH  10  11
ATOM     11  C   UNL     1       6.120   3.399  12.436  0.00  0.00    +0.000 C 
BRANCH  11  13
ATOM     12  C   UNL     1       6.449   1.281  11.162  0.00  0.00    +0.000 C 
ATOM     13  C   UNL     1       7.013   2.666  11.443  0.00  0.00    +0.000 C 
ENDBRANCH  11  13
ENDBRANCH  10  11
ENDBRANCH   4  10
ENDBRANCH   1   7
BRANCH   1  14
ATOM     14  N   UNL     1       3.340   4.663  18.880  0.00  0.00    +0.000 N 
ATOM     15  H   UNL     1       3.025   4.359  17.961  0.00  0.00    +0.000 HD
BRANCH  14  16
ATOM     16  C   UNL     1       2.856   5.920  19.347  0.00  0.00    +0.000 A 
ATOM     17  C   UNL     1       2.202   6.021  20.574  0.00  0.00    +0.000 A 
ATOM     18  C   UNL     1       1.503   7.191  20.884  0.00  0.00    +0.000 A 
ATOM     19  C   UNL     1       1.441   8.246  19.960  0.00  0.00    +0.000 A 
ATOM     20  C   UNL     1       2.137   8.154  18.750  0.00  0.00    +0.000 A 
ATOM     21  C   UNL     1       2.865   6.998  18.465  0.00  0.00    +0.000 A 
ATOM     22  C   UNL     1       2.130   9.294  17.771  0.00  0.00    +0.000 C 
ATOM     23  N   UNL     1       0.856  10.006  17.729  0.00  0.00    +0.000 NA
ATOM     24  C   UNL     1       0.353  10.393  19.047  0.00  0.00    +0.000 C 
ATOM     25  C   UNL     1       0.642   9.485  20.261  0.00  0.00    +0.000 C 
ATOM     26  H   UNL     1       0.173   9.413  17.260  0.00  0.00    +0.000 HD
ENDBRANCH  14  16
ENDBRANCH   1  14
TORSDOF 6
ENDMDL
MODEL 2
REMARK VINA RESULT:      -7.9      0.364      1.060
REMARK  Name = 
REMARK  7 active torsions:
REMARK  status: ('A' for Active; 'I' for Inactive)
REMARK    1  A    between atoms: C_1  and  C_2
REMARK    2  A    between atoms: C_2  and  C_3
REMARK    3  A    between atoms: C_3  and  C_4
REMARK    4  A    between atoms: C_4  and  C_5
REMARK    5  A    between atoms: C_8  and  S_9
REMARK    6  A    between atoms: S_9  and  N_12
REMARK    7  A    between atoms: N_12  and  C_13
REMARK                            x       y       z     vdW  Elec       q    Type
REMARK                         _______ _______ _______ _____ _____    ______ ____
ROOT
ATOM      1  S   UNL     1       5.043   4.509  19.003  0.00  0.00    +0.000 S 
ATOM      2  O   UNL     1       5.189   3.207  19.610  0.00  0.00    +0.000 OA
ATOM      3  O   UNL     1       5.677   5.680  19.582  0.00  0.00    +0.000 OA
ENDROOT
BRANCH   1   7
ATOM      4  C   UNL     1       6.380   4.180  14.651  0.00  0.00    +0.000 A 
ATOM      5  C   UNL     1       7.241   4.739  15.610  0.00  0.00    +0.000 A 
ATOM      6  C   UNL     1       6.852   4.813  16.942  0.00  0.00    +0.000 A 
ATOM      7  C   UNL     1       5.575   4.379  17.310  0.00  0.00    +0.000 A 
ATOM      8  C   UNL     1       4.699   3.844  16.362  0.00  0.00    +0.000 A 
ATOM      9  C   UNL     1       5.104   3.749  15.031  0.00  0.00    +0.000 A 
BRANCH   4  10
ATOM     10  C   UNL     1       6.865   3.979  13.231  0.00  0.00    +0.000 C 
BRANCH  10  11
ATOM     11  C   UNL     1       5.682   3.573  12.347  0.00  0.00    +0.000 C 
BRANCH  11  13
ATOM     12  C   UNL     1       7.283   2.044  11.201  0.00  0.00    +0.000 C 
ATOM     13  C   UNL     1       5.855   2.204  11.702  0.00  0.00    +0.000 C 
ENDBRANCH  11  13
ENDBRANCH  10  11
ENDBRANCH   4  10
ENDBRANCH   1   7
BRANCH   1  14
ATOM     14  N   UNL     1       3.365   4.778  18.825  0.00  0.00    +0.000 N 
ATOM     15  H   UNL     1       3.060   4.508  17.892  0.00  0.00    +0.000 HD
BRANCH  14  16
ATOM     16  C   UNL     1       2.886   6.024  19.327  0.00  0.00    +0.000 A 
ATOM     17  C   UNL     1       2.301   6.105  20.590  0.00  0.00    +0.000 A 
ATOM     18  C   UNL     1       1.600   7.261  20.946  0.00  0.00    +0.000 A 
ATOM     19  C   UNL     1       1.469   8.320  20.036  0.00  0.00    +0.000 A 
ATOM     20  C   UNL     1       2.099   8.248  18.788  0.00  0.00    +0.000 A 
ATOM     21  C   UNL     1       2.829   7.107  18.455  0.00  0.00    +0.000 A 
ATOM     22  C   UNL     1       2.017   9.395  17.819  0.00  0.00    +0.000 C 
ATOM     23  N   UNL     1       0.731  10.085  17.853  0.00  0.00    +0.000 NA
ATOM     24  C   UNL     1       0.296  10.455  19.200  0.00  0.00    +0.000 C 
ATOM     25  C   UNL     1       0.667   9.544  20.389  0.00  0.00    +0.000 C 
ATOM     26  H   UNL     1       0.034   9.483  17.419  0.00  0.00    +0.000 HD
ENDBRANCH  14  16
ENDBRANCH   1  14
TORSDOF 6
ENDMDL
MODEL 3
REMARK VINA RESULT:      -7.7      1.639      2.458
REMARK  Name = 
REMARK  7 active torsions:
REMARK  status: ('A' for Active; 'I' for Inactive)
REMARK    1  A    between atoms: C_1  and  C_2
REMARK    2  A    between atoms: C_2  and  C_3
REMARK    3  A    between atoms: C_3  and  C_4
REMARK    4  A    between atoms: C_4  and  C_5
REMARK    5  A    between atoms: C_8  and  S_9
REMARK    6  A    between atoms: S_9  and  N_12
REMARK    7  A    between atoms: N_12  and  C_13
REMARK                            x       y       z     vdW  Elec       q    Type
REMARK                         _______ _______ _______ _____ _____    ______ ____
ROOT
ATOM      1  S   UNL     1       2.723   4.177  19.802  0.00  0.00    +0.000 S 
ATOM      2  O   UNL     1       1.418   4.230  19.185  0.00  0.00    +0.000 OA
ATOM      3  O   UNL     1       3.078   3.103  20.711  0.00  0.00    +0.000 OA
ENDROOT
BRANCH   1   7
ATOM      4  C   UNL     1       5.858   4.270  16.485  0.00  0.00    +0.000 A 
ATOM      5  C   UNL     1       4.534   3.908  16.190  0.00  0.00    +0.000 A 
ATOM      6  C   UNL     1       3.568   3.908  17.190  0.00  0.00    +0.000 A 
ATOM      7  C   UNL     1       3.937   4.217  18.502  0.00  0.00    +0.000 A 
ATOM      8  C   UNL     1       5.256   4.555  18.814  0.00  0.00    +0.000 A 
ATOM      9  C   UNL     1       6.216   4.578  17.803  0.00  0.00    +0.000 A 
BRANCH   4  10
ATOM     10  C   UNL     1       6.870   4.399  15.367  0.00  0.00    +0.000 C 
BRANCH  10  11
ATOM     11  C   UNL     1       6.136   4.683  14.053  0.00  0.00    +0.000 C 
BRANCH  11  13
ATOM     12  C   UNL     1       5.158   3.423  12.137  0.00  0.00    +0.000 C 
ATOM     13  C   UNL     1       6.410   3.645  12.974  0.00  0.00    +0.000 C 
ENDBRANCH  11  13
ENDBRANCH  10  11
ENDBRANCH   4  10
ENDBRANCH   1   7
BRANCH   1  14
ATOM     14  N   UNL     1       2.967   5.690  20.558  0.00  0.00    +0.000 N 
ATOM     15  H   UNL     1       2.891   5.598  21.569  0.00  0.00    +0.000 HD
BRANCH  14  16
ATOM     16  C   UNL     1       2.292   6.793  19.956  0.00  0.00    +0.000 A 
ATOM     17  C   UNL     1       2.585   7.180  18.649  0.00  0.00    +0.000 A 
ATOM     18  C   UNL     1       2.121   8.412  18.180  0.00  0.00    +0.000 A 
ATOM     19  C   UNL     1       1.386   9.261  19.022  0.00  0.00    +0.000 A 
ATOM     20  C   UNL     1       1.058   8.844  20.317  0.00  0.00    +0.000 A 
ATOM     21  C   UNL     1       1.493   7.595  20.765  0.00  0.00    +0.000 A 
ATOM     22  C   UNL     1       0.225   9.713  21.216  0.00  0.00    +0.000 C 
ATOM     23  N   UNL     1       0.494  11.138  21.047  0.00  0.00    +0.000 NA
ATOM     24  C   UNL     1       0.466  11.581  19.653  0.00  0.00    +0.000 C 
ATOM     25  C   UNL     1       0.932  10.614  18.544  0.00  0.00    +0.000 C 
ATOM     26  H   UNL     1       1.404  11.343  21.455  0.00  0.00    +0.000 HD
ENDBRANCH  14  16
ENDBRANCH   1  14
TORSDOF 6
ENDMDL
MODEL 4
REMARK VINA RESULT:      -7.7      1.975      2.691
REMARK  Name = 
REMARK  7 active torsions:
REMARK  status: ('A' for Active; 'I' for Inactive)
REMARK    1  A    between atoms: C_1  and  C_2
REMARK    2  A    between atoms: C_2  and  C_3
REMARK    3  A    between atoms: C_3  and  C_4
REMARK    4  A    between atoms: C_4  and  C_5
REMARK    5  A    between atoms: C_8  and  S_9
REMARK    6  A    between atoms: S_9  and  N_12
REMARK    7  A    between atoms: N_12  and  C_13
REMARK                            x       y       z     vdW  Elec       q    Type
REMARK                         _______ _______ _______ _____ _____    ______ ____
ROOT
ATOM      1  S   UNL     1       2.810   4.921  19.289  0.00  0.00    +0.000 S 
ATOM      2  O   UNL     1       1.447   5.006  18.820  0.00  0.00    +0.000 OA
ATOM      3  O   UNL     1       3.238   3.839  20.156  0.00  0.00    +0.000 OA
ENDROOT
BRANCH   1   7
ATOM      4  C   UNL     1       5.556   4.964  15.642  0.00  0.00    +0.000 A 
ATOM      5  C   UNL     1       4.803   3.817  15.941  0.00  0.00    +0.000 A 
ATOM      6  C   UNL     1       3.942   3.809  17.031  0.00  0.00    +0.000 A 
ATOM      7  C   UNL     1       3.873   4.931  17.861  0.00  0.00    +0.000 A 
ATOM      8  C   UNL     1       4.636   6.070  17.591  0.00  0.00    +0.000 A 
ATOM      9  C   UNL     1       5.480   6.082  16.481  0.00  0.00    +0.000 A 
BRANCH   4  10
ATOM     10  C   UNL     1       6.387   5.011  14.377  0.00  0.00    +0.000 C 
BRANCH  10  11
ATOM     11  C   UNL     1       6.399   3.622  13.731  0.00  0.00    +0.000 C 
BRANCH  11  13
ATOM     12  C   UNL     1       4.912   3.193  11.777  0.00  0.00    +0.000 C 
ATOM     13  C   UNL     1       6.292   3.665  12.213  0.00  0.00    +0.000 C 
ENDBRANCH  11  13
ENDBRANCH  10  11
ENDBRANCH   4  10
ENDBRANCH   1   7
BRANCH   1  14
ATOM     14  N   UNL     1       3.173   6.428  20.008  0.00  0.00    +0.000 N 
ATOM     15  H   UNL     1       3.596   6.291  20.924  0.00  0.00    +0.000 HD
BRANCH  14  16
ATOM     16  C   UNL     1       2.152   7.418  19.907  0.00  0.00    +0.000 A 
ATOM     17  C   UNL     1       2.044   8.218  18.770  0.00  0.00    +0.000 A 
ATOM     18  C   UNL     1       1.224   9.350  18.804  0.00  0.00    +0.000 A 
ATOM     19  C   UNL     1       0.533   9.689  19.977  0.00  0.00    +0.000 A 
ATOM     20  C   UNL     1       0.611   8.855  21.099  0.00  0.00    +0.000 A 
ATOM     21  C   UNL     1       1.401   7.707  21.043  0.00  0.00    +0.000 A 
ATOM     22  C   UNL     1      -0.166   9.171  22.346  0.00  0.00    +0.000 C 
ATOM     23  N   UNL     1      -0.265  10.603  22.614  0.00  0.00    +0.000 NA
ATOM     24  C   UNL     1      -0.708  11.388  21.462  0.00  0.00    +0.000 C 
ATOM     25  C   UNL     1      -0.306  10.937  20.042  0.00  0.00    +0.000 C 
ATOM     26  H   UNL     1       0.646  10.934  22.927  0.00  0.00    +0.000 HD
ENDBRANCH  14  16
ENDBRANCH   1  14
TORSDOF 6
ENDMDL
MODEL 5
REMARK VINA RESULT:      -7.7      1.967      2.709
REMARK  Name = 
REMARK  7 active torsions:
REMARK  status: ('A' for Active; 'I' for Inactive)
REMARK    1  A    between atoms: C_1  and  C_2
REMARK    2  A    between atoms: C_2  and  C_3
REMARK    3  A    between atoms: C_3  and  C_4
REMARK    4  A    between atoms: C_4  and  C_5
REMARK    5  A    between atoms: C_8  and  S_9
REMARK    6  A    between atoms: S_9  and  N_12
REMARK    7  A    between atoms: N_12  and  C_13
REMARK                            x       y       z     vdW  Elec       q    Type
REMARK                         _______ _______ _______ _____ _____    ______ ____
ROOT
ATOM      1  S   UNL     1       3.308   5.731  18.366  0.00  0.00    +0.000 S 
ATOM      2  O   UNL     1       1.952   5.384  18.012  0.00  0.00    +0.000 OA
ATOM      3  O   UNL     1       3.917   5.223  19.582  0.00  0.00    +0.000 OA
ENDROOT
BRANCH   1   7
ATOM      4  C   UNL     1       6.010   4.600  14.865  0.00  0.00    +0.000 A 
ATOM      5  C   UNL     1       5.509   3.602  15.717  0.00  0.00    +0.000 A 
ATOM      6  C   UNL     1       4.661   3.937  16.765  0.00  0.00    +0.000 A 
ATOM      7  C   UNL     1       4.355   5.280  17.000  0.00  0.00    +0.000 A 
ATOM      8  C   UNL     1       4.866   6.286  16.175  0.00  0.00    +0.000 A 
ATOM      9  C   UNL     1       5.697   5.943  15.110  0.00  0.00    +0.000 A 
BRANCH   4  10
ATOM     10  C   UNL     1       6.821   4.212  13.647  0.00  0.00    +0.000 C 
BRANCH  10  11
ATOM     11  C   UNL     1       5.994   3.267  12.771  0.00  0.00    +0.000 C 
BRANCH  11  13
ATOM     12  C   UNL     1       4.107   2.971  11.168  0.00  0.00    +0.000 C 
ATOM     13  C   UNL     1       4.820   3.954  12.086  0.00  0.00    +0.000 C 
ENDBRANCH  11  13
ENDBRANCH  10  11
ENDBRANCH   4  10
ENDBRANCH   1   7
BRANCH   1  14
ATOM     14  N   UNL     1       3.400   7.437  18.332  0.00  0.00    +0.000 N 
ATOM     15  H   UNL     1       4.291   7.752  18.711  0.00  0.00    +0.000 HD
BRANCH  14  16
ATOM     16  C   UNL     1       2.230   8.124  18.772  0.00  0.00    +0.000 A 
ATOM     17  C   UNL     1       1.544   8.984  17.916  0.00  0.00    +0.000 A 
ATOM     18  C   UNL     1       0.577   9.846  18.441  0.00  0.00    +0.000 A 
ATOM     19  C   UNL     1       0.313   9.860  19.820  0.00  0.00    +0.000 A 
ATOM     20  C   UNL     1       0.974   8.961  20.665  0.00  0.00    +0.000 A 
ATOM     21  C   UNL     1       1.911   8.077  20.126  0.00  0.00    +0.000 A 
ATOM     22  C   UNL     1       0.666   8.921  22.135  0.00  0.00    +0.000 C 
ATOM     23  N   UNL     1       0.374  10.237  22.696  0.00  0.00    +0.000 NA
ATOM     24  C   UNL     1      -0.618  10.995  21.934  0.00  0.00    +0.000 C 
ATOM     25  C   UNL     1      -0.684  10.824  20.402  0.00  0.00    +0.000 C 
ATOM     26  H   UNL     1       1.244  10.763  22.748  0.00  0.00    +0.000 HD
ENDBRANCH  14  16
ENDBRANCH   1  14
TORSDOF 6
ENDMDL
MODEL 6
REMARK VINA RESULT:      -7.7      4.086      6.329
REMARK  Name = 
REMARK  7 active torsions:
REMARK  status: ('A' for Active; 'I' for Inactive)
REMARK    1  A    between atoms: C_1  and  C_2
REMARK    2  A    between atoms: C_2  and  C_3
REMARK    3  A    between atoms: C_3  and  C_4
REMARK    4  A    between atoms: C_4  and  C_5
REMARK    5  A    between atoms: C_8  and  S_9
REMARK    6  A    between atoms: S_9  and  N_12
REMARK    7  A    between atoms: N_12  and  C_13
REMARK                            x       y       z     vdW  Elec       q    Type
REMARK                         _______ _______ _______ _____ _____    ______ ____
ROOT
ATOM      1  S   UNL     1       6.642   4.951  16.945  0.00  0.00    +0.000 S 
ATOM      2  O   UNL     1       7.408   4.562  15.784  0.00  0.00    +0.000 OA
ATOM      3  O   UNL     1       6.423   4.024  18.041  0.00  0.00    +0.000 OA
ENDROOT
BRANCH   1   7
ATOM      4  C   UNL     1       8.524   8.745  18.648  0.00  0.00    +0.000 A 
ATOM      5  C   UNL     1       8.610   7.538  19.361  0.00  0.00    +0.000 A 
ATOM      6  C   UNL     1       8.066   6.373  18.832  0.00  0.00    +0.000 A 
ATOM      7  C   UNL     1       7.385   6.423  17.613  0.00  0.00    +0.000 A 
ATOM      8  C   UNL     1       7.270   7.623  16.906  0.00  0.00    +0.000 A 
ATOM      9  C   UNL     1       7.839   8.783  17.428  0.00  0.00    +0.000 A 
BRANCH   4  10
ATOM     10  C   UNL     1       9.237   9.976  19.166  0.00  0.00    +0.000 C 
BRANCH  10  11
ATOM     11  C   UNL     1       9.454  10.956  18.010  0.00  0.00    +0.000 C 
BRANCH  11  13
ATOM     12  C   UNL     1      11.213  11.719  19.603  0.00  0.00    +0.000 C 
ATOM     13  C   UNL     1      10.437  12.071  18.342  0.00  0.00    +0.000 C 
ENDBRANCH  11  13
ENDBRANCH  10  11
ENDBRANCH   4  10
ENDBRANCH   1   7
BRANCH   1  14
ATOM     14  N   UNL     1       5.147   5.542  16.368  0.00  0.00    +0.000 N 
ATOM     15  H   UNL     1       5.274   6.442  15.910  0.00  0.00    +0.000 HD
BRANCH  14  16
ATOM     16  C   UNL     1       4.050   5.423  17.271  0.00  0.00    +0.000 A 
ATOM     17  C   UNL     1       3.804   6.408  18.227  0.00  0.00    +0.000 A 
ATOM     18  C   UNL     1       2.906   6.146  19.265  0.00  0.00    +0.000 A 
ATOM     19  C   UNL     1       2.273   4.896  19.357  0.00  0.00    +0.000 A 
ATOM     20  C   UNL     1       2.491   3.931  18.367  0.00  0.00    +0.000 A 
ATOM     21  C   UNL     1       3.360   4.215  17.313  0.00  0.00    +0.000 A 
ATOM     22  C   UNL     1       1.781   2.607  18.416  0.00  0.00    +0.000 C 
ATOM     23  N   UNL     1       1.593   2.106  19.775  0.00  0.00    +0.000 NA
ATOM     24  C   UNL     1       1.013   3.089  20.690  0.00  0.00    +0.000 C 
ATOM     25  C   UNL     1       1.350   4.584  20.503  0.00  0.00    +0.000 C 
ATOM     26  H   UNL     1       2.495   1.796  20.129  0.00  0.00    +0.000 HD
ENDBRANCH  14  16
ENDBRANCH   1  14
TORSDOF 6
ENDMDL
MODEL 7
REMARK VINA RESULT:      -7.7      2.260      3.670
REMARK  Name = 
REMARK  7 active torsions:
REMARK  status: ('A' for Active; 'I' for Inactive)
REMARK    1  A    between atoms: C_1  and  C_2
REMARK    2  A    between atoms: C_2  and  C_3
REMARK    3  A    between atoms: C_3  and  C_4
REMARK    4  A    between atoms: C_4  and  C_5
REMARK    5  A    between atoms: C_8  and  S_9
REMARK    6  A    between atoms: S_9  and  N_12
REMARK    7  A    between atoms: N_12  and  C_13
REMARK                            x       y       z     vdW  Elec       q    Type
REMARK                         _______ _______ _______ _____ _____    ______ ____
ROOT
ATOM      1  S   UNL     1       6.084   5.933  17.219  0.00  0.00    +0.000 S 
ATOM      2  O   UNL     1       5.951   4.868  18.186  0.00  0.00    +0.000 OA
ATOM      3  O   UNL     1       7.122   6.939  17.352  0.00  0.00    +0.000 OA
ENDROOT
BRANCH   1   7
ATOM      4  C   UNL     1       6.535   4.012  13.103  0.00  0.00    +0.000 A 
ATOM      5  C   UNL     1       5.405   3.733  13.888  0.00  0.00    +0.000 A 
ATOM      6  C   UNL     1       5.247   4.339  15.128  0.00  0.00    +0.000 A 
ATOM      7  C   UNL     1       6.248   5.185  15.613  0.00  0.00    +0.000 A 
ATOM      8  C   UNL     1       7.390   5.452  14.853  0.00  0.00    +0.000 A 
ATOM      9  C   UNL     1       7.532   4.861  13.598  0.00  0.00    +0.000 A 
BRANCH   4  10
ATOM     10  C   UNL     1       6.632   3.455  11.698  0.00  0.00    +0.000 C 
BRANCH  10  11
ATOM     11  C   UNL     1       5.878   2.124  11.631  0.00  0.00    +0.000 C 
BRANCH  11  13
ATOM     12  C   UNL     1       6.048  -0.341  11.297  0.00  0.00    +0.000 C 
ATOM     13  C   UNL     1       6.687   1.006  10.988  0.00  0.00    +0.000 C 
ENDBRANCH  11  13
ENDBRANCH  10  11
ENDBRANCH   4  10
ENDBRANCH   1   7
BRANCH   1  14
ATOM     14  N   UNL     1       4.553   6.681  17.104  0.00  0.00    +0.000 N 
ATOM     15  H   UNL     1       4.648   7.694  17.152  0.00  0.00    +0.000 HD
BRANCH  14  16
ATOM     16  C   UNL     1       3.520   6.090  17.889  0.00  0.00    +0.000 A 
ATOM     17  C   UNL     1       3.092   6.690  19.073  0.00  0.00    +0.000 A 
ATOM     18  C   UNL     1       2.285   5.966  19.955  0.00  0.00    +0.000 A 
ATOM     19  C   UNL     1       1.927   4.640  19.663  0.00  0.00    +0.000 A 
ATOM     20  C   UNL     1       2.324   4.062  18.452  0.00  0.00    +0.000 A 
ATOM     21  C   UNL     1       3.096   4.806  17.559  0.00  0.00    +0.000 A 
ATOM     22  C   UNL     1       1.904   2.663  18.095  0.00  0.00    +0.000 C 
ATOM     23  N   UNL     1       1.848   1.769  19.248  0.00  0.00    +0.000 NA
ATOM     24  C   UNL     1       1.093   2.311  20.378  0.00  0.00    +0.000 C 
ATOM     25  C   UNL     1       1.109   3.833  20.634  0.00  0.00    +0.000 C 
ATOM     26  H   UNL     1       2.801   1.561  19.539  0.00  0.00    +0.000 HD
ENDBRANCH  14  16
ENDBRANCH   1  14
TORSDOF 6
ENDMDL
MODEL 8
REMARK VINA RESULT:      -7.6      1.695      2.743
REMARK  Name = 
REMARK  7 active torsions:
REMARK  status: ('A' for Active; 'I' for Inactive)
REMARK    1  A    between atoms: C_1  and  C_2
REMARK    2  A    between atoms: C_2  and  C_3
REMARK    3  A    between atoms: C_3  and  C_4
REMARK    4  A    between atoms: C_4  and  C_5
REMARK    5  A    between atoms: C_8  and  S_9
REMARK    6  A    between atoms: S_9  and  N_12
REMARK    7  A    between atoms: N_12  and  C_13
REMARK                            x       y       z     vdW  Elec       q    Type
REMARK                         _______ _______ _______ _____ _____    ______ ____
ROOT
ATOM      1  S   UNL     1       2.585   4.168  19.895  0.00  0.00    +0.000 S 
ATOM      2  O   UNL     1       1.316   4.239  19.209  0.00  0.00    +0.000 OA
ATOM      3  O   UNL     1       2.885   3.077  20.803  0.00  0.00    +0.000 OA
ENDROOT
BRANCH   1   7
ATOM      4  C   UNL     1       5.856   4.322  16.714  0.00  0.00    +0.000 A 
ATOM      5  C   UNL     1       6.168   4.592  18.056  0.00  0.00    +0.000 A 
ATOM      6  C   UNL     1       5.183   4.516  19.033  0.00  0.00    +0.000 A 
ATOM      7  C   UNL     1       3.868   4.224  18.662  0.00  0.00    +0.000 A 
ATOM      8  C   UNL     1       3.538   3.977  17.327  0.00  0.00    +0.000 A 
ATOM      9  C   UNL     1       4.534   4.030  16.354  0.00  0.00    +0.000 A 
BRANCH   4  10
ATOM     10  C   UNL     1       6.960   4.274  15.679  0.00  0.00    +0.000 C 
BRANCH  10  11
ATOM     11  C   UNL     1       6.424   4.800  14.345  0.00  0.00    +0.000 C 
BRANCH  11  13
ATOM     12  C   UNL     1       6.988   3.967  12.064  0.00  0.00    +0.000 C 
ATOM     13  C   UNL     1       6.173   3.701  13.321  0.00  0.00    +0.000 C 
ENDBRANCH  11  13
ENDBRANCH  10  11
ENDBRANCH   4  10
ENDBRANCH   1   7
BRANCH   1  14
ATOM     14  N   UNL     1       2.794   5.667  20.688  0.00  0.00    +0.000 N 
ATOM     15  H   UNL     1       2.650   5.561  21.690  0.00  0.00    +0.000 HD
BRANCH  14  16
ATOM     16  C   UNL     1       2.174   6.786  20.059  0.00  0.00    +0.000 A 
ATOM     17  C   UNL     1       2.533   7.168  18.767  0.00  0.00    +0.000 A 
ATOM     18  C   UNL     1       2.121   8.411  18.280  0.00  0.00    +0.000 A 
ATOM     19  C   UNL     1       1.370   9.277  19.091  0.00  0.00    +0.000 A 
ATOM     20  C   UNL     1       0.976   8.867  20.369  0.00  0.00    +0.000 A 
ATOM     21  C   UNL     1       1.359   7.608  20.833  0.00  0.00    +0.000 A 
ATOM     22  C   UNL     1       0.125   9.756  21.233  0.00  0.00    +0.000 C 
ATOM     23  N   UNL     1       0.436  11.174  21.078  0.00  0.00    +0.000 NA
ATOM     24  C   UNL     1       0.480  11.619  19.685  0.00  0.00    +0.000 C 
ATOM     25  C   UNL     1       0.971  10.641  18.596  0.00  0.00    +0.000 C 
ATOM     26  H   UNL     1       1.331  11.356  21.527  0.00  0.00    +0.000 HD
ENDBRANCH  14  16
ENDBRANCH   1  14
TORSDOF 6
ENDMDL
MODEL 9
REMARK VINA RESULT:      -7.6      2.075      2.883
REMARK  Name = 
REMARK  7 active torsions:
REMARK  status: ('A' for Active; 'I' for Inactive)
REMARK    1  A    between atoms: C_1  and  C_2
REMARK    2  A    between atoms: C_2  and  C_3
REMARK    3  A    between atoms: C_3  and  C_4
REMARK    4  A    between atoms: C_4  and  C_5
REMARK    5  A    between atoms: C_8  and  S_9
REMARK    6  A    between atoms: S_9  and  N_12
REMARK    7  A    between atoms: N_12  and  C_13
REMARK                            x       y       z     vdW  Elec       q    Type
REMARK                         _______ _______ _______ _____ _____    ______ ____
ROOT
ATOM      1  S   UNL     1       3.183   5.994  18.447  0.00  0.00    +0.000 S 
ATOM      2  O   UNL     1       1.841   5.572  18.119  0.00  0.00    +0.000 OA
ATOM      3  O   UNL     1       3.825   5.562  19.675  0.00  0.00    +0.000 OA
ENDROOT
BRANCH   1   7
ATOM      4  C   UNL     1       5.874   4.803  14.957  0.00  0.00    +0.000 A 
ATOM      5  C   UNL     1       5.552   6.154  15.167  0.00  0.00    +0.000 A 
ATOM      6  C   UNL     1       4.759   6.526  16.246  0.00  0.00    +0.000 A 
ATOM      7  C   UNL     1       4.239   5.540  17.088  0.00  0.00    +0.000 A 
ATOM      8  C   UNL     1       4.530   4.190  16.877  0.00  0.00    +0.000 A 
ATOM      9  C   UNL     1       5.347   3.824  15.808  0.00  0.00    +0.000 A 
BRANCH   4  10
ATOM     10  C   UNL     1       6.848   4.423  13.862  0.00  0.00    +0.000 C 
BRANCH  10  11
ATOM     11  C   UNL     1       6.191   3.393  12.939  0.00  0.00    +0.000 C 
BRANCH  11  13
ATOM     12  C   UNL     1       4.407   2.877  11.276  0.00  0.00    +0.000 C 
ATOM     13  C   UNL     1       4.922   3.906  12.272  0.00  0.00    +0.000 C 
ENDBRANCH  11  13
ENDBRANCH  10  11
ENDBRANCH   4  10
ENDBRANCH   1   7
BRANCH   1  14
ATOM     14  N   UNL     1       3.195   7.699  18.347  0.00  0.00    +0.000 N 
ATOM     15  H   UNL     1       4.095   8.066  18.648  0.00  0.00    +0.000 HD
BRANCH  14  16
ATOM     16  C   UNL     1       2.030   8.352  18.846  0.00  0.00    +0.000 A 
ATOM     17  C   UNL     1       1.316   9.246  18.048  0.00  0.00    +0.000 A 
ATOM     18  C   UNL     1       0.354  10.071  18.637  0.00  0.00    +0.000 A 
ATOM     19  C   UNL     1       0.122  10.015  20.020  0.00  0.00    +0.000 A 
ATOM     20  C   UNL     1       0.810   9.084  20.805  0.00  0.00    +0.000 A 
ATOM     21  C   UNL     1       1.742   8.237  20.203  0.00  0.00    +0.000 A 
ATOM     22  C   UNL     1       0.537   8.970  22.279  0.00  0.00    +0.000 C 
ATOM     23  N   UNL     1       0.246  10.254  22.910  0.00  0.00    +0.000 NA
ATOM     24  C   UNL     1      -0.771  11.038  22.208  0.00  0.00    +0.000 C 
ATOM     25  C   UNL     1      -0.870  10.940  20.671  0.00  0.00    +0.000 C 
ATOM     26  H   UNL     1       1.113  10.786  22.967  0.00  0.00    +0.000 HD
ENDBRANCH  14  16
ENDBRANCH   1  14
TORSDOF 6
ENDMDL
