MODEL 1
REMARK VINA RESULT:      -8.9      0.000      0.000
REMARK  Name = 
REMARK  10 active torsions:
REMARK  status: ('A' for Active; 'I' for Inactive)
REMARK    1  A    between atoms: C_1  and  O_2
REMARK    2  A    between atoms: O_2  and  C_3
REMARK    3  A    between atoms: C_6  and  C_7
REMARK    4  A    between atoms: C_8  and  C_9
REMARK    5  A    between atoms: C_16  and  N_17
REMARK    6  A    between atoms: N_17  and  C_18
REMARK    7  A    between atoms: C_20  and  C_21
REMARK    8  A    between atoms: C_21  and  O_22
REMARK    9  A    between atoms: C_23  and  O_24
REMARK   10  A    between atoms: C_25  and  O_26
REMARK                            x       y       z     vdW  Elec       q    Type
REMARK                         _______ _______ _______ _____ _____    ______ ____
ROOT
ATOM      1  C   UNL     1       4.624   5.817  17.366  0.00  0.00    +0.000 A 
ATOM      2  C   UNL     1       5.830   6.207  16.815  0.00  0.00    +0.000 A 
ATOM      3 CL   UNL     1       6.615   7.692  17.206  0.00  0.00    +0.000 Cl
ATOM      4  N   UNL     1       6.517   5.523  15.875  0.00  0.00    +0.000 NA
ATOM      5  C   UNL     1       5.960   4.399  15.443  0.00  0.00    +0.000 A 
ATOM      6  N   UNL     1       6.580   3.717  14.420  0.00  0.00    +0.000 N 
ATOM      7  N   UNL     1       4.834   3.882  15.927  0.00  0.00    +0.000 NA
ATOM      8  C   UNL     1       4.176   4.577  16.866  0.00  0.00    +0.000 A 
ATOM      9  H   UNL     1       7.562   3.943  14.364  0.00  0.00    +0.000 HD
ATOM     10  H   UNL     1       6.318   2.740  14.419  0.00  0.00    +0.000 HD
ENDROOT
BRANCH   1  12
ATOM     11  C   UNL     1       2.779   7.585  17.962  0.00  0.00    +0.000 C 
ATOM     12  C   UNL     1       3.709   6.641  18.219  0.00  0.00    +0.000 C 
BRANCH  11  16
ATOM     13  C   UNL     1       0.352   9.551  21.013  0.00  0.00    +0.000 A 
ATOM     14  C   UNL     1       0.994   8.344  21.277  0.00  0.00    +0.000 A 
ATOM     15  C   UNL     1       1.788   7.722  20.304  0.00  0.00    +0.000 A 
ATOM     16  C   UNL     1       1.962   8.259  19.022  0.00  0.00    +0.000 A 
ATOM     17  C   UNL     1       1.310   9.480  18.768  0.00  0.00    +0.000 A 
ATOM     18  C   UNL     1       0.516  10.118  19.756  0.00  0.00    +0.000 A 
BRANCH  13  20
ATOM     19  C   UNL     1      -0.097   9.559  23.354  0.00  0.00    +0.000 C 
ATOM     20  O   UNL     1      -0.410  10.007  22.048  0.00  0.00    +0.000 OA
ENDBRANCH  13  20
ENDBRANCH  11  16
ENDBRANCH   1  12
BRANCH   8  21
ATOM     21  N   UNL     1       2.973   4.057  17.345  0.00  0.00    +0.000 N 
ATOM     22  H   UNL     1       2.690   4.619  18.149  0.00  0.00    +0.000 HD
BRANCH  21  23
ATOM     23  C   UNL     1       2.689   2.629  17.567  0.00  0.00    +0.000 C 
ATOM     24  C   UNL     1       1.622   2.315  18.630  0.00  0.00    +0.000 C 
ATOM     25  C   UNL     1       2.315   2.446  20.004  0.00  0.00    +0.000 C 
ATOM     26  C   UNL     1       3.796   2.692  19.672  0.00  0.00    +0.000 C 
ATOM     27  C   UNL     1       3.948   2.071  18.268  0.00  0.00    +0.000 C 
BRANCH  26  28
ATOM     28  O   UNL     1       4.650   2.042  20.604  0.00  0.00    +0.000 OA
ATOM     29  H   UNL     1       4.092   1.681  21.318  0.00  0.00    +0.000 HD
ENDBRANCH  26  28
BRANCH  27  30
ATOM     30  O   UNL     1       3.951   0.641  18.328  0.00  0.00    +0.000 OA
ATOM     31  H   UNL     1       4.250   0.378  19.222  0.00  0.00    +0.000 HD
ENDBRANCH  27  30
BRANCH  25  32
ATOM     32  C   UNL     1       1.637   3.516  20.853  0.00  0.00    +0.000 C 
BRANCH  32  33
ATOM     33  O   UNL     1       2.224   3.520  22.156  0.00  0.00    +0.000 OA
ATOM     34  H   UNL     1       2.162   2.620  22.520  0.00  0.00    +0.000 HD
ENDBRANCH  32  33
ENDBRANCH  25  32
ENDBRANCH  21  23
ENDBRANCH   8  21
TORSDOF 9
ENDMDL
MODEL 2
REMARK VINA RESULT:      -8.8      3.121      6.666
REMARK  Name = 
REMARK  10 active torsions:
REMARK  status: ('A' for Active; 'I' for Inactive)
REMARK    1  A    between atoms: C_1  and  O_2
REMARK    2  A    between atoms: O_2  and  C_3
REMARK    3  A    between atoms: C_6  and  C_7
REMARK    4  A    between atoms: C_8  and  C_9
REMARK    5  A    between atoms: C_16  and  N_17
REMARK    6  A    between atoms: N_17  and  C_18
REMARK    7  A    between atoms: C_20  and  C_21
REMARK    8  A    between atoms: C_21  and  O_22
REMARK    9  A    between atoms: C_23  and  O_24
REMARK   10  A    between atoms: C_25  and  O_26
REMARK                            x       y       z     vdW  Elec       q    Type
REMARK                         _______ _______ _______ _____ _____    ______ ____
ROOT
ATOM      1  C   UNL     1       2.187   7.317  19.053  0.00  0.00    +0.000 A 
ATOM      2  C   UNL     1       1.741   8.625  19.003  0.00  0.00    +0.000 A 
ATOM      3 CL   UNL     1       1.892   9.626  17.609  0.00  0.00    +0.000 Cl
ATOM      4  N   UNL     1       1.189   9.301  20.034  0.00  0.00    +0.000 NA
ATOM      5  C   UNL     1       1.099   8.646  21.184  0.00  0.00    +0.000 A 
ATOM      6  N   UNL     1       0.627   9.325  22.285  0.00  0.00    +0.000 N 
ATOM      7  N   UNL     1       1.437   7.370  21.354  0.00  0.00    +0.000 NA
ATOM      8  C   UNL     1       1.974   6.719  20.311  0.00  0.00    +0.000 A 
ATOM      9  H   UNL     1       0.067  10.121  22.019  0.00  0.00    +0.000 HD
ATOM     10  H   UNL     1       0.250   8.690  22.975  0.00  0.00    +0.000 HD
ENDROOT
BRANCH   1  12
ATOM     11  C   UNL     1       4.341   6.528  17.779  0.00  0.00    +0.000 C 
ATOM     12  C   UNL     1       3.017   6.605  18.029  0.00  0.00    +0.000 C 
BRANCH  11  16
ATOM     13  C   UNL     1       6.025   4.088  14.574  0.00  0.00    +0.000 A 
ATOM     14  C   UNL     1       5.801   5.451  14.394  0.00  0.00    +0.000 A 
ATOM     15  C   UNL     1       5.277   6.238  15.428  0.00  0.00    +0.000 A 
ATOM     16  C   UNL     1       4.934   5.704  16.677  0.00  0.00    +0.000 A 
ATOM     17  C   UNL     1       5.168   4.326  16.847  0.00  0.00    +0.000 A 
ATOM     18  C   UNL     1       5.710   3.531  15.805  0.00  0.00    +0.000 A 
BRANCH  13  20
ATOM     19  C   UNL     1       5.664   3.390  12.322  0.00  0.00    +0.000 C 
ATOM     20  O   UNL     1       6.502   3.458  13.462  0.00  0.00    +0.000 OA
ENDBRANCH  13  20
ENDBRANCH  11  16
ENDBRANCH   1  12
BRANCH   8  21
ATOM     21  N   UNL     1       2.368   5.394  20.498  0.00  0.00    +0.000 N 
ATOM     22  H   UNL     1       3.025   5.157  19.753  0.00  0.00    +0.000 HD
BRANCH  21  23
ATOM     23  C   UNL     1       1.466   4.268  20.791  0.00  0.00    +0.000 C 
ATOM     24  C   UNL     1       2.107   3.060  21.495  0.00  0.00    +0.000 C 
ATOM     25  C   UNL     1       2.848   2.254  20.406  0.00  0.00    +0.000 C 
ATOM     26  C   UNL     1       2.484   2.954  19.087  0.00  0.00    +0.000 C 
ATOM     27  C   UNL     1       1.142   3.643  19.414  0.00  0.00    +0.000 C 
BRANCH  26  28
ATOM     28  O   UNL     1       2.323   2.018  18.031  0.00  0.00    +0.000 OA
ATOM     29  H   UNL     1       1.831   1.252  18.384  0.00  0.00    +0.000 HD
ENDBRANCH  26  28
BRANCH  27  30
ATOM     30  O   UNL     1       0.073   2.693  19.484  0.00  0.00    +0.000 OA
ATOM     31  H   UNL     1      -0.070   2.335  18.585  0.00  0.00    +0.000 HD
ENDBRANCH  27  30
BRANCH  25  32
ATOM     32  C   UNL     1       4.336   2.159  20.721  0.00  0.00    +0.000 C 
BRANCH  32  33
ATOM     33  O   UNL     1       5.083   2.435  19.534  0.00  0.00    +0.000 OA
ATOM     34  H   UNL     1       5.197   1.600  19.047  0.00  0.00    +0.000 HD
ENDBRANCH  32  33
ENDBRANCH  25  32
ENDBRANCH  21  23
ENDBRANCH   8  21
TORSDOF 9
ENDMDL
MODEL 3
REMARK VINA RESULT:      -8.8      0.502      1.031
REMARK  Name = 
REMARK  10 active torsions:
REMARK  status: ('A' for Active; 'I' for Inactive)
REMARK    1  A    between atoms: C_1  and  O_2
REMARK    2  A    between atoms: O_2  and  C_3
REMARK    3  A    between atoms: C_6  and  C_7
REMARK    4  A    between atoms: C_8  and  C_9
REMARK    5  A    between atoms: C_16  and  N_17
REMARK    6  A    between atoms: N_17  and  C_18
REMARK    7  A    between atoms: C_20  and  C_21
REMARK    8  A    between atoms: C_21  and  O_22
REMARK    9  A    between atoms: C_23  and  O_24
REMARK   10  A    between atoms: C_25  and  O_26
REMARK                            x       y       z     vdW  Elec       q    Type
REMARK                         _______ _______ _______ _____ _____    ______ ____
ROOT
ATOM      1  C   UNL     1       4.646   5.806  17.345  0.00  0.00    +0.000 A 
ATOM      2  C   UNL     1       5.865   6.176  16.807  0.00  0.00    +0.000 A 
ATOM      3 CL   UNL     1       6.672   7.645  17.209  0.00  0.00    +0.000 Cl
ATOM      4  N   UNL     1       6.549   5.481  15.872  0.00  0.00    +0.000 NA
ATOM      5  C   UNL     1       5.977   4.369  15.432  0.00  0.00    +0.000 A 
ATOM      6  N   UNL     1       6.595   3.678  14.414  0.00  0.00    +0.000 N 
ATOM      7  N   UNL     1       4.837   3.870  15.903  0.00  0.00    +0.000 NA
ATOM      8  C   UNL     1       4.182   4.575  16.838  0.00  0.00    +0.000 A 
ATOM      9  H   UNL     1       7.581   3.886  14.368  0.00  0.00    +0.000 HD
ATOM     10  H   UNL     1       6.316   2.706  14.408  0.00  0.00    +0.000 HD
ENDROOT
BRANCH   1  12
ATOM     11  C   UNL     1       2.778   7.555  17.924  0.00  0.00    +0.000 C 
ATOM     12  C   UNL     1       3.738   6.644  18.191  0.00  0.00    +0.000 C 
BRANCH  11  16
ATOM     13  C   UNL     1       0.489   9.589  21.036  0.00  0.00    +0.000 A 
ATOM     14  C   UNL     1       0.608  10.137  19.761  0.00  0.00    +0.000 A 
ATOM     15  C   UNL     1       1.327   9.475  18.757  0.00  0.00    +0.000 A 
ATOM     16  C   UNL     1       1.977   8.254  18.980  0.00  0.00    +0.000 A 
ATOM     17  C   UNL     1       1.847   7.709  20.271  0.00  0.00    +0.000 A 
ATOM     18  C   UNL     1       1.108   8.372  21.286  0.00  0.00    +0.000 A 
BRANCH  13  20
ATOM     19  C   UNL     1      -0.501   9.844  23.190  0.00  0.00    +0.000 C 
ATOM     20  O   UNL     1      -0.210  10.371  21.908  0.00  0.00    +0.000 OA
ENDBRANCH  13  20
ENDBRANCH  11  16
ENDBRANCH   1  12
BRANCH   8  21
ATOM     21  N   UNL     1       2.966   4.075  17.304  0.00  0.00    +0.000 N 
ATOM     22  H   UNL     1       2.658   4.673  18.072  0.00  0.00    +0.000 HD
BRANCH  21  23
ATOM     23  C   UNL     1       2.675   2.659  17.582  0.00  0.00    +0.000 C 
ATOM     24  C   UNL     1       1.652   2.391  18.699  0.00  0.00    +0.000 C 
ATOM     25  C   UNL     1       2.405   2.556  20.038  0.00  0.00    +0.000 C 
ATOM     26  C   UNL     1       3.873   2.773  19.635  0.00  0.00    +0.000 C 
ATOM     27  C   UNL     1       3.958   2.106  18.246  0.00  0.00    +0.000 C 
BRANCH  26  28
ATOM     28  O   UNL     1       4.759   2.141  20.549  0.00  0.00    +0.000 OA
ATOM     29  H   UNL     1       4.927   2.765  21.280  0.00  0.00    +0.000 HD
ENDBRANCH  26  28
BRANCH  27  30
ATOM     30  O   UNL     1       3.947   0.679  18.351  0.00  0.00    +0.000 OA
ATOM     31  H   UNL     1       4.844   0.355  18.135  0.00  0.00    +0.000 HD
ENDBRANCH  27  30
BRANCH  25  32
ATOM     32  C   UNL     1       1.776   3.659  20.881  0.00  0.00    +0.000 C 
BRANCH  32  33
ATOM     33  O   UNL     1       0.461   3.929  20.391  0.00  0.00    +0.000 OA
ATOM     34  H   UNL     1       0.423   3.657  19.458  0.00  0.00    +0.000 HD
ENDBRANCH  32  33
ENDBRANCH  25  32
ENDBRANCH  21  23
ENDBRANCH   8  21
TORSDOF 9
ENDMDL
MODEL 4
REMARK VINA RESULT:      -8.6      3.201      4.662
REMARK  Name = 
REMARK  10 active torsions:
REMARK  status: ('A' for Active; 'I' for Inactive)
REMARK    1  A    between atoms: C_1  and  O_2
REMARK    2  A    between atoms: O_2  and  C_3
REMARK    3  A    between atoms: C_6  and  C_7
REMARK    4  A    between atoms: C_8  and  C_9
REMARK    5  A    between atoms: C_16  and  N_17
REMARK    6  A    between atoms: N_17  and  C_18
REMARK    7  A    between atoms: C_20  and  C_21
REMARK    8  A    between atoms: C_21  and  O_22
REMARK    9  A    between atoms: C_23  and  O_24
REMARK   10  A    between atoms: C_25  and  O_26
REMARK                            x       y       z     vdW  Elec       q    Type
REMARK                         _______ _______ _______ _____ _____    ______ ____
ROOT
ATOM      1  C   UNL     1       2.645   4.199  18.351  0.00  0.00    +0.000 A 
ATOM      2  C   UNL     1       1.998   3.165  19.001  0.00  0.00    +0.000 A 
ATOM      3 CL   UNL     1       0.527   3.367  19.876  0.00  0.00    +0.000 Cl
ATOM      4  N   UNL     1       2.447   1.893  19.085  0.00  0.00    +0.000 NA
ATOM      5  C   UNL     1       3.616   1.645  18.511  0.00  0.00    +0.000 A 
ATOM      6  N   UNL     1       4.155   0.385  18.650  0.00  0.00    +0.000 N 
ATOM      7  N   UNL     1       4.314   2.532  17.807  0.00  0.00    +0.000 NA
ATOM      8  C   UNL     1       3.841   3.785  17.731  0.00  0.00    +0.000 A 
ATOM      9  H   UNL     1       3.446  -0.302  18.855  0.00  0.00    +0.000 HD
ATOM     10  H   UNL     1       4.811   0.182  17.908  0.00  0.00    +0.000 HD
ENDROOT
BRANCH   1  12
ATOM     11  C   UNL     1       2.316   6.569  19.427  0.00  0.00    +0.000 C 
ATOM     12  C   UNL     1       2.322   5.660  18.430  0.00  0.00    +0.000 C 
BRANCH  11  16
ATOM     13  C   UNL     1       1.276  10.765  18.816  0.00  0.00    +0.000 A 
ATOM     14  C   UNL     1       0.935  10.108  19.996  0.00  0.00    +0.000 A 
ATOM     15  C   UNL     1       1.285   8.766  20.200  0.00  0.00    +0.000 A 
ATOM     16  C   UNL     1       1.968   8.014  19.235  0.00  0.00    +0.000 A 
ATOM     17  C   UNL     1       2.309   8.690  18.049  0.00  0.00    +0.000 A 
ATOM     18  C   UNL     1       1.967  10.052  17.846  0.00  0.00    +0.000 A 
BRANCH  13  20
ATOM     19  C   UNL     1      -0.071  12.495  19.754  0.00  0.00    +0.000 C 
ATOM     20  O   UNL     1       0.833  12.054  18.757  0.00  0.00    +0.000 OA
ENDBRANCH  13  20
ENDBRANCH  11  16
ENDBRANCH   1  12
BRANCH   8  21
ATOM     21  N   UNL     1       4.593   4.728  17.029  0.00  0.00    +0.000 N 
ATOM     22  H   UNL     1       3.974   5.178  16.353  0.00  0.00    +0.000 HD
BRANCH  21  23
ATOM     23  C   UNL     1       5.929   4.499  16.456  0.00  0.00    +0.000 C 
ATOM     24  C   UNL     1       7.061   4.256  17.468  0.00  0.00    +0.000 C 
ATOM     25  C   UNL     1       7.473   5.642  18.013  0.00  0.00    +0.000 C 
ATOM     26  C   UNL     1       6.656   6.645  17.183  0.00  0.00    +0.000 C 
ATOM     27  C   UNL     1       6.363   5.868  15.883  0.00  0.00    +0.000 C 
BRANCH  26  28
ATOM     28  O   UNL     1       7.406   7.820  16.908  0.00  0.00    +0.000 OA
ATOM     29  H   UNL     1       7.388   8.379  17.707  0.00  0.00    +0.000 HD
ENDBRANCH  26  28
BRANCH  27  30
ATOM     30  O   UNL     1       7.530   5.771  15.059  0.00  0.00    +0.000 OA
ATOM     31  H   UNL     1       8.024   6.611  15.139  0.00  0.00    +0.000 HD
ENDBRANCH  27  30
BRANCH  25  32
ATOM     32  C   UNL     1       7.276   5.710  19.523  0.00  0.00    +0.000 C 
BRANCH  32  33
ATOM     33  O   UNL     1       8.497   5.345  20.171  0.00  0.00    +0.000 OA
ATOM     34  H   UNL     1       8.900   4.616  19.668  0.00  0.00    +0.000 HD
ENDBRANCH  32  33
ENDBRANCH  25  32
ENDBRANCH  21  23
ENDBRANCH   8  21
TORSDOF 9
ENDMDL
MODEL 5
REMARK VINA RESULT:      -8.5      3.080      4.921
REMARK  Name = 
REMARK  10 active torsions:
REMARK  status: ('A' for Active; 'I' for Inactive)
REMARK    1  A    between atoms: C_1  and  O_2
REMARK    2  A    between atoms: O_2  and  C_3
REMARK    3  A    between atoms: C_6  and  C_7
REMARK    4  A    between atoms: C_8  and  C_9
REMARK    5  A    between atoms: C_16  and  N_17
REMARK    6  A    between atoms: N_17  and  C_18
REMARK    7  A    between atoms: C_20  and  C_21
REMARK    8  A    between atoms: C_21  and  O_22
REMARK    9  A    between atoms: C_23  and  O_24
REMARK   10  A    between atoms: C_25  and  O_26
REMARK                            x       y       z     vdW  Elec       q    Type
REMARK                         _______ _______ _______ _____ _____    ______ ____
ROOT
ATOM      1  C   UNL     1       2.476   4.239  18.493  0.00  0.00    +0.000 A 
ATOM      2  C   UNL     1       1.990   3.236  19.311  0.00  0.00    +0.000 A 
ATOM      3 CL   UNL     1       0.723   3.475  20.455  0.00  0.00    +0.000 Cl
ATOM      4  N   UNL     1       2.467   1.973  19.364  0.00  0.00    +0.000 NA
ATOM      5  C   UNL     1       3.499   1.702  18.578  0.00  0.00    +0.000 A 
ATOM      6  N   UNL     1       4.076   0.454  18.667  0.00  0.00    +0.000 N 
ATOM      7  N   UNL     1       4.027   2.556  17.705  0.00  0.00    +0.000 NA
ATOM      8  C   UNL     1       3.529   3.801  17.665  0.00  0.00    +0.000 A 
ATOM      9  H   UNL     1       3.434  -0.226  19.046  0.00  0.00    +0.000 HD
ATOM     10  H   UNL     1       4.571   0.217  17.819  0.00  0.00    +0.000 HD
ENDROOT
BRANCH   1  12
ATOM     11  C   UNL     1       2.284   6.648  19.516  0.00  0.00    +0.000 C 
ATOM     12  C   UNL     1       2.153   5.700  18.564  0.00  0.00    +0.000 C 
BRANCH  11  16
ATOM     13  C   UNL     1       1.126  10.812  18.904  0.00  0.00    +0.000 A 
ATOM     14  C   UNL     1       0.836  10.157  20.098  0.00  0.00    +0.000 A 
ATOM     15  C   UNL     1       1.224   8.826  20.302  0.00  0.00    +0.000 A 
ATOM     16  C   UNL     1       1.896   8.081  19.323  0.00  0.00    +0.000 A 
ATOM     17  C   UNL     1       2.184   8.756  18.121  0.00  0.00    +0.000 A 
ATOM     18  C   UNL     1       1.803  10.107  17.919  0.00  0.00    +0.000 A 
BRANCH  13  20
ATOM     19  C   UNL     1       1.526  13.143  19.207  0.00  0.00    +0.000 C 
ATOM     20  O   UNL     1       0.650  12.089  18.847  0.00  0.00    +0.000 OA
ENDBRANCH  13  20
ENDBRANCH  11  16
ENDBRANCH   1  12
BRANCH   8  21
ATOM     21  N   UNL     1       4.108   4.710  16.780  0.00  0.00    +0.000 N 
ATOM     22  H   UNL     1       4.497   4.180  15.999  0.00  0.00    +0.000 HD
BRANCH  21  23
ATOM     23  C   UNL     1       4.993   5.824  17.159  0.00  0.00    +0.000 C 
ATOM     24  C   UNL     1       5.814   6.447  16.017  0.00  0.00    +0.000 C 
ATOM     25  C   UNL     1       7.014   5.507  15.771  0.00  0.00    +0.000 C 
ATOM     26  C   UNL     1       6.915   4.449  16.881  0.00  0.00    +0.000 C 
ATOM     27  C   UNL     1       6.125   5.177  17.989  0.00  0.00    +0.000 C 
BRANCH  26  28
ATOM     28  O   UNL     1       8.201   4.069  17.350  0.00  0.00    +0.000 OA
ATOM     29  H   UNL     1       8.214   4.193  18.318  0.00  0.00    +0.000 HD
ENDBRANCH  26  28
BRANCH  27  30
ATOM     30  O   UNL     1       6.937   6.149  18.656  0.00  0.00    +0.000 OA
ATOM     31  H   UNL     1       6.991   5.898  19.600  0.00  0.00    +0.000 HD
ENDBRANCH  27  30
BRANCH  25  32
ATOM     32  C   UNL     1       7.001   4.975  14.342  0.00  0.00    +0.000 C 
BRANCH  32  33
ATOM     33  O   UNL     1       8.048   5.605  13.600  0.00  0.00    +0.000 OA
ATOM     34  H   UNL     1       8.126   6.526  13.905  0.00  0.00    +0.000 HD
ENDBRANCH  32  33
ENDBRANCH  25  32
ENDBRANCH  21  23
ENDBRANCH   8  21
TORSDOF 9
ENDMDL
MODEL 6
REMARK VINA RESULT:      -8.4      1.246      1.504
REMARK  Name = 
REMARK  10 active torsions:
REMARK  status: ('A' for Active; 'I' for Inactive)
REMARK    1  A    between atoms: C_1  and  O_2
REMARK    2  A    between atoms: O_2  and  C_3
REMARK    3  A    between atoms: C_6  and  C_7
REMARK    4  A    between atoms: C_8  and  C_9
REMARK    5  A    between atoms: C_16  and  N_17
REMARK    6  A    between atoms: N_17  and  C_18
REMARK    7  A    between atoms: C_20  and  C_21
REMARK    8  A    between atoms: C_21  and  O_22
REMARK    9  A    between atoms: C_23  and  O_24
REMARK   10  A    between atoms: C_25  and  O_26
REMARK                            x       y       z     vdW  Elec       q    Type
REMARK                         _______ _______ _______ _____ _____    ______ ____
ROOT
ATOM      1  C   UNL     1       5.427   6.122  17.403  0.00  0.00    +0.000 A 
ATOM      2  C   UNL     1       6.579   6.738  16.950  0.00  0.00    +0.000 A 
ATOM      3 CL   UNL     1       7.077   8.309  17.456  0.00  0.00    +0.000 Cl
ATOM      4  N   UNL     1       7.425   6.229  16.028  0.00  0.00    +0.000 NA
ATOM      5  C   UNL     1       7.093   5.054  15.512  0.00  0.00    +0.000 A 
ATOM      6  N   UNL     1       7.877   4.541  14.502  0.00  0.00    +0.000 N 
ATOM      7  N   UNL     1       6.045   4.331  15.897  0.00  0.00    +0.000 NA
ATOM      8  C   UNL     1       5.226   4.854  16.821  0.00  0.00    +0.000 A 
ATOM      9  H   UNL     1       8.807   4.930  14.520  0.00  0.00    +0.000 HD
ATOM     10  H   UNL     1       7.785   3.536  14.441  0.00  0.00    +0.000 HD
ENDROOT
BRANCH   1  12
ATOM     11  C   UNL     1       3.228   7.446  17.946  0.00  0.00    +0.000 C 
ATOM     12  C   UNL     1       4.339   6.735  18.231  0.00  0.00    +0.000 C 
BRANCH  11  16
ATOM     13  C   UNL     1       0.377   8.877  20.927  0.00  0.00    +0.000 A 
ATOM     14  C   UNL     1       1.119   7.718  21.144  0.00  0.00    +0.000 A 
ATOM     15  C   UNL     1       2.047   7.268  20.195  0.00  0.00    +0.000 A 
ATOM     16  C   UNL     1       2.264   7.936  18.983  0.00  0.00    +0.000 A 
ATOM     17  C   UNL     1       1.510   9.107  18.777  0.00  0.00    +0.000 A 
ATOM     18  C   UNL     1       0.579   9.570  19.742  0.00  0.00    +0.000 A 
BRANCH  13  20
ATOM     19  C   UNL     1       0.012   9.487  23.203  0.00  0.00    +0.000 C 
ATOM     20  O   UNL     1      -0.507   9.159  21.926  0.00  0.00    +0.000 OA
ENDBRANCH  13  20
ENDBRANCH  11  16
ENDBRANCH   1  12
BRANCH   8  21
ATOM     21  N   UNL     1       4.103   4.116  17.197  0.00  0.00    +0.000 N 
ATOM     22  H   UNL     1       3.485   4.736  17.722  0.00  0.00    +0.000 HD
BRANCH  21  23
ATOM     23  C   UNL     1       4.127   2.766  17.785  0.00  0.00    +0.000 C 
ATOM     24  C   UNL     1       2.773   2.041  17.856  0.00  0.00    +0.000 C 
ATOM     25  C   UNL     1       2.024   2.619  19.077  0.00  0.00    +0.000 C 
ATOM     26  C   UNL     1       3.040   3.556  19.749  0.00  0.00    +0.000 C 
ATOM     27  C   UNL     1       4.399   2.986  19.291  0.00  0.00    +0.000 C 
BRANCH  26  28
ATOM     28  O   UNL     1       2.929   3.510  21.165  0.00  0.00    +0.000 OA
ATOM     29  H   UNL     1       3.169   4.390  21.511  0.00  0.00    +0.000 HD
ENDBRANCH  26  28
BRANCH  27  30
ATOM     30  O   UNL     1       4.711   1.767  19.974  0.00  0.00    +0.000 OA
ATOM     31  H   UNL     1       4.796   1.971  20.927  0.00  0.00    +0.000 HD
ENDBRANCH  27  30
BRANCH  25  32
ATOM     32  C   UNL     1       0.708   3.259  18.653  0.00  0.00    +0.000 C 
BRANCH  32  33
ATOM     33  O   UNL     1       0.922   4.025  17.465  0.00  0.00    +0.000 OA
ATOM     34  H   UNL     1       1.872   4.004  17.258  0.00  0.00    +0.000 HD
ENDBRANCH  32  33
ENDBRANCH  25  32
ENDBRANCH  21  23
ENDBRANCH   8  21
TORSDOF 9
ENDMDL
MODEL 7
REMARK VINA RESULT:      -8.3      3.224      4.801
REMARK  Name = 
REMARK  10 active torsions:
REMARK  status: ('A' for Active; 'I' for Inactive)
REMARK    1  A    between atoms: C_1  and  O_2
REMARK    2  A    between atoms: O_2  and  C_3
REMARK    3  A    between atoms: C_6  and  C_7
REMARK    4  A    between atoms: C_8  and  C_9
REMARK    5  A    between atoms: C_16  and  N_17
REMARK    6  A    between atoms: N_17  and  C_18
REMARK    7  A    between atoms: C_20  and  C_21
REMARK    8  A    between atoms: C_21  and  O_22
REMARK    9  A    between atoms: C_23  and  O_24
REMARK   10  A    between atoms: C_25  and  O_26
REMARK                            x       y       z     vdW  Elec       q    Type
REMARK                         _______ _______ _______ _____ _____    ______ ____
ROOT
ATOM      1  C   UNL     1       2.742   4.478  19.995  0.00  0.00    +0.000 A 
ATOM      2  C   UNL     1       2.481   3.343  20.739  0.00  0.00    +0.000 A 
ATOM      3 CL   UNL     1       1.085   3.161  21.733  0.00  0.00    +0.000 Cl
ATOM      4  N   UNL     1       3.292   2.267  20.833  0.00  0.00    +0.000 NA
ATOM      5  C   UNL     1       4.437   2.336  20.167  0.00  0.00    +0.000 A 
ATOM      6  N   UNL     1       5.335   1.301  20.307  0.00  0.00    +0.000 N 
ATOM      7  N   UNL     1       4.787   3.343  19.370  0.00  0.00    +0.000 NA
ATOM      8  C   UNL     1       3.959   4.395  19.288  0.00  0.00    +0.000 A 
ATOM      9  H   UNL     1       4.879   0.451  20.601  0.00  0.00    +0.000 HD
ATOM     10  H   UNL     1       5.965   1.252  19.518  0.00  0.00    +0.000 HD
ENDROOT
BRANCH   1  12
ATOM     11  C   UNL     1       2.226   6.963  20.662  0.00  0.00    +0.000 C 
ATOM     12  C   UNL     1       2.007   5.783  20.045  0.00  0.00    +0.000 C 
BRANCH  11  16
ATOM     13  C   UNL     1      -0.420  10.408  20.221  0.00  0.00    +0.000 A 
ATOM     14  C   UNL     1      -0.396   9.670  21.403  0.00  0.00    +0.000 A 
ATOM     15  C   UNL     1       0.467   8.575  21.551  0.00  0.00    +0.000 A 
ATOM     16  C   UNL     1       1.326   8.153  20.528  0.00  0.00    +0.000 A 
ATOM     17  C   UNL     1       1.293   8.908  19.340  0.00  0.00    +0.000 A 
ATOM     18  C   UNL     1       0.430  10.024  19.193  0.00  0.00    +0.000 A 
BRANCH  13  20
ATOM     19  C   UNL     1      -0.990  12.634  19.586  0.00  0.00    +0.000 C 
ATOM     20  O   UNL     1      -1.338  11.417  20.221  0.00  0.00    +0.000 OA
ENDBRANCH  13  20
ENDBRANCH  11  16
ENDBRANCH   1  12
BRANCH   8  21
ATOM     21  N   UNL     1       4.343   5.470  18.486  0.00  0.00    +0.000 N 
ATOM     22  H   UNL     1       3.755   6.267  18.733  0.00  0.00    +0.000 HD
BRANCH  21  23
ATOM     23  C   UNL     1       4.574   5.411  17.033  0.00  0.00    +0.000 C 
ATOM     24  C   UNL     1       5.706   4.477  16.571  0.00  0.00    +0.000 C 
ATOM     25  C   UNL     1       7.030   5.236  16.806  0.00  0.00    +0.000 C 
ATOM     26  C   UNL     1       6.599   6.639  17.263  0.00  0.00    +0.000 C 
ATOM     27  C   UNL     1       5.184   6.783  16.665  0.00  0.00    +0.000 C 
BRANCH  26  28
ATOM     28  O   UNL     1       7.466   7.640  16.747  0.00  0.00    +0.000 OA
ATOM     29  H   UNL     1       7.640   8.281  17.462  0.00  0.00    +0.000 HD
ENDBRANCH  26  28
BRANCH  27  30
ATOM     30  O   UNL     1       5.234   6.997  15.251  0.00  0.00    +0.000 OA
ATOM     31  H   UNL     1       4.953   6.170  14.812  0.00  0.00    +0.000 HD
ENDBRANCH  27  30
BRANCH  25  32
ATOM     32  C   UNL     1       7.930   4.470  17.768  0.00  0.00    +0.000 C 
BRANCH  32  33
ATOM     33  O   UNL     1       7.561   4.793  19.111  0.00  0.00    +0.000 OA
ATOM     34  H   UNL     1       7.908   5.678  19.316  0.00  0.00    +0.000 HD
ENDBRANCH  32  33
ENDBRANCH  25  32
ENDBRANCH  21  23
ENDBRANCH   8  21
TORSDOF 9
ENDMDL
MODEL 8
REMARK VINA RESULT:      -8.0      3.098      6.641
REMARK  Name = 
REMARK  10 active torsions:
REMARK  status: ('A' for Active; 'I' for Inactive)
REMARK    1  A    between atoms: C_1  and  O_2
REMARK    2  A    between atoms: O_2  and  C_3
REMARK    3  A    between atoms: C_6  and  C_7
REMARK    4  A    between atoms: C_8  and  C_9
REMARK    5  A    between atoms: C_16  and  N_17
REMARK    6  A    between atoms: N_17  and  C_18
REMARK    7  A    between atoms: C_20  and  C_21
REMARK    8  A    between atoms: C_21  and  O_22
REMARK    9  A    between atoms: C_23  and  O_24
REMARK   10  A    between atoms: C_25  and  O_26
REMARK                            x       y       z     vdW  Elec       q    Type
REMARK                         _______ _______ _______ _____ _____    ______ ____
ROOT
ATOM      1  C   UNL     1       2.205   7.587  19.158  0.00  0.00    +0.000 A 
ATOM      2  C   UNL     1       1.645   8.851  19.160  0.00  0.00    +0.000 A 
ATOM      3 CL   UNL     1       1.961  10.031  17.945  0.00  0.00    +0.000 Cl
ATOM      4  N   UNL     1       0.835   9.343  20.123  0.00  0.00    +0.000 NA
ATOM      5  C   UNL     1       0.590   8.542  21.150  0.00  0.00    +0.000 A 
ATOM      6  N   UNL     1      -0.155   9.036  22.198  0.00  0.00    +0.000 N 
ATOM      7  N   UNL     1       1.018   7.286  21.246  0.00  0.00    +0.000 NA
ATOM      8  C   UNL     1       1.813   6.817  20.272  0.00  0.00    +0.000 A 
ATOM      9  H   UNL     1      -0.732   9.812  21.911  0.00  0.00    +0.000 HD
ATOM     10  H   UNL     1      -0.593   8.289  22.721  0.00  0.00    +0.000 HD
ENDROOT
BRANCH   1  12
ATOM     11  C   UNL     1       3.762   5.852  17.953  0.00  0.00    +0.000 C 
ATOM     12  C   UNL     1       3.288   7.079  18.255  0.00  0.00    +0.000 C 
BRANCH  11  16
ATOM     13  C   UNL     1       6.948   5.144  15.053  0.00  0.00    +0.000 A 
ATOM     14  C   UNL     1       7.131   6.024  16.117  0.00  0.00    +0.000 A 
ATOM     15  C   UNL     1       6.114   6.238  17.058  0.00  0.00    +0.000 A 
ATOM     16  C   UNL     1       4.868   5.604  16.973  0.00  0.00    +0.000 A 
ATOM     17  C   UNL     1       4.696   4.716  15.895  0.00  0.00    +0.000 A 
ATOM     18  C   UNL     1       5.729   4.489  14.948  0.00  0.00    +0.000 A 
BRANCH  13  20
ATOM     19  C   UNL     1       7.765   5.121  12.813  0.00  0.00    +0.000 C 
ATOM     20  O   UNL     1       8.015   5.074  14.207  0.00  0.00    +0.000 OA
ENDBRANCH  13  20
ENDBRANCH  11  16
ENDBRANCH   1  12
BRANCH   8  21
ATOM     21  N   UNL     1       2.298   5.515  20.391  0.00  0.00    +0.000 N 
ATOM     22  H   UNL     1       2.841   5.308  19.551  0.00  0.00    +0.000 HD
BRANCH  21  23
ATOM     23  C   UNL     1       1.510   4.346  20.816  0.00  0.00    +0.000 C 
ATOM     24  C   UNL     1       2.308   3.189  21.440  0.00  0.00    +0.000 C 
ATOM     25  C   UNL     1       2.940   2.405  20.269  0.00  0.00    +0.000 C 
ATOM     26  C   UNL     1       2.360   3.059  19.004  0.00  0.00    +0.000 C 
ATOM     27  C   UNL     1       1.038   3.678  19.504  0.00  0.00    +0.000 C 
BRANCH  26  28
ATOM     28  O   UNL     1       2.112   2.095  17.990  0.00  0.00    +0.000 OA
ATOM     29  H   UNL     1       2.383   1.224  18.335  0.00  0.00    +0.000 HD
ENDBRANCH  26  28
BRANCH  27  30
ATOM     30  O   UNL     1       0.044   2.672  19.729  0.00  0.00    +0.000 OA
ATOM     31  H   UNL     1      -0.283   2.774  20.646  0.00  0.00    +0.000 HD
ENDBRANCH  27  30
BRANCH  25  32
ATOM     32  C   UNL     1       4.460   2.399  20.378  0.00  0.00    +0.000 C 
BRANCH  32  33
ATOM     33  O   UNL     1       5.021   2.756  19.113  0.00  0.00    +0.000 OA
ATOM     34  H   UNL     1       4.307   3.107  18.553  0.00  0.00    +0.000 HD
ENDBRANCH  32  33
ENDBRANCH  25  32
ENDBRANCH  21  23
ENDBRANCH   8  21
TORSDOF 9
ENDMDL
MODEL 9
REMARK VINA RESULT:      -8.0      1.381      2.151
REMARK  Name = 
REMARK  10 active torsions:
REMARK  status: ('A' for Active; 'I' for Inactive)
REMARK    1  A    between atoms: C_1  and  O_2
REMARK    2  A    between atoms: O_2  and  C_3
REMARK    3  A    between atoms: C_6  and  C_7
REMARK    4  A    between atoms: C_8  and  C_9
REMARK    5  A    between atoms: C_16  and  N_17
REMARK    6  A    between atoms: N_17  and  C_18
REMARK    7  A    between atoms: C_20  and  C_21
REMARK    8  A    between atoms: C_21  and  O_22
REMARK    9  A    between atoms: C_23  and  O_24
REMARK   10  A    between atoms: C_25  and  O_26
REMARK                            x       y       z     vdW  Elec       q    Type
REMARK                         _______ _______ _______ _____ _____    ______ ____
ROOT
ATOM      1  C   UNL     1       4.462   6.214  17.586  0.00  0.00    +0.000 A 
ATOM      2  C   UNL     1       5.764   6.312  17.132  0.00  0.00    +0.000 A 
ATOM      3 CL   UNL     1       6.746   7.711  17.356  0.00  0.00    +0.000 Cl
ATOM      4  N   UNL     1       6.414   5.368  16.416  0.00  0.00    +0.000 NA
ATOM      5  C   UNL     1       5.720   4.278  16.117  0.00  0.00    +0.000 A 
ATOM      6  N   UNL     1       6.312   3.330  15.312  0.00  0.00    +0.000 N 
ATOM      7  N   UNL     1       4.482   4.033  16.538  0.00  0.00    +0.000 NA
ATOM      8  C   UNL     1       3.863   4.982  17.255  0.00  0.00    +0.000 A 
ATOM      9  H   UNL     1       7.318   3.394  15.340  0.00  0.00    +0.000 HD
ATOM     10  H   UNL     1       5.891   2.420  15.446  0.00  0.00    +0.000 HD
ENDROOT
BRANCH   1  12
ATOM     11  C   UNL     1       2.686   8.144  17.663  0.00  0.00    +0.000 C 
ATOM     12  C   UNL     1       3.622   7.311  18.165  0.00  0.00    +0.000 C 
BRANCH  11  16
ATOM     13  C   UNL     1       0.525  11.134  19.997  0.00  0.00    +0.000 A 
ATOM     14  C   UNL     1       0.641   9.821  20.448  0.00  0.00    +0.000 A 
ATOM     15  C   UNL     1       1.351   8.866  19.708  0.00  0.00    +0.000 A 
ATOM     16  C   UNL     1       1.955   9.165  18.480  0.00  0.00    +0.000 A 
ATOM     17  C   UNL     1       1.832  10.496  18.037  0.00  0.00    +0.000 A 
ATOM     18  C   UNL     1       1.125  11.467  18.791  0.00  0.00    +0.000 A 
BRANCH  13  20
ATOM     19  C   UNL     1      -0.755  11.363  21.997  0.00  0.00    +0.000 C 
ATOM     20  O   UNL     1      -0.226  11.931  20.811  0.00  0.00    +0.000 OA
ENDBRANCH  13  20
ENDBRANCH  11  16
ENDBRANCH   1  12
BRANCH   8  21
ATOM     21  N   UNL     1       2.550   4.745  17.662  0.00  0.00    +0.000 N 
ATOM     22  H   UNL     1       1.941   5.360  17.120  0.00  0.00    +0.000 HD
BRANCH  21  23
ATOM     23  C   UNL     1       2.095   4.643  19.059  0.00  0.00    +0.000 C 
ATOM     24  C   UNL     1       3.109   4.053  20.054  0.00  0.00    +0.000 C 
ATOM     25  C   UNL     1       3.068   2.520  19.871  0.00  0.00    +0.000 C 
ATOM     26  C   UNL     1       1.924   2.276  18.875  0.00  0.00    +0.000 C 
ATOM     27  C   UNL     1       1.030   3.521  19.055  0.00  0.00    +0.000 C 
BRANCH  26  28
ATOM     28  O   UNL     1       1.205   1.092  19.191  0.00  0.00    +0.000 OA
ATOM     29  H   UNL     1       0.978   1.127  20.140  0.00  0.00    +0.000 HD
ENDBRANCH  26  28
BRANCH  27  30
ATOM     30  O   UNL     1       0.295   3.462  20.282  0.00  0.00    +0.000 OA
ATOM     31  H   UNL     1       0.276   4.362  20.664  0.00  0.00    +0.000 HD
ENDBRANCH  27  30
BRANCH  25  32
ATOM     32  C   UNL     1       4.436   1.988  19.459  0.00  0.00    +0.000 C 
BRANCH  32  33
ATOM     33  O   UNL     1       5.374   3.066  19.452  0.00  0.00    +0.000 OA
ATOM     34  H   UNL     1       6.025   2.897  18.749  0.00  0.00    +0.000 HD
ENDBRANCH  32  33
ENDBRANCH  25  32
ENDBRANCH  21  23
ENDBRANCH   8  21
TORSDOF 9
ENDMDL
