MODEL 1
REMARK VINA RESULT:      -6.9      0.000      0.000
REMARK  Name = 
REMARK  14 active torsions:
REMARK  status: ('A' for Active; 'I' for Inactive)
REMARK    1  A    between atoms: C_2  and  C_3
REMARK    2  A    between atoms: C_3  and  C_4
REMARK    3  A    between atoms: C_6  and  N_7
REMARK    4  A    between atoms: C_8  and  C_10
REMARK    5  A    between atoms: C_10  and  C_11
REMARK    6  A    between atoms: C_14  and  O_15
REMARK    7  A    between atoms: O_15  and  C_16
REMARK    8  A    between atoms: C_16  and  C_17
REMARK    9  A    between atoms: C_17  and  C_18
REMARK   10  A    between atoms: C_18  and  N_19
REMARK   11  A    between atoms: N_19  and  C_20
REMARK   12  A    between atoms: N_19  and  C_21
REMARK   13  A    between atoms: C_21  and  C_22
REMARK   14  A    between atoms: C_21  and  C_23
REMARK                            x       y       z     vdW  Elec       q    Type
REMARK                         _______ _______ _______ _____ _____    ______ ____
ROOT
ATOM      1  C   UNL     1       5.453   5.363  16.312  0.00  0.00    +0.000 A 
ATOM      2  C   UNL     1       4.386   4.632  16.885  0.00  0.00    +0.000 A 
ATOM      3  C   UNL     1       4.139   4.569  18.259  0.00  0.00    +0.000 A 
ATOM      4  C   UNL     1       4.972   5.287  19.111  0.00  0.00    +0.000 A 
ATOM      5  C   UNL     1       6.023   6.033  18.577  0.00  0.00    +0.000 A 
ATOM      6  C   UNL     1       6.252   6.113  17.188  0.00  0.00    +0.000 A 
ENDROOT
BRANCH   3   7
ATOM      7  N   UNL     1       3.060   3.836  18.806  0.00  0.00    +0.000 N 
ATOM      8  C   UNL     1       2.899   2.460  18.714  0.00  0.00    +0.000 C 
ATOM      9  O   UNL     1       3.723   1.673  18.259  0.00  0.00    +0.000 OA
ATOM     10  H   UNL     1       2.402   4.353  19.377  0.00  0.00    +0.000 HD
BRANCH   8  11
ATOM     11  C   UNL     1       1.566   1.983  19.251  0.00  0.00    +0.000 C 
ATOM     12  C   UNL     1       0.869   3.095  20.018  0.00  0.00    +0.000 C 
ENDBRANCH   8  11
ENDBRANCH   3   7
BRANCH   1  13
ATOM     13  C   UNL     1       5.478   5.275  14.791  0.00  0.00    +0.000 C 
BRANCH  13  15
ATOM     14  C   UNL     1       6.161   3.651  13.028  0.00  0.00    +0.000 C 
ATOM     15  C   UNL     1       6.467   4.370  14.120  0.00  0.00    +0.000 C 
ENDBRANCH  13  15
ENDBRANCH   1  13
BRANCH   6  16
ATOM     16  O   UNL     1       7.301   6.944  16.910  0.00  0.00    +0.000 OA
BRANCH  16  17
ATOM     17  C   UNL     1       7.981   7.517  18.009  0.00  0.00    +0.000 C 
BRANCH  17  18
ATOM     18  C   UNL     1       8.172   9.015  17.840  0.00  0.00    +0.000 C 
BRANCH  18  19
ATOM     19  C   UNL     1       8.979   9.503  19.055  0.00  0.00    +0.000 C 
BRANCH  19  20
ATOM     20  N   UNL     1       9.103  10.965  19.197  0.00  0.00    +0.000 NA
ATOM     21  C   UNL     1      10.136  11.275  20.198  0.00  0.00    +0.000 C 
BRANCH  20  22
ATOM     22  C   UNL     1       9.403  11.604  17.885  0.00  0.00    +0.000 C 
ATOM     23  C   UNL     1       8.522  12.838  17.601  0.00  0.00    +0.000 C 
ATOM     24  C   UNL     1      10.865  12.067  17.791  0.00  0.00    +0.000 C 
ENDBRANCH  20  22
ENDBRANCH  19  20
ENDBRANCH  18  19
ENDBRANCH  17  18
ENDBRANCH  16  17
ENDBRANCH   6  16
TORSDOF 10
ENDMDL
MODEL 2
REMARK VINA RESULT:      -6.8      0.691      1.320
REMARK  Name = 
REMARK  14 active torsions:
REMARK  status: ('A' for Active; 'I' for Inactive)
REMARK    1  A    between atoms: C_2  and  C_3
REMARK    2  A    between atoms: C_3  and  C_4
REMARK    3  A    between atoms: C_6  and  N_7
REMARK    4  A    between atoms: C_8  and  C_10
REMARK    5  A    between atoms: C_10  and  C_11
REMARK    6  A    between atoms: C_14  and  O_15
REMARK    7  A    between atoms: O_15  and  C_16
REMARK    8  A    between atoms: C_16  and  C_17
REMARK    9  A    between atoms: C_17  and  C_18
REMARK   10  A    between atoms: C_18  and  N_19
REMARK   11  A    between atoms: N_19  and  C_20
REMARK   12  A    between atoms: N_19  and  C_21
REMARK   13  A    between atoms: C_21  and  C_22
REMARK   14  A    between atoms: C_21  and  C_23
REMARK                            x       y       z     vdW  Elec       q    Type
REMARK                         _______ _______ _______ _____ _____    ______ ____
ROOT
ATOM      1  C   UNL     1       5.825   5.328  16.102  0.00  0.00    +0.000 A 
ATOM      2  C   UNL     1       4.697   4.617  16.575  0.00  0.00    +0.000 A 
ATOM      3  C   UNL     1       4.280   4.622  17.909  0.00  0.00    +0.000 A 
ATOM      4  C   UNL     1       4.997   5.391  18.819  0.00  0.00    +0.000 A 
ATOM      5  C   UNL     1       6.104   6.119  18.382  0.00  0.00    +0.000 A 
ATOM      6  C   UNL     1       6.506   6.130  17.031  0.00  0.00    +0.000 A 
ENDROOT
BRANCH   3   7
ATOM      7  N   UNL     1       3.144   3.907  18.354  0.00  0.00    +0.000 N 
ATOM      8  C   UNL     1       3.172   2.667  18.978  0.00  0.00    +0.000 C 
ATOM      9  O   UNL     1       4.181   2.073  19.342  0.00  0.00    +0.000 OA
ATOM     10  H   UNL     1       2.252   4.381  18.282  0.00  0.00    +0.000 HD
BRANCH   8  11
ATOM     11  C   UNL     1       1.792   2.080  19.188  0.00  0.00    +0.000 C 
ATOM     12  C   UNL     1       0.875   3.093  19.852  0.00  0.00    +0.000 C 
ENDBRANCH   8  11
ENDBRANCH   3   7
BRANCH   1  13
ATOM     13  C   UNL     1       6.041   5.162  14.603  0.00  0.00    +0.000 C 
BRANCH  13  15
ATOM     14  C   UNL     1       6.018   3.576  12.681  0.00  0.00    +0.000 C 
ATOM     15  C   UNL     1       6.058   3.787  14.007  0.00  0.00    +0.000 C 
ENDBRANCH  13  15
ENDBRANCH   1  13
BRANCH   6  16
ATOM     16  O   UNL     1       7.578   6.956  16.843  0.00  0.00    +0.000 OA
BRANCH  16  17
ATOM     17  C   UNL     1       8.065   7.652  17.973  0.00  0.00    +0.000 C 
BRANCH  17  18
ATOM     18  C   UNL     1       8.122   9.151  17.736  0.00  0.00    +0.000 C 
BRANCH  18  19
ATOM     19  C   UNL     1       8.851   9.768  18.941  0.00  0.00    +0.000 C 
BRANCH  19  20
ATOM     20  N   UNL     1       9.544  11.044  18.688  0.00  0.00    +0.000 NA
ATOM     21  C   UNL     1       8.769  11.842  17.725  0.00  0.00    +0.000 C 
BRANCH  20  22
ATOM     22  C   UNL     1       9.770  11.788  19.959  0.00  0.00    +0.000 C 
ATOM     23  C   UNL     1       9.297  11.009  21.203  0.00  0.00    +0.000 C 
ATOM     24  C   UNL     1      11.255  12.119  20.176  0.00  0.00    +0.000 C 
ENDBRANCH  20  22
ENDBRANCH  19  20
ENDBRANCH  18  19
ENDBRANCH  17  18
ENDBRANCH  16  17
ENDBRANCH   6  16
TORSDOF 10
ENDMDL
MODEL 3
REMARK VINA RESULT:      -6.8      1.083      1.596
REMARK  Name = 
REMARK  14 active torsions:
REMARK  status: ('A' for Active; 'I' for Inactive)
REMARK    1  A    between atoms: C_2  and  C_3
REMARK    2  A    between atoms: C_3  and  C_4
REMARK    3  A    between atoms: C_6  and  N_7
REMARK    4  A    between atoms: C_8  and  C_10
REMARK    5  A    between atoms: C_10  and  C_11
REMARK    6  A    between atoms: C_14  and  O_15
REMARK    7  A    between atoms: O_15  and  C_16
REMARK    8  A    between atoms: C_16  and  C_17
REMARK    9  A    between atoms: C_17  and  C_18
REMARK   10  A    between atoms: C_18  and  N_19
REMARK   11  A    between atoms: N_19  and  C_20
REMARK   12  A    between atoms: N_19  and  C_21
REMARK   13  A    between atoms: C_21  and  C_22
REMARK   14  A    between atoms: C_21  and  C_23
REMARK                            x       y       z     vdW  Elec       q    Type
REMARK                         _______ _______ _______ _____ _____    ______ ____
ROOT
ATOM      1  C   UNL     1       6.079   4.913  16.673  0.00  0.00    +0.000 A 
ATOM      2  C   UNL     1       5.071   4.059  17.180  0.00  0.00    +0.000 A 
ATOM      3  C   UNL     1       4.170   4.432  18.182  0.00  0.00    +0.000 A 
ATOM      4  C   UNL     1       4.250   5.723  18.692  0.00  0.00    +0.000 A 
ATOM      5  C   UNL     1       5.221   6.597  18.201  0.00  0.00    +0.000 A 
ATOM      6  C   UNL     1       6.110   6.225  17.173  0.00  0.00    +0.000 A 
ENDROOT
BRANCH   3   7
ATOM      7  N   UNL     1       3.167   3.560  18.665  0.00  0.00    +0.000 N 
ATOM      8  C   UNL     1       1.960   3.297  18.030  0.00  0.00    +0.000 C 
ATOM      9  O   UNL     1       1.644   3.682  16.909  0.00  0.00    +0.000 OA
ATOM     10  H   UNL     1       3.390   3.027  19.497  0.00  0.00    +0.000 HD
BRANCH   8  11
ATOM     11  C   UNL     1       1.023   2.453  18.868  0.00  0.00    +0.000 C 
ATOM     12  C   UNL     1       1.219   2.743  20.347  0.00  0.00    +0.000 C 
ENDBRANCH   8  11
ENDBRANCH   3   7
BRANCH   1  13
ATOM     13  C   UNL     1       6.908   4.261  15.575  0.00  0.00    +0.000 C 
BRANCH  13  15
ATOM     14  C   UNL     1       5.951   3.770  13.327  0.00  0.00    +0.000 C 
ATOM     15  C   UNL     1       6.628   4.596  14.141  0.00  0.00    +0.000 C 
ENDBRANCH  13  15
ENDBRANCH   1  13
BRANCH   6  16
ATOM     16  O   UNL     1       6.927   7.265  16.829  0.00  0.00    +0.000 OA
BRANCH  16  17
ATOM     17  C   UNL     1       7.790   7.768  17.829  0.00  0.00    +0.000 C 
BRANCH  17  18
ATOM     18  C   UNL     1       8.006   9.265  17.693  0.00  0.00    +0.000 C 
BRANCH  18  19
ATOM     19  C   UNL     1       8.997   9.677  18.794  0.00  0.00    +0.000 C 
BRANCH  19  20
ATOM     20  N   UNL     1       9.811  10.873  18.511  0.00  0.00    +0.000 NA
ATOM     21  C   UNL     1       8.929  11.993  18.148  0.00  0.00    +0.000 C 
BRANCH  20  22
ATOM     22  C   UNL     1      10.678  11.214  19.674  0.00  0.00    +0.000 C 
ATOM     23  C   UNL     1      12.064  11.745  19.255  0.00  0.00    +0.000 C 
ATOM     24  C   UNL     1      10.041  12.285  20.573  0.00  0.00    +0.000 C 
ENDBRANCH  20  22
ENDBRANCH  19  20
ENDBRANCH  18  19
ENDBRANCH  17  18
ENDBRANCH  16  17
ENDBRANCH   6  16
TORSDOF 10
ENDMDL
MODEL 4
REMARK VINA RESULT:      -6.7      3.432      7.668
REMARK  Name = 
REMARK  14 active torsions:
REMARK  status: ('A' for Active; 'I' for Inactive)
REMARK    1  A    between atoms: C_2  and  C_3
REMARK    2  A    between atoms: C_3  and  C_4
REMARK    3  A    between atoms: C_6  and  N_7
REMARK    4  A    between atoms: C_8  and  C_10
REMARK    5  A    between atoms: C_10  and  C_11
REMARK    6  A    between atoms: C_14  and  O_15
REMARK    7  A    between atoms: O_15  and  C_16
REMARK    8  A    between atoms: C_16  and  C_17
REMARK    9  A    between atoms: C_17  and  C_18
REMARK   10  A    between atoms: C_18  and  N_19
REMARK   11  A    between atoms: N_19  and  C_20
REMARK   12  A    between atoms: N_19  and  C_21
REMARK   13  A    between atoms: C_21  and  C_22
REMARK   14  A    between atoms: C_21  and  C_23
REMARK                            x       y       z     vdW  Elec       q    Type
REMARK                         _______ _______ _______ _____ _____    ______ ____
ROOT
ATOM      1  C   UNL     1       5.854   6.086  17.301  0.00  0.00    +0.000 A 
ATOM      2  C   UNL     1       6.199   5.541  16.042  0.00  0.00    +0.000 A 
ATOM      3  C   UNL     1       5.467   4.535  15.406  0.00  0.00    +0.000 A 
ATOM      4  C   UNL     1       4.319   4.060  16.032  0.00  0.00    +0.000 A 
ATOM      5  C   UNL     1       3.940   4.590  17.266  0.00  0.00    +0.000 A 
ATOM      6  C   UNL     1       4.668   5.621  17.892  0.00  0.00    +0.000 A 
ENDROOT
BRANCH   3   7
ATOM      7  N   UNL     1       5.830   4.012  14.143  0.00  0.00    +0.000 N 
ATOM      8  C   UNL     1       6.878   4.473  13.357  0.00  0.00    +0.000 C 
ATOM      9  O   UNL     1       7.709   5.309  13.694  0.00  0.00    +0.000 OA
ATOM     10  H   UNL     1       5.335   3.185  13.834  0.00  0.00    +0.000 HD
BRANCH   8  11
ATOM     11  C   UNL     1       6.918   3.828  11.988  0.00  0.00    +0.000 C 
ATOM     12  C   UNL     1       5.908   2.696  11.900  0.00  0.00    +0.000 C 
ENDBRANCH   8  11
ENDBRANCH   3   7
BRANCH   1  13
ATOM     13  C   UNL     1       6.812   7.181  17.753  0.00  0.00    +0.000 C 
BRANCH  13  15
ATOM     14  C   UNL     1       7.971   5.702  19.390  0.00  0.00    +0.000 C 
ATOM     15  C   UNL     1       7.944   6.838  18.674  0.00  0.00    +0.000 C 
ENDBRANCH  13  15
ENDBRANCH   1  13
BRANCH   6  16
ATOM     16  O   UNL     1       4.072   6.006  19.059  0.00  0.00    +0.000 OA
BRANCH  16  17
ATOM     17  C   UNL     1       2.662   6.115  19.061  0.00  0.00    +0.000 C 
BRANCH  17  18
ATOM     18  C   UNL     1       2.067   5.772  20.416  0.00  0.00    +0.000 C 
BRANCH  18  19
ATOM     19  C   UNL     1       1.402   4.393  20.277  0.00  0.00    +0.000 C 
BRANCH  19  20
ATOM     20  N   UNL     1       2.287   3.230  20.473  0.00  0.00    +0.000 NA
ATOM     21  C   UNL     1       2.240   2.809  21.882  0.00  0.00    +0.000 C 
BRANCH  20  22
ATOM     22  C   UNL     1       1.914   2.117  19.555  0.00  0.00    +0.000 C 
ATOM     23  C   UNL     1       0.779   2.495  18.583  0.00  0.00    +0.000 C 
ATOM     24  C   UNL     1       3.103   1.656  18.697  0.00  0.00    +0.000 C 
ENDBRANCH  20  22
ENDBRANCH  19  20
ENDBRANCH  18  19
ENDBRANCH  17  18
ENDBRANCH  16  17
ENDBRANCH   6  16
TORSDOF 10
ENDMDL
MODEL 5
REMARK VINA RESULT:      -6.7      1.657      8.061
REMARK  Name = 
REMARK  14 active torsions:
REMARK  status: ('A' for Active; 'I' for Inactive)
REMARK    1  A    between atoms: C_2  and  C_3
REMARK    2  A    between atoms: C_3  and  C_4
REMARK    3  A    between atoms: C_6  and  N_7
REMARK    4  A    between atoms: C_8  and  C_10
REMARK    5  A    between atoms: C_10  and  C_11
REMARK    6  A    between atoms: C_14  and  O_15
REMARK    7  A    between atoms: O_15  and  C_16
REMARK    8  A    between atoms: C_16  and  C_17
REMARK    9  A    between atoms: C_17  and  C_18
REMARK   10  A    between atoms: C_18  and  N_19
REMARK   11  A    between atoms: N_19  and  C_20
REMARK   12  A    between atoms: N_19  and  C_21
REMARK   13  A    between atoms: C_21  and  C_22
REMARK   14  A    between atoms: C_21  and  C_23
REMARK                            x       y       z     vdW  Elec       q    Type
REMARK                         _______ _______ _______ _____ _____    ______ ____
ROOT
ATOM      1  C   UNL     1       6.299   6.544  17.137  0.00  0.00    +0.000 A 
ATOM      2  C   UNL     1       6.935   7.804  17.040  0.00  0.00    +0.000 A 
ATOM      3  C   UNL     1       7.963   8.221  17.889  0.00  0.00    +0.000 A 
ATOM      4  C   UNL     1       8.406   7.340  18.869  0.00  0.00    +0.000 A 
ATOM      5  C   UNL     1       7.813   6.082  18.981  0.00  0.00    +0.000 A 
ATOM      6  C   UNL     1       6.793   5.656  18.106  0.00  0.00    +0.000 A 
ENDROOT
BRANCH   3   7
ATOM      7  N   UNL     1       8.587   9.484  17.764  0.00  0.00    +0.000 N 
ATOM      8  C   UNL     1       8.964  10.299  18.824  0.00  0.00    +0.000 C 
ATOM      9  O   UNL     1       8.926   9.992  20.010  0.00  0.00    +0.000 OA
ATOM     10  H   UNL     1       8.849   9.772  16.829  0.00  0.00    +0.000 HD
BRANCH   8  11
ATOM     11  C   UNL     1       9.456  11.660  18.377  0.00  0.00    +0.000 C 
ATOM     12  C   UNL     1      10.795  11.540  17.670  0.00  0.00    +0.000 C 
ENDBRANCH   8  11
ENDBRANCH   3   7
BRANCH   1  13
ATOM     13  C   UNL     1       5.225   6.341  16.076  0.00  0.00    +0.000 C 
BRANCH  13  15
ATOM     14  C   UNL     1       6.561   4.843  14.598  0.00  0.00    +0.000 C 
ATOM     15  C   UNL     1       5.369   5.226  15.084  0.00  0.00    +0.000 C 
ENDBRANCH  13  15
ENDBRANCH   1  13
BRANCH   6  16
ATOM     16  O   UNL     1       6.413   4.373  18.381  0.00  0.00    +0.000 OA
BRANCH  16  17
ATOM     17  C   UNL     1       5.217   4.195  19.114  0.00  0.00    +0.000 C 
BRANCH  17  18
ATOM     18  C   UNL     1       4.170   3.435  18.318  0.00  0.00    +0.000 C 
BRANCH  18  19
ATOM     19  C   UNL     1       2.861   4.233  18.424  0.00  0.00    +0.000 C 
BRANCH  19  20
ATOM     20  N   UNL     1       1.693   3.487  18.928  0.00  0.00    +0.000 NA
ATOM     21  C   UNL     1       2.039   2.063  19.057  0.00  0.00    +0.000 C 
BRANCH  20  22
ATOM     22  C   UNL     1       1.218   4.055  20.221  0.00  0.00    +0.000 C 
ATOM     23  C   UNL     1       1.608   3.190  21.437  0.00  0.00    +0.000 C 
ATOM     24  C   UNL     1       1.782   5.462  20.474  0.00  0.00    +0.000 C 
ENDBRANCH  20  22
ENDBRANCH  19  20
ENDBRANCH  18  19
ENDBRANCH  17  18
ENDBRANCH  16  17
ENDBRANCH   6  16
TORSDOF 10
ENDMDL
MODEL 6
REMARK VINA RESULT:      -6.6      1.245      1.354
REMARK  Name = 
REMARK  14 active torsions:
REMARK  status: ('A' for Active; 'I' for Inactive)
REMARK    1  A    between atoms: C_2  and  C_3
REMARK    2  A    between atoms: C_3  and  C_4
REMARK    3  A    between atoms: C_6  and  N_7
REMARK    4  A    between atoms: C_8  and  C_10
REMARK    5  A    between atoms: C_10  and  C_11
REMARK    6  A    between atoms: C_14  and  O_15
REMARK    7  A    between atoms: O_15  and  C_16
REMARK    8  A    between atoms: C_16  and  C_17
REMARK    9  A    between atoms: C_17  and  C_18
REMARK   10  A    between atoms: C_18  and  N_19
REMARK   11  A    between atoms: N_19  and  C_20
REMARK   12  A    between atoms: N_19  and  C_21
REMARK   13  A    between atoms: C_21  and  C_22
REMARK   14  A    between atoms: C_21  and  C_23
REMARK                            x       y       z     vdW  Elec       q    Type
REMARK                         _______ _______ _______ _____ _____    ______ ____
ROOT
ATOM      1  C   UNL     1       6.739   5.071  16.078  0.00  0.00    +0.000 A 
ATOM      2  C   UNL     1       5.817   4.065  16.453  0.00  0.00    +0.000 A 
ATOM      3  C   UNL     1       5.207   4.002  17.708  0.00  0.00    +0.000 A 
ATOM      4  C   UNL     1       5.500   4.997  18.634  0.00  0.00    +0.000 A 
ATOM      5  C   UNL     1       6.391   6.015  18.289  0.00  0.00    +0.000 A 
ATOM      6  C   UNL     1       6.984   6.088  17.013  0.00  0.00    +0.000 A 
ENDROOT
BRANCH   3   7
ATOM      7  N   UNL     1       4.283   2.988  18.055  0.00  0.00    +0.000 N 
ATOM      8  C   UNL     1       2.901   3.106  17.985  0.00  0.00    +0.000 C 
ATOM      9  O   UNL     1       2.288   4.052  17.501  0.00  0.00    +0.000 OA
ATOM     10  H   UNL     1       4.669   2.083  18.292  0.00  0.00    +0.000 HD
BRANCH   8  11
ATOM     11  C   UNL     1       2.175   1.917  18.578  0.00  0.00    +0.000 C 
ATOM     12  C   UNL     1       0.735   2.277  18.903  0.00  0.00    +0.000 C 
ENDBRANCH   8  11
ENDBRANCH   3   7
BRANCH   1  13
ATOM     13  C   UNL     1       7.236   4.911  14.647  0.00  0.00    +0.000 C 
BRANCH  13  15
ATOM     14  C   UNL     1       6.141   3.559  12.863  0.00  0.00    +0.000 C 
ATOM     15  C   UNL     1       6.246   4.715  13.538  0.00  0.00    +0.000 C 
ENDBRANCH  13  15
ENDBRANCH   1  13
BRANCH   6  16
ATOM     16  O   UNL     1       7.773   7.198  16.901  0.00  0.00    +0.000 OA
BRANCH  16  17
ATOM     17  C   UNL     1       7.589   8.222  17.857  0.00  0.00    +0.000 C 
BRANCH  17  18
ATOM     18  C   UNL     1       8.577   9.361  17.669  0.00  0.00    +0.000 C 
BRANCH  18  19
ATOM     19  C   UNL     1       9.137   9.702  19.059  0.00  0.00    +0.000 C 
BRANCH  19  20
ATOM     20  N   UNL     1       9.547  11.105  19.259  0.00  0.00    +0.000 NA
ATOM     21  C   UNL     1       9.482  11.435  20.692  0.00  0.00    +0.000 C 
BRANCH  20  22
ATOM     22  C   UNL     1      10.908  11.344  18.703  0.00  0.00    +0.000 C 
ATOM     23  C   UNL     1      10.909  12.334  17.521  0.00  0.00    +0.000 C 
ATOM     24  C   UNL     1      11.870  11.910  19.760  0.00  0.00    +0.000 C 
ENDBRANCH  20  22
ENDBRANCH  19  20
ENDBRANCH  18  19
ENDBRANCH  17  18
ENDBRANCH  16  17
ENDBRANCH   6  16
TORSDOF 10
ENDMDL
MODEL 7
REMARK VINA RESULT:      -6.6      1.184      1.700
REMARK  Name = 
REMARK  14 active torsions:
REMARK  status: ('A' for Active; 'I' for Inactive)
REMARK    1  A    between atoms: C_2  and  C_3
REMARK    2  A    between atoms: C_3  and  C_4
REMARK    3  A    between atoms: C_6  and  N_7
REMARK    4  A    between atoms: C_8  and  C_10
REMARK    5  A    between atoms: C_10  and  C_11
REMARK    6  A    between atoms: C_14  and  O_15
REMARK    7  A    between atoms: O_15  and  C_16
REMARK    8  A    between atoms: C_16  and  C_17
REMARK    9  A    between atoms: C_17  and  C_18
REMARK   10  A    between atoms: C_18  and  N_19
REMARK   11  A    between atoms: N_19  and  C_20
REMARK   12  A    between atoms: N_19  and  C_21
REMARK   13  A    between atoms: C_21  and  C_22
REMARK   14  A    between atoms: C_21  and  C_23
REMARK                            x       y       z     vdW  Elec       q    Type
REMARK                         _______ _______ _______ _____ _____    ______ ____
ROOT
ATOM      1  C   UNL     1       6.462   5.147  16.248  0.00  0.00    +0.000 A 
ATOM      2  C   UNL     1       5.511   4.248  16.786  0.00  0.00    +0.000 A 
ATOM      3  C   UNL     1       5.150   4.216  18.136  0.00  0.00    +0.000 A 
ATOM      4  C   UNL     1       5.738   5.137  18.996  0.00  0.00    +0.000 A 
ATOM      5  C   UNL     1       6.667   6.050  18.495  0.00  0.00    +0.000 A 
ATOM      6  C   UNL     1       7.009   6.094  17.129  0.00  0.00    +0.000 A 
ENDROOT
BRANCH   3   7
ATOM      7  N   UNL     1       4.190   3.311  18.645  0.00  0.00    +0.000 N 
ATOM      8  C   UNL     1       2.901   3.647  19.035  0.00  0.00    +0.000 C 
ATOM      9  O   UNL     1       2.370   4.742  18.882  0.00  0.00    +0.000 OA
ATOM     10  H   UNL     1       4.444   2.331  18.644  0.00  0.00    +0.000 HD
BRANCH   8  11
ATOM     11  C   UNL     1       2.164   2.499  19.693  0.00  0.00    +0.000 C 
ATOM     12  C   UNL     1       1.044   3.020  20.578  0.00  0.00    +0.000 C 
ENDBRANCH   8  11
ENDBRANCH   3   7
BRANCH   1  13
ATOM     13  C   UNL     1       6.651   4.978  14.747  0.00  0.00    +0.000 C 
BRANCH  13  15
ATOM     14  C   UNL     1       6.217   3.532  12.764  0.00  0.00    +0.000 C 
ATOM     15  C   UNL     1       5.931   3.876  14.031  0.00  0.00    +0.000 C 
ENDBRANCH  13  15
ENDBRANCH   1  13
BRANCH   6  16
ATOM     16  O   UNL     1       7.894   7.104  16.876  0.00  0.00    +0.000 OA
BRANCH  16  17
ATOM     17  C   UNL     1       7.662   8.343  17.515  0.00  0.00    +0.000 C 
BRANCH  17  18
ATOM     18  C   UNL     1       8.746   8.672  18.528  0.00  0.00    +0.000 C 
BRANCH  18  19
ATOM     19  C   UNL     1       8.757  10.201  18.691  0.00  0.00    +0.000 C 
BRANCH  19  20
ATOM     20  N   UNL     1      10.089  10.829  18.766  0.00  0.00    +0.000 NA
ATOM     21  C   UNL     1      10.179  11.910  17.773  0.00  0.00    +0.000 C 
BRANCH  20  22
ATOM     22  C   UNL     1      10.366  11.325  20.143  0.00  0.00    +0.000 C 
ATOM     23  C   UNL     1      11.022  12.720  20.159  0.00  0.00    +0.000 C 
ATOM     24  C   UNL     1       9.086  11.423  20.988  0.00  0.00    +0.000 C 
ENDBRANCH  20  22
ENDBRANCH  19  20
ENDBRANCH  18  19
ENDBRANCH  17  18
ENDBRANCH  16  17
ENDBRANCH   6  16
TORSDOF 10
ENDMDL
MODEL 8
REMARK VINA RESULT:      -6.6      3.014      7.639
REMARK  Name = 
REMARK  14 active torsions:
REMARK  status: ('A' for Active; 'I' for Inactive)
REMARK    1  A    between atoms: C_2  and  C_3
REMARK    2  A    between atoms: C_3  and  C_4
REMARK    3  A    between atoms: C_6  and  N_7
REMARK    4  A    between atoms: C_8  and  C_10
REMARK    5  A    between atoms: C_10  and  C_11
REMARK    6  A    between atoms: C_14  and  O_15
REMARK    7  A    between atoms: O_15  and  C_16
REMARK    8  A    between atoms: C_16  and  C_17
REMARK    9  A    between atoms: C_17  and  C_18
REMARK   10  A    between atoms: C_18  and  N_19
REMARK   11  A    between atoms: N_19  and  C_20
REMARK   12  A    between atoms: N_19  and  C_21
REMARK   13  A    between atoms: C_21  and  C_22
REMARK   14  A    between atoms: C_21  and  C_23
REMARK                            x       y       z     vdW  Elec       q    Type
REMARK                         _______ _______ _______ _____ _____    ______ ____
ROOT
ATOM      1  C   UNL     1       6.628   5.721  16.408  0.00  0.00    +0.000 A 
ATOM      2  C   UNL     1       6.966   5.157  15.155  0.00  0.00    +0.000 A 
ATOM      3  C   UNL     1       6.392   3.987  14.650  0.00  0.00    +0.000 A 
ATOM      4  C   UNL     1       5.414   3.353  15.409  0.00  0.00    +0.000 A 
ATOM      5  C   UNL     1       5.044   3.893  16.641  0.00  0.00    +0.000 A 
ATOM      6  C   UNL     1       5.607   5.087  17.134  0.00  0.00    +0.000 A 
ENDROOT
BRANCH   3   7
ATOM      7  N   UNL     1       6.744   3.449  13.390  0.00  0.00    +0.000 N 
ATOM      8  C   UNL     1       5.860   3.209  12.347  0.00  0.00    +0.000 C 
ATOM      9  O   UNL     1       4.680   3.540  12.320  0.00  0.00    +0.000 OA
ATOM     10  H   UNL     1       7.732   3.309  13.216  0.00  0.00    +0.000 HD
BRANCH   8  11
ATOM     11  C   UNL     1       6.500   2.476  11.186  0.00  0.00    +0.000 C 
ATOM     12  C   UNL     1       6.171   0.994  11.243  0.00  0.00    +0.000 C 
ENDBRANCH   8  11
ENDBRANCH   3   7
BRANCH   1  13
ATOM     13  C   UNL     1       7.390   7.006  16.702  0.00  0.00    +0.000 C 
BRANCH  13  15
ATOM     14  C   UNL     1       8.435   8.451  18.442  0.00  0.00    +0.000 C 
ATOM     15  C   UNL     1       7.807   7.312  18.109  0.00  0.00    +0.000 C 
ENDBRANCH  13  15
ENDBRANCH   1  13
BRANCH   6  16
ATOM     16  O   UNL     1       5.046   5.439  18.329  0.00  0.00    +0.000 OA
BRANCH  16  17
ATOM     17  C   UNL     1       3.868   6.219  18.287  0.00  0.00    +0.000 C 
BRANCH  17  18
ATOM     18  C   UNL     1       2.638   5.411  18.664  0.00  0.00    +0.000 C 
BRANCH  18  19
ATOM     19  C   UNL     1       3.069   4.423  19.760  0.00  0.00    +0.000 C 
BRANCH  19  20
ATOM     20  N   UNL     1       3.041   2.997  19.386  0.00  0.00    +0.000 NA
ATOM     21  C   UNL     1       4.259   2.335  19.878  0.00  0.00    +0.000 C 
BRANCH  20  22
ATOM     22  C   UNL     1       1.810   2.336  19.905  0.00  0.00    +0.000 C 
ATOM     23  C   UNL     1       1.281   2.983  21.200  0.00  0.00    +0.000 C 
ATOM     24  C   UNL     1       0.662   2.375  18.884  0.00  0.00    +0.000 C 
ENDBRANCH  20  22
ENDBRANCH  19  20
ENDBRANCH  18  19
ENDBRANCH  17  18
ENDBRANCH  16  17
ENDBRANCH   6  16
TORSDOF 10
ENDMDL
MODEL 9
REMARK VINA RESULT:      -6.5      2.976      6.993
REMARK  Name = 
REMARK  14 active torsions:
REMARK  status: ('A' for Active; 'I' for Inactive)
REMARK    1  A    between atoms: C_2  and  C_3
REMARK    2  A    between atoms: C_3  and  C_4
REMARK    3  A    between atoms: C_6  and  N_7
REMARK    4  A    between atoms: C_8  and  C_10
REMARK    5  A    between atoms: C_10  and  C_11
REMARK    6  A    between atoms: C_14  and  O_15
REMARK    7  A    between atoms: O_15  and  C_16
REMARK    8  A    between atoms: C_16  and  C_17
REMARK    9  A    between atoms: C_17  and  C_18
REMARK   10  A    between atoms: C_18  and  N_19
REMARK   11  A    between atoms: N_19  and  C_20
REMARK   12  A    between atoms: N_19  and  C_21
REMARK   13  A    between atoms: C_21  and  C_22
REMARK   14  A    between atoms: C_21  and  C_23
REMARK                            x       y       z     vdW  Elec       q    Type
REMARK                         _______ _______ _______ _____ _____    ______ ____
ROOT
ATOM      1  C   UNL     1       6.458   5.422  17.822  0.00  0.00    +0.000 A 
ATOM      2  C   UNL     1       5.630   4.905  18.846  0.00  0.00    +0.000 A 
ATOM      3  C   UNL     1       4.334   4.429  18.629  0.00  0.00    +0.000 A 
ATOM      4  C   UNL     1       3.838   4.438  17.330  0.00  0.00    +0.000 A 
ATOM      5  C   UNL     1       4.636   4.924  16.294  0.00  0.00    +0.000 A 
ATOM      6  C   UNL     1       5.951   5.380  16.513  0.00  0.00    +0.000 A 
ENDROOT
BRANCH   3   7
ATOM      7  N   UNL     1       3.531   3.910  19.671  0.00  0.00    +0.000 N 
ATOM      8  C   UNL     1       3.779   2.733  20.364  0.00  0.00    +0.000 C 
ATOM      9  O   UNL     1       4.788   2.042  20.261  0.00  0.00    +0.000 OA
ATOM     10  H   UNL     1       2.762   4.491  19.984  0.00  0.00    +0.000 HD
BRANCH   8  11
ATOM     11  C   UNL     1       2.657   2.353  21.307  0.00  0.00    +0.000 C 
ATOM     12  C   UNL     1       1.827   3.574  21.670  0.00  0.00    +0.000 C 
ENDBRANCH   8  11
ENDBRANCH   3   7
BRANCH   1  13
ATOM     13  C   UNL     1       7.827   5.854  18.331  0.00  0.00    +0.000 C 
BRANCH  13  15
ATOM     14  C   UNL     1       7.602   8.230  17.614  0.00  0.00    +0.000 C 
ATOM     15  C   UNL     1       8.153   7.314  18.427  0.00  0.00    +0.000 C 
ENDBRANCH  13  15
ENDBRANCH   1  13
BRANCH   6  16
ATOM     16  O   UNL     1       6.544   5.754  15.340  0.00  0.00    +0.000 OA
BRANCH  16  17
ATOM     17  C   UNL     1       7.129   4.734  14.557  0.00  0.00    +0.000 C 
BRANCH  17  18
ATOM     18  C   UNL     1       6.107   3.700  14.115  0.00  0.00    +0.000 C 
BRANCH  18  19
ATOM     19  C   UNL     1       6.171   3.635  12.580  0.00  0.00    +0.000 C 
BRANCH  19  20
ATOM     20  N   UNL     1       5.365   2.575  11.948  0.00  0.00    +0.000 NA
ATOM     21  C   UNL     1       4.206   3.177  11.270  0.00  0.00    +0.000 C 
BRANCH  20  22
ATOM     22  C   UNL     1       6.192   1.768  11.007  0.00  0.00    +0.000 C 
ATOM     23  C   UNL     1       7.688   2.138  11.052  0.00  0.00    +0.000 C 
ATOM     24  C   UNL     1       6.095   0.262  11.302  0.00  0.00    +0.000 C 
ENDBRANCH  20  22
ENDBRANCH  19  20
ENDBRANCH  18  19
ENDBRANCH  17  18
ENDBRANCH  16  17
ENDBRANCH   6  16
TORSDOF 10
ENDMDL
