MODEL 1
REMARK VINA RESULT:      -8.1      0.000      0.000
REMARK  Name = 
REMARK  7 active torsions:
REMARK  status: ('A' for Active; 'I' for Inactive)
REMARK    1  A    between atoms: C_1  and  O_2
REMARK    2  A    between atoms: O_2  and  C_3
REMARK    3  A    between atoms: C_8  and  C_9
REMARK    4  A    between atoms: N_11  and  C_12
REMARK    5  A    between atoms: C_19  and  C_20
REMARK    6  A    between atoms: C_20  and  N_21
REMARK    7  A    between atoms: N_28  and  C_29
REMARK                            x       y       z     vdW  Elec       q    Type
REMARK                         _______ _______ _______ _____ _____    ______ ____
ROOT
ATOM      1  C   UNL     1       2.501   7.349  18.974  0.00  0.00    +0.000 A 
ATOM      2  C   UNL     1       2.063   6.720  20.147  0.00  0.00    +0.000 A 
ATOM      3  C   UNL     1       1.239   7.371  21.081  0.00  0.00    +0.000 A 
ATOM      4  C   UNL     1       0.901   8.692  20.792  0.00  0.00    +0.000 A 
ATOM      5  C   UNL     1       1.202   9.275  19.566  0.00  0.00    +0.000 A 
ATOM      6  C   UNL     1       1.969   8.587  18.618  0.00  0.00    +0.000 A 
ATOM      7  N   UNL     1       0.766  10.563  19.510  0.00  0.00    +0.000 NA
ATOM      8  C   UNL     1       0.408  10.854  20.746  0.00  0.00    +0.000 A 
ATOM      9  N   UNL     1       0.349   9.719  21.526  0.00  0.00    +0.000 N 
ATOM     10  C   UNL     1       0.020   9.679  22.932  0.00  0.00    +0.000 C 
ENDROOT
BRANCH   1  13
ATOM     11  C   UNL     1       3.610   5.545  17.673  0.00  0.00    +0.000 C 
ATOM     12  O   UNL     1       2.716   4.706  17.799  0.00  0.00    +0.000 OA
ATOM     13  N   UNL     1       3.538   6.841  18.153  0.00  0.00    +0.000 N 
ATOM     14  H   UNL     1       4.400   7.383  18.103  0.00  0.00    +0.000 HD
BRANCH  11  20
ATOM     15  C   UNL     1       6.164   5.115  17.554  0.00  0.00    +0.000 A 
ATOM     16  C   UNL     1       7.250   4.658  16.782  0.00  0.00    +0.000 A 
ATOM     17  C   UNL     1       7.074   4.265  15.454  0.00  0.00    +0.000 A 
ATOM     18  C   UNL     1       5.808   4.277  14.890  0.00  0.00    +0.000 A 
ATOM     19  C   UNL     1       4.719   4.675  15.661  0.00  0.00    +0.000 A 
ATOM     20  C   UNL     1       4.874   5.104  16.996  0.00  0.00    +0.000 A 
BRANCH  15  22
ATOM     21  C   UNL     1       7.687   5.800  19.227  0.00  0.00    +0.000 C 
ATOM     22  O   UNL     1       6.330   5.552  18.846  0.00  0.00    +0.000 OA
ENDBRANCH  15  22
ENDBRANCH  11  20
ENDBRANCH   1  13
BRANCH   8  23
ATOM     23  C   UNL     1       0.290  12.266  21.239  0.00  0.00    +0.000 C 
BRANCH  23  24
ATOM     24  N   UNL     1      -1.111  12.747  21.422  0.00  0.00    +0.000 NA
ATOM     25  C   UNL     1      -2.067  12.048  20.544  0.00  0.00    +0.000 C 
ATOM     26  C   UNL     1      -3.342  12.867  20.293  0.00  0.00    +0.000 C 
ATOM     27  C   UNL     1      -4.396  12.796  21.387  0.00  0.00    +0.000 C 
ATOM     28  C   UNL     1      -3.916  13.261  22.754  0.00  0.00    +0.000 C 
ATOM     29  C   UNL     1      -2.848  12.348  23.327  0.00  0.00    +0.000 C 
ATOM     30  C   UNL     1      -1.421  12.655  22.860  0.00  0.00    +0.000 C 
ENDBRANCH  23  24
ENDBRANCH   8  23
TORSDOF 5
ENDMDL
MODEL 2
REMARK VINA RESULT:      -7.8      0.903      1.335
REMARK  Name = 
REMARK  7 active torsions:
REMARK  status: ('A' for Active; 'I' for Inactive)
REMARK    1  A    between atoms: C_1  and  O_2
REMARK    2  A    between atoms: O_2  and  C_3
REMARK    3  A    between atoms: C_8  and  C_9
REMARK    4  A    between atoms: N_11  and  C_12
REMARK    5  A    between atoms: C_19  and  C_20
REMARK    6  A    between atoms: C_20  and  N_21
REMARK    7  A    between atoms: N_28  and  C_29
REMARK                            x       y       z     vdW  Elec       q    Type
REMARK                         _______ _______ _______ _____ _____    ______ ____
ROOT
ATOM      1  C   UNL     1       2.573   7.395  18.800  0.00  0.00    +0.000 A 
ATOM      2  C   UNL     1       2.278   6.727  19.997  0.00  0.00    +0.000 A 
ATOM      3  C   UNL     1       1.479   7.303  20.997  0.00  0.00    +0.000 A 
ATOM      4  C   UNL     1       1.012   8.593  20.749  0.00  0.00    +0.000 A 
ATOM      5  C   UNL     1       1.170   9.204  19.510  0.00  0.00    +0.000 A 
ATOM      6  C   UNL     1       1.915   8.586  18.499  0.00  0.00    +0.000 A 
ATOM      7  N   UNL     1       0.626  10.452  19.502  0.00  0.00    +0.000 NA
ATOM      8  C   UNL     1       0.342  10.707  20.764  0.00  0.00    +0.000 A 
ATOM      9  N   UNL     1       0.436   9.568  21.534  0.00  0.00    +0.000 N 
ATOM     10  C   UNL     1       0.220   9.494  22.960  0.00  0.00    +0.000 C 
ENDROOT
BRANCH   1  13
ATOM     11  C   UNL     1       3.738   5.689  17.419  0.00  0.00    +0.000 C 
ATOM     12  O   UNL     1       2.942   4.770  17.623  0.00  0.00    +0.000 OA
ATOM     13  N   UNL     1       3.581   6.978  17.897  0.00  0.00    +0.000 N 
ATOM     14  H   UNL     1       4.380   7.598  17.773  0.00  0.00    +0.000 HD
BRANCH  11  20
ATOM     15  C   UNL     1       6.239   5.963  16.793  0.00  0.00    +0.000 A 
ATOM     16  C   UNL     1       7.307   5.533  15.983  0.00  0.00    +0.000 A 
ATOM     17  C   UNL     1       7.114   4.574  14.986  0.00  0.00    +0.000 A 
ATOM     18  C   UNL     1       5.866   3.997  14.814  0.00  0.00    +0.000 A 
ATOM     19  C   UNL     1       4.816   4.375  15.646  0.00  0.00    +0.000 A 
ATOM     20  C   UNL     1       4.977   5.362  16.640  0.00  0.00    +0.000 A 
BRANCH  15  22
ATOM     21  C   UNL     1       7.587   7.730  17.598  0.00  0.00    +0.000 C 
ATOM     22  O   UNL     1       6.402   6.941  17.744  0.00  0.00    +0.000 OA
ENDBRANCH  15  22
ENDBRANCH  11  20
ENDBRANCH   1  13
BRANCH   8  23
ATOM     23  C   UNL     1       0.147  12.103  21.280  0.00  0.00    +0.000 C 
BRANCH  23  24
ATOM     24  N   UNL     1      -1.272  12.467  21.570  0.00  0.00    +0.000 NA
ATOM     25  C   UNL     1      -1.523  12.653  23.010  0.00  0.00    +0.000 C 
ATOM     26  C   UNL     1      -3.002  12.461  23.379  0.00  0.00    +0.000 C 
ATOM     27  C   UNL     1      -3.902  13.663  23.134  0.00  0.00    +0.000 C 
ATOM     28  C   UNL     1      -3.935  14.139  21.690  0.00  0.00    +0.000 C 
ATOM     29  C   UNL     1      -2.596  14.689  21.237  0.00  0.00    +0.000 C 
ATOM     30  C   UNL     1      -1.603  13.636  20.735  0.00  0.00    +0.000 C 
ENDBRANCH  23  24
ENDBRANCH   8  23
TORSDOF 5
ENDMDL
MODEL 3
REMARK VINA RESULT:      -7.8      2.375      4.103
REMARK  Name = 
REMARK  7 active torsions:
REMARK  status: ('A' for Active; 'I' for Inactive)
REMARK    1  A    between atoms: C_1  and  O_2
REMARK    2  A    between atoms: O_2  and  C_3
REMARK    3  A    between atoms: C_8  and  C_9
REMARK    4  A    between atoms: N_11  and  C_12
REMARK    5  A    between atoms: C_19  and  C_20
REMARK    6  A    between atoms: C_20  and  N_21
REMARK    7  A    between atoms: N_28  and  C_29
REMARK                            x       y       z     vdW  Elec       q    Type
REMARK                         _______ _______ _______ _____ _____    ______ ____
ROOT
ATOM      1  C   UNL     1       1.058   8.715  20.984  0.00  0.00    +0.000 A 
ATOM      2  C   UNL     1       0.889   9.454  19.806  0.00  0.00    +0.000 A 
ATOM      3  C   UNL     1       0.181  10.667  19.779  0.00  0.00    +0.000 A 
ATOM      4  C   UNL     1      -0.372  11.086  20.988  0.00  0.00    +0.000 A 
ATOM      5  C   UNL     1      -0.086  10.444  22.187  0.00  0.00    +0.000 A 
ATOM      6  C   UNL     1       0.678   9.271  22.205  0.00  0.00    +0.000 A 
ATOM      7  N   UNL     1      -0.729  11.036  23.231  0.00  0.00    +0.000 NA
ATOM      8  C   UNL     1      -1.576  11.880  22.673  0.00  0.00    +0.000 A 
ATOM      9  N   UNL     1      -1.306  12.039  21.331  0.00  0.00    +0.000 N 
ATOM     10  C   UNL     1      -2.055  12.866  20.413  0.00  0.00    +0.000 C 
ENDROOT
BRANCH   1  13
ATOM     11  C   UNL     1       2.120   6.719  19.952  0.00  0.00    +0.000 C 
ATOM     12  O   UNL     1       2.446   7.261  18.894  0.00  0.00    +0.000 OA
ATOM     13  N   UNL     1       1.516   7.374  21.011  0.00  0.00    +0.000 N 
ATOM     14  H   UNL     1       1.174   6.780  21.765  0.00  0.00    +0.000 HD
BRANCH  11  20
ATOM     15  C   UNL     1       3.565   4.570  19.821  0.00  0.00    +0.000 A 
ATOM     16  C   UNL     1       3.619   3.172  19.982  0.00  0.00    +0.000 A 
ATOM     17  C   UNL     1       2.475   2.441  20.312  0.00  0.00    +0.000 A 
ATOM     18  C   UNL     1       1.274   3.096  20.530  0.00  0.00    +0.000 A 
ATOM     19  C   UNL     1       1.222   4.483  20.427  0.00  0.00    +0.000 A 
ATOM     20  C   UNL     1       2.355   5.242  20.067  0.00  0.00    +0.000 A 
BRANCH  15  22
ATOM     21  C   UNL     1       5.259   4.900  18.206  0.00  0.00    +0.000 C 
ATOM     22  O   UNL     1       4.669   5.297  19.448  0.00  0.00    +0.000 OA
ENDBRANCH  15  22
ENDBRANCH  11  20
ENDBRANCH   1  13
BRANCH   8  23
ATOM     23  C   UNL     1      -2.778  12.412  23.397  0.00  0.00    +0.000 C 
BRANCH  23  24
ATOM     24  N   UNL     1      -2.781  13.891  23.596  0.00  0.00    +0.000 NA
ATOM     25  C   UNL     1      -3.872  14.339  24.480  0.00  0.00    +0.000 C 
ATOM     26  C   UNL     1      -4.246  15.812  24.252  0.00  0.00    +0.000 C 
ATOM     27  C   UNL     1      -3.355  16.831  24.946  0.00  0.00    +0.000 C 
ATOM     28  C   UNL     1      -1.887  16.752  24.554  0.00  0.00    +0.000 C 
ATOM     29  C   UNL     1      -1.242  15.456  25.006  0.00  0.00    +0.000 C 
ATOM     30  C   UNL     1      -1.431  14.274  24.049  0.00  0.00    +0.000 C 
ENDBRANCH  23  24
ENDBRANCH   8  23
TORSDOF 5
ENDMDL
MODEL 4
REMARK VINA RESULT:      -7.7      2.054      3.373
REMARK  Name = 
REMARK  7 active torsions:
REMARK  status: ('A' for Active; 'I' for Inactive)
REMARK    1  A    between atoms: C_1  and  O_2
REMARK    2  A    between atoms: O_2  and  C_3
REMARK    3  A    between atoms: C_8  and  C_9
REMARK    4  A    between atoms: N_11  and  C_12
REMARK    5  A    between atoms: C_19  and  C_20
REMARK    6  A    between atoms: C_20  and  N_21
REMARK    7  A    between atoms: N_28  and  C_29
REMARK                            x       y       z     vdW  Elec       q    Type
REMARK                         _______ _______ _______ _____ _____    ______ ____
ROOT
ATOM      1  C   UNL     1       2.409   7.786  18.662  0.00  0.00    +0.000 A 
ATOM      2  C   UNL     1       2.140   7.377  19.975  0.00  0.00    +0.000 A 
ATOM      3  C   UNL     1       1.296   8.108  20.828  0.00  0.00    +0.000 A 
ATOM      4  C   UNL     1       0.758   9.283  20.306  0.00  0.00    +0.000 A 
ATOM      5  C   UNL     1       0.895   9.620  18.964  0.00  0.00    +0.000 A 
ATOM      6  C   UNL     1       1.687   8.843  18.110  0.00  0.00    +0.000 A 
ATOM      7  N   UNL     1       0.280  10.802  18.686  0.00  0.00    +0.000 NA
ATOM      8  C   UNL     1      -0.034  11.306  19.864  0.00  0.00    +0.000 A 
ATOM      9  N   UNL     1       0.117  10.369  20.861  0.00  0.00    +0.000 N 
ATOM     10  C   UNL     1      -0.112  10.592  22.270  0.00  0.00    +0.000 C 
ENDROOT
BRANCH   1  13
ATOM     11  C   UNL     1       3.578   5.910  17.526  0.00  0.00    +0.000 C 
ATOM     12  O   UNL     1       2.730   5.048  17.764  0.00  0.00    +0.000 OA
ATOM     13  N   UNL     1       3.451   7.245  17.870  0.00  0.00    +0.000 N 
ATOM     14  H   UNL     1       4.283   7.819  17.740  0.00  0.00    +0.000 HD
BRANCH  11  20
ATOM     15  C   UNL     1       6.071   6.153  16.855  0.00  0.00    +0.000 A 
ATOM     16  C   UNL     1       7.174   5.586  16.189  0.00  0.00    +0.000 A 
ATOM     17  C   UNL     1       7.051   4.389  15.481  0.00  0.00    +0.000 A 
ATOM     18  C   UNL     1       5.840   3.716  15.466  0.00  0.00    +0.000 A 
ATOM     19  C   UNL     1       4.757   4.239  16.166  0.00  0.00    +0.000 A 
ATOM     20  C   UNL     1       4.847   5.461  16.864  0.00  0.00    +0.000 A 
BRANCH  15  22
ATOM     21  C   UNL     1       7.480   7.916  17.558  0.00  0.00    +0.000 C 
ATOM     22  O   UNL     1       6.163   7.355  17.514  0.00  0.00    +0.000 OA
ENDBRANCH  15  22
ENDBRANCH  11  20
ENDBRANCH   1  13
BRANCH   8  23
ATOM     23  C   UNL     1      -0.317  12.766  20.065  0.00  0.00    +0.000 C 
BRANCH  23  24
ATOM     24  N   UNL     1       0.883  13.651  19.975  0.00  0.00    +0.000 NA
ATOM     25  C   UNL     1       2.022  13.137  20.756  0.00  0.00    +0.000 C 
ATOM     26  C   UNL     1       3.016  14.242  21.144  0.00  0.00    +0.000 C 
ATOM     27  C   UNL     1       4.016  14.635  20.068  0.00  0.00    +0.000 C 
ATOM     28  C   UNL     1       3.386  15.135  18.777  0.00  0.00    +0.000 C 
ATOM     29  C   UNL     1       2.609  14.046  18.060  0.00  0.00    +0.000 C 
ATOM     30  C   UNL     1       1.167  13.859  18.544  0.00  0.00    +0.000 C 
ENDBRANCH  23  24
ENDBRANCH   8  23
TORSDOF 5
ENDMDL
MODEL 5
REMARK VINA RESULT:      -7.7      1.778      2.685
REMARK  Name = 
REMARK  7 active torsions:
REMARK  status: ('A' for Active; 'I' for Inactive)
REMARK    1  A    between atoms: C_1  and  O_2
REMARK    2  A    between atoms: O_2  and  C_3
REMARK    3  A    between atoms: C_8  and  C_9
REMARK    4  A    between atoms: N_11  and  C_12
REMARK    5  A    between atoms: C_19  and  C_20
REMARK    6  A    between atoms: C_20  and  N_21
REMARK    7  A    between atoms: N_28  and  C_29
REMARK                            x       y       z     vdW  Elec       q    Type
REMARK                         _______ _______ _______ _____ _____    ______ ____
ROOT
ATOM      1  C   UNL     1       2.588   7.387  18.722  0.00  0.00    +0.000 A 
ATOM      2  C   UNL     1       2.282   6.740  19.927  0.00  0.00    +0.000 A 
ATOM      3  C   UNL     1       1.495   7.344  20.922  0.00  0.00    +0.000 A 
ATOM      4  C   UNL     1       1.054   8.640  20.657  0.00  0.00    +0.000 A 
ATOM      5  C   UNL     1       1.221   9.232  19.410  0.00  0.00    +0.000 A 
ATOM      6  C   UNL     1       1.953   8.587  18.406  0.00  0.00    +0.000 A 
ATOM      7  N   UNL     1       0.702  10.490  19.387  0.00  0.00    +0.000 NA
ATOM      8  C   UNL     1       0.424  10.766  20.646  0.00  0.00    +0.000 A 
ATOM      9  N   UNL     1       0.497   9.636  21.430  0.00  0.00    +0.000 N 
ATOM     10  C   UNL     1       0.282   9.584  22.858  0.00  0.00    +0.000 C 
ENDROOT
BRANCH   1  13
ATOM     11  C   UNL     1       3.760   5.628  17.415  0.00  0.00    +0.000 C 
ATOM     12  O   UNL     1       2.988   4.707  17.688  0.00  0.00    +0.000 OA
ATOM     13  N   UNL     1       3.587   6.939  17.823  0.00  0.00    +0.000 N 
ATOM     14  H   UNL     1       4.370   7.567  17.647  0.00  0.00    +0.000 HD
BRANCH  11  20
ATOM     15  C   UNL     1       6.311   5.646  16.949  0.00  0.00    +0.000 A 
ATOM     16  C   UNL     1       7.360   5.232  16.106  0.00  0.00    +0.000 A 
ATOM     17  C   UNL     1       7.101   4.530  14.926  0.00  0.00    +0.000 A 
ATOM     18  C   UNL     1       5.800   4.191  14.594  0.00  0.00    +0.000 A 
ATOM     19  C   UNL     1       4.760   4.547  15.448  0.00  0.00    +0.000 A 
ATOM     20  C   UNL     1       4.991   5.282  16.630  0.00  0.00    +0.000 A 
BRANCH  15  22
ATOM     21  C   UNL     1       7.124   5.643  19.168  0.00  0.00    +0.000 C 
ATOM     22  O   UNL     1       6.546   6.380  18.087  0.00  0.00    +0.000 OA
ENDBRANCH  15  22
ENDBRANCH  11  20
ENDBRANCH   1  13
BRANCH   8  23
ATOM     23  C   UNL     1       0.256  12.172  21.144  0.00  0.00    +0.000 C 
BRANCH  23  24
ATOM     24  N   UNL     1       0.716  13.228  20.194  0.00  0.00    +0.000 NA
ATOM     25  C   UNL     1      -0.208  14.375  20.136  0.00  0.00    +0.000 C 
ATOM     26  C   UNL     1      -0.087  15.162  18.822  0.00  0.00    +0.000 C 
ATOM     27  C   UNL     1       1.057  16.163  18.758  0.00  0.00    +0.000 C 
ATOM     28  C   UNL     1       2.436  15.555  18.959  0.00  0.00    +0.000 C 
ATOM     29  C   UNL     1       2.620  15.002  20.360  0.00  0.00    +0.000 C 
ATOM     30  C   UNL     1       2.101  13.575  20.562  0.00  0.00    +0.000 C 
ENDBRANCH  23  24
ENDBRANCH   8  23
TORSDOF 5
ENDMDL
MODEL 6
REMARK VINA RESULT:      -7.7      1.162      1.183
REMARK  Name = 
REMARK  7 active torsions:
REMARK  status: ('A' for Active; 'I' for Inactive)
REMARK    1  A    between atoms: C_1  and  O_2
REMARK    2  A    between atoms: O_2  and  C_3
REMARK    3  A    between atoms: C_8  and  C_9
REMARK    4  A    between atoms: N_11  and  C_12
REMARK    5  A    between atoms: C_19  and  C_20
REMARK    6  A    between atoms: C_20  and  N_21
REMARK    7  A    between atoms: N_28  and  C_29
REMARK                            x       y       z     vdW  Elec       q    Type
REMARK                         _______ _______ _______ _____ _____    ______ ____
ROOT
ATOM      1  C   UNL     1       2.404   7.809  18.563  0.00  0.00    +0.000 A 
ATOM      2  C   UNL     1       2.176   7.431  19.893  0.00  0.00    +0.000 A 
ATOM      3  C   UNL     1       1.352   8.178  20.751  0.00  0.00    +0.000 A 
ATOM      4  C   UNL     1       0.791   9.336  20.216  0.00  0.00    +0.000 A 
ATOM      5  C   UNL     1       0.886   9.640  18.863  0.00  0.00    +0.000 A 
ATOM      6  C   UNL     1       1.659   8.847  18.006  0.00  0.00    +0.000 A 
ATOM      7  N   UNL     1       0.255  10.811  18.573  0.00  0.00    +0.000 NA
ATOM      8  C   UNL     1      -0.028  11.343  19.746  0.00  0.00    +0.000 A 
ATOM      9  N   UNL     1       0.158  10.432  20.763  0.00  0.00    +0.000 N 
ATOM     10  C   UNL     1      -0.031  10.689  22.172  0.00  0.00    +0.000 C 
ENDROOT
BRANCH   1  13
ATOM     11  C   UNL     1       3.635   5.901  17.552  0.00  0.00    +0.000 C 
ATOM     12  O   UNL     1       2.878   5.014  17.953  0.00  0.00    +0.000 OA
ATOM     13  N   UNL     1       3.427   7.254  17.755  0.00  0.00    +0.000 N 
ATOM     14  H   UNL     1       4.199   7.867  17.495  0.00  0.00    +0.000 HD
BRANCH  11  20
ATOM     15  C   UNL     1       6.105   6.167  16.811  0.00  0.00    +0.000 A 
ATOM     16  C   UNL     1       7.190   5.616  16.102  0.00  0.00    +0.000 A 
ATOM     17  C   UNL     1       7.050   4.431  15.377  0.00  0.00    +0.000 A 
ATOM     18  C   UNL     1       5.842   3.753  15.386  0.00  0.00    +0.000 A 
ATOM     19  C   UNL     1       4.778   4.259  16.128  0.00  0.00    +0.000 A 
ATOM     20  C   UNL     1       4.885   5.469  16.844  0.00  0.00    +0.000 A 
BRANCH  15  22
ATOM     21  C   UNL     1       7.542   7.881  17.572  0.00  0.00    +0.000 C 
ATOM     22  O   UNL     1       6.213   7.357  17.487  0.00  0.00    +0.000 OA
ENDBRANCH  15  22
ENDBRANCH  11  20
ENDBRANCH   1  13
BRANCH   8  23
ATOM     23  C   UNL     1      -0.315  12.806  19.919  0.00  0.00    +0.000 C 
BRANCH  23  24
ATOM     24  N   UNL     1      -1.753  13.136  20.147  0.00  0.00    +0.000 NA
ATOM     25  C   UNL     1      -2.648  12.010  19.827  0.00  0.00    +0.000 C 
ATOM     26  C   UNL     1      -4.078  12.469  19.506  0.00  0.00    +0.000 C 
ATOM     27  C   UNL     1      -4.967  12.747  20.709  0.00  0.00    +0.000 C 
ATOM     28  C   UNL     1      -4.432  13.817  21.650  0.00  0.00    +0.000 C 
ATOM     29  C   UNL     1      -3.149  13.388  22.336  0.00  0.00    +0.000 C 
ATOM     30  C   UNL     1      -1.872  13.640  21.528  0.00  0.00    +0.000 C 
ENDBRANCH  23  24
ENDBRANCH   8  23
TORSDOF 5
ENDMDL
MODEL 7
REMARK VINA RESULT:      -7.7      2.306      3.284
REMARK  Name = 
REMARK  7 active torsions:
REMARK  status: ('A' for Active; 'I' for Inactive)
REMARK    1  A    between atoms: C_1  and  O_2
REMARK    2  A    between atoms: O_2  and  C_3
REMARK    3  A    between atoms: C_8  and  C_9
REMARK    4  A    between atoms: N_11  and  C_12
REMARK    5  A    between atoms: C_19  and  C_20
REMARK    6  A    between atoms: C_20  and  N_21
REMARK    7  A    between atoms: N_28  and  C_29
REMARK                            x       y       z     vdW  Elec       q    Type
REMARK                         _______ _______ _______ _____ _____    ______ ____
ROOT
ATOM      1  C   UNL     1       2.342   7.892  18.496  0.00  0.00    +0.000 A 
ATOM      2  C   UNL     1       2.181   7.670  19.871  0.00  0.00    +0.000 A 
ATOM      3  C   UNL     1       1.342   8.470  20.664  0.00  0.00    +0.000 A 
ATOM      4  C   UNL     1       0.693   9.519  20.014  0.00  0.00    +0.000 A 
ATOM      5  C   UNL     1       0.725   9.656  18.631  0.00  0.00    +0.000 A 
ATOM      6  C   UNL     1       1.516   8.809  17.847  0.00  0.00    +0.000 A 
ATOM      7  N   UNL     1       0.013  10.744  18.226  0.00  0.00    +0.000 NA
ATOM      8  C   UNL     1      -0.264  11.401  19.336  0.00  0.00    +0.000 A 
ATOM      9  N   UNL     1       0.012  10.635  20.448  0.00  0.00    +0.000 N 
ATOM     10  C   UNL     1      -0.146  11.055  21.821  0.00  0.00    +0.000 C 
ENDROOT
BRANCH   1  13
ATOM     11  C   UNL     1       3.581   5.939  17.587  0.00  0.00    +0.000 C 
ATOM     12  O   UNL     1       2.824   5.071  18.027  0.00  0.00    +0.000 OA
ATOM     13  N   UNL     1       3.369   7.300  17.721  0.00  0.00    +0.000 N 
ATOM     14  H   UNL     1       4.141   7.901  17.435  0.00  0.00    +0.000 HD
BRANCH  11  20
ATOM     15  C   UNL     1       6.055   6.173  16.846  0.00  0.00    +0.000 A 
ATOM     16  C   UNL     1       7.145   5.591  16.170  0.00  0.00    +0.000 A 
ATOM     17  C   UNL     1       7.010   4.371  15.502  0.00  0.00    +0.000 A 
ATOM     18  C   UNL     1       5.803   3.693  15.538  0.00  0.00    +0.000 A 
ATOM     19  C   UNL     1       4.734   4.232  16.249  0.00  0.00    +0.000 A 
ATOM     20  C   UNL     1       4.835   5.476  16.907  0.00  0.00    +0.000 A 
BRANCH  15  22
ATOM     21  C   UNL     1       7.493   7.894  17.590  0.00  0.00    +0.000 C 
ATOM     22  O   UNL     1       6.158   7.395  17.465  0.00  0.00    +0.000 OA
ENDBRANCH  15  22
ENDBRANCH  11  20
ENDBRANCH   1  13
BRANCH   8  23
ATOM     23  C   UNL     1      -0.634  12.855  19.340  0.00  0.00    +0.000 C 
BRANCH  23  24
ATOM     24  N   UNL     1       0.524  13.792  19.437  0.00  0.00    +0.000 NA
ATOM     25  C   UNL     1       1.578  13.491  18.452  0.00  0.00    +0.000 C 
ATOM     26  C   UNL     1       2.953  14.025  18.880  0.00  0.00    +0.000 C 
ATOM     27  C   UNL     1       3.203  15.499  18.598  0.00  0.00    +0.000 C 
ATOM     28  C   UNL     1       2.211  16.443  19.261  0.00  0.00    +0.000 C 
ATOM     29  C   UNL     1       0.808  16.281  18.708  0.00  0.00    +0.000 C 
ATOM     30  C   UNL     1      -0.015  15.162  19.356  0.00  0.00    +0.000 C 
ENDBRANCH  23  24
ENDBRANCH   8  23
TORSDOF 5
ENDMDL
MODEL 8
REMARK VINA RESULT:      -7.7      2.337      4.176
REMARK  Name = 
REMARK  7 active torsions:
REMARK  status: ('A' for Active; 'I' for Inactive)
REMARK    1  A    between atoms: C_1  and  O_2
REMARK    2  A    between atoms: O_2  and  C_3
REMARK    3  A    between atoms: C_8  and  C_9
REMARK    4  A    between atoms: N_11  and  C_12
REMARK    5  A    between atoms: C_19  and  C_20
REMARK    6  A    between atoms: C_20  and  N_21
REMARK    7  A    between atoms: N_28  and  C_29
REMARK                            x       y       z     vdW  Elec       q    Type
REMARK                         _______ _______ _______ _____ _____    ______ ____
ROOT
ATOM      1  C   UNL     1       0.951   8.749  21.077  0.00  0.00    +0.000 A 
ATOM      2  C   UNL     1       0.822   9.520  19.914  0.00  0.00    +0.000 A 
ATOM      3  C   UNL     1       0.098  10.723  19.890  0.00  0.00    +0.000 A 
ATOM      4  C   UNL     1      -0.513  11.100  21.085  0.00  0.00    +0.000 A 
ATOM      5  C   UNL     1      -0.270  10.428  22.277  0.00  0.00    +0.000 A 
ATOM      6  C   UNL     1       0.510   9.265  22.295  0.00  0.00    +0.000 A 
ATOM      7  N   UNL     1      -0.967  10.980  23.308  0.00  0.00    +0.000 NA
ATOM      8  C   UNL     1      -1.800  11.828  22.738  0.00  0.00    +0.000 A 
ATOM      9  N   UNL     1      -1.475  12.030  21.414  0.00  0.00    +0.000 N 
ATOM     10  C   UNL     1      -2.196  12.872  20.488  0.00  0.00    +0.000 C 
ENDROOT
BRANCH   1  13
ATOM     11  C   UNL     1       2.073   6.794  20.030  0.00  0.00    +0.000 C 
ATOM     12  O   UNL     1       2.422   7.366  18.996  0.00  0.00    +0.000 OA
ATOM     13  N   UNL     1       1.428   7.415  21.085  0.00  0.00    +0.000 N 
ATOM     14  H   UNL     1       1.072   6.798  21.814  0.00  0.00    +0.000 HD
BRANCH  11  20
ATOM     15  C   UNL     1       3.540   4.664  19.844  0.00  0.00    +0.000 A 
ATOM     16  C   UNL     1       3.611   3.265  19.981  0.00  0.00    +0.000 A 
ATOM     17  C   UNL     1       2.480   2.515  20.312  0.00  0.00    +0.000 A 
ATOM     18  C   UNL     1       1.274   3.152  20.557  0.00  0.00    +0.000 A 
ATOM     19  C   UNL     1       1.205   4.541  20.478  0.00  0.00    +0.000 A 
ATOM     20  C   UNL     1       2.325   5.318  20.117  0.00  0.00    +0.000 A 
BRANCH  15  22
ATOM     21  C   UNL     1       5.135   5.122  18.162  0.00  0.00    +0.000 C 
ATOM     22  O   UNL     1       4.631   5.410  19.470  0.00  0.00    +0.000 OA
ENDBRANCH  15  22
ENDBRANCH  11  20
ENDBRANCH   1  13
BRANCH   8  23
ATOM     23  C   UNL     1      -3.041  12.322  23.423  0.00  0.00    +0.000 C 
BRANCH  23  24
ATOM     24  N   UNL     1      -2.930  13.695  23.998  0.00  0.00    +0.000 NA
ATOM     25  C   UNL     1      -1.561  14.234  23.912  0.00  0.00    +0.000 C 
ATOM     26  C   UNL     1      -1.294  15.331  24.954  0.00  0.00    +0.000 C 
ATOM     27  C   UNL     1      -1.793  16.721  24.589  0.00  0.00    +0.000 C 
ATOM     28  C   UNL     1      -3.290  16.803  24.333  0.00  0.00    +0.000 C 
ATOM     29  C   UNL     1      -3.705  16.019  23.103  0.00  0.00    +0.000 C 
ATOM     30  C   UNL     1      -3.957  14.527  23.345  0.00  0.00    +0.000 C 
ENDBRANCH  23  24
ENDBRANCH   8  23
TORSDOF 5
ENDMDL
MODEL 9
REMARK VINA RESULT:      -7.6      2.104      3.427
REMARK  Name = 
REMARK  7 active torsions:
REMARK  status: ('A' for Active; 'I' for Inactive)
REMARK    1  A    between atoms: C_1  and  O_2
REMARK    2  A    between atoms: O_2  and  C_3
REMARK    3  A    between atoms: C_8  and  C_9
REMARK    4  A    between atoms: N_11  and  C_12
REMARK    5  A    between atoms: C_19  and  C_20
REMARK    6  A    between atoms: C_20  and  N_21
REMARK    7  A    between atoms: N_28  and  C_29
REMARK                            x       y       z     vdW  Elec       q    Type
REMARK                         _______ _______ _______ _____ _____    ______ ____
ROOT
ATOM      1  C   UNL     1       2.241   7.920  18.959  0.00  0.00    +0.000 A 
ATOM      2  C   UNL     1       1.840   7.545  20.249  0.00  0.00    +0.000 A 
ATOM      3  C   UNL     1       0.952   8.321  21.011  0.00  0.00    +0.000 A 
ATOM      4  C   UNL     1       0.509   9.506  20.426  0.00  0.00    +0.000 A 
ATOM      5  C   UNL     1       0.776   9.813  19.097  0.00  0.00    +0.000 A 
ATOM      6  C   UNL     1       1.611   8.992  18.329  0.00  0.00    +0.000 A 
ATOM      7  N   UNL     1       0.234  11.012  18.747  0.00  0.00    +0.000 NA
ATOM      8  C   UNL     1      -0.164  11.549  19.884  0.00  0.00    +0.000 A 
ATOM      9  N   UNL     1      -0.138  10.624  20.905  0.00  0.00    +0.000 N 
ATOM     10  C   UNL     1      -0.482  10.882  22.285  0.00  0.00    +0.000 C 
ENDROOT
BRANCH   1  13
ATOM     11  C   UNL     1       3.349   6.031  17.784  0.00  0.00    +0.000 C 
ATOM     12  O   UNL     1       2.376   5.274  17.780  0.00  0.00    +0.000 OA
ATOM     13  N   UNL     1       3.328   7.326  18.272  0.00  0.00    +0.000 N 
ATOM     14  H   UNL     1       4.233   7.790  18.343  0.00  0.00    +0.000 HD
BRANCH  11  20
ATOM     15  C   UNL     1       5.568   4.706  17.996  0.00  0.00    +0.000 A 
ATOM     16  C   UNL     1       6.743   4.263  17.359  0.00  0.00    +0.000 A 
ATOM     17  C   UNL     1       7.039   4.641  16.048  0.00  0.00    +0.000 A 
ATOM     18  C   UNL     1       6.146   5.428  15.337  0.00  0.00    +0.000 A 
ATOM     19  C   UNL     1       4.956   5.827  15.938  0.00  0.00    +0.000 A 
ATOM     20  C   UNL     1       4.647   5.483  17.270  0.00  0.00    +0.000 A 
BRANCH  15  22
ATOM     21  C   UNL     1       4.648   3.117  19.482  0.00  0.00    +0.000 C 
ATOM     22  O   UNL     1       5.288   4.384  19.301  0.00  0.00    +0.000 OA
ENDBRANCH  15  22
ENDBRANCH  11  20
ENDBRANCH   1  13
BRANCH   8  23
ATOM     23  C   UNL     1      -0.407  13.021  20.037  0.00  0.00    +0.000 C 
BRANCH  23  24
ATOM     24  N   UNL     1       0.826  13.862  20.010  0.00  0.00    +0.000 NA
ATOM     25  C   UNL     1       1.928  13.273  20.791  0.00  0.00    +0.000 C 
ATOM     26  C   UNL     1       2.953  14.323  21.246  0.00  0.00    +0.000 C 
ATOM     27  C   UNL     1       3.991  14.722  20.208  0.00  0.00    +0.000 C 
ATOM     28  C   UNL     1       3.408  15.299  18.927  0.00  0.00    +0.000 C 
ATOM     29  C   UNL     1       2.607  14.272  18.149  0.00  0.00    +0.000 C 
ATOM     30  C   UNL     1       1.149  14.120  18.595  0.00  0.00    +0.000 C 
ENDBRANCH  23  24
ENDBRANCH   8  23
TORSDOF 5
ENDMDL
