MODEL 1
REMARK VINA RESULT:      -7.0      0.000      0.000
REMARK  Name = 
REMARK  5 active torsions:
REMARK  status: ('A' for Active; 'I' for Inactive)
REMARK    1  A    between atoms: C_1  and  C_2
REMARK    2  A    between atoms: C_2  and  O_3
REMARK    3  A    between atoms: O_3  and  C_4
REMARK    4  A    between atoms: C_4  and  C_5
REMARK    5  A    between atoms: C_13  and  C_15
REMARK                            x       y       z     vdW  Elec       q    Type
REMARK                         _______ _______ _______ _____ _____    ______ ____
ROOT
ATOM      1  C   UNL     1       6.178   4.538  14.830  0.00  0.00    +0.000 C 
ATOM      2  C   UNL     1       6.662   3.750  16.052  0.00  0.00    +0.000 C 
ATOM      3  C   UNL     1       7.092   4.664  17.189  0.00  0.00    +0.000 C 
ATOM      4  C   UNL     1       6.016   5.687  17.528  0.00  0.00    +0.000 C 
ATOM      5  C   UNL     1       5.581   6.416  16.241  0.00  0.00    +0.000 C 
ATOM      6  C   UNL     1       4.314   7.140  16.673  0.00  0.00    +0.000 C 
ATOM      7  C   UNL     1       3.705   6.219  17.722  0.00  0.00    +0.000 C 
ATOM      8  N   UNL     1       4.732   5.252  18.102  0.00  0.00    +0.000 N 
ATOM      9  C   UNL     1       4.560   4.104  18.882  0.00  0.00    +0.000 C 
ATOM     10  O   UNL     1       5.480   3.335  19.146  0.00  0.00    +0.000 OA
ATOM     11  O   UNL     1       5.203   5.524  15.188  0.00  0.00    +0.000 OA
ENDROOT
BRANCH   9  12
ATOM     12  C   UNL     1       3.222   3.760  19.437  0.00  0.00    +0.000 A 
ATOM     13  C   UNL     1       2.792   4.252  20.671  0.00  0.00    +0.000 A 
ATOM     14  C   UNL     1       1.525   3.915  21.126  0.00  0.00    +0.000 A 
ATOM     15  N   UNL     1       0.704   3.073  20.478  0.00  0.00    +0.000 NA
ATOM     16  C   UNL     1       1.166   2.542  19.324  0.00  0.00    +0.000 A 
ATOM     17  C   UNL     1       2.401   2.859  18.767  0.00  0.00    +0.000 A 
ATOM     18  F   UNL     1       2.749   2.282  17.608  0.00  0.00    +0.000 F 
ENDBRANCH   9  12
BRANCH   1  19
ATOM     19  C   UNL     1       7.315   5.137  13.986  0.00  0.00    +0.000 C 
BRANCH  19  20
ATOM     20  O   UNL     1       7.315   4.534  12.691  0.00  0.00    +0.000 OA
BRANCH  20  22
ATOM     21  C   UNL     1       6.706   2.513  11.580  0.00  0.00    +0.000 C 
ATOM     22  C   UNL     1       6.248   3.606  12.527  0.00  0.00    +0.000 C 
ENDBRANCH  20  22
ENDBRANCH  19  20
ENDBRANCH   1  19
TORSDOF 4
ENDMDL
MODEL 2
REMARK VINA RESULT:      -6.4      1.005      1.414
REMARK  Name = 
REMARK  5 active torsions:
REMARK  status: ('A' for Active; 'I' for Inactive)
REMARK    1  A    between atoms: C_1  and  C_2
REMARK    2  A    between atoms: C_2  and  O_3
REMARK    3  A    between atoms: O_3  and  C_4
REMARK    4  A    between atoms: C_4  and  C_5
REMARK    5  A    between atoms: C_13  and  C_15
REMARK                            x       y       z     vdW  Elec       q    Type
REMARK                         _______ _______ _______ _____ _____    ______ ____
ROOT
ATOM      1  C   UNL     1       6.197   4.624  14.729  0.00  0.00    +0.000 C 
ATOM      2  C   UNL     1       6.605   3.768  15.933  0.00  0.00    +0.000 C 
ATOM      3  C   UNL     1       6.993   4.617  17.134  0.00  0.00    +0.000 C 
ATOM      4  C   UNL     1       5.919   5.645  17.469  0.00  0.00    +0.000 C 
ATOM      5  C   UNL     1       5.564   6.444  16.199  0.00  0.00    +0.000 C 
ATOM      6  C   UNL     1       4.290   7.172  16.602  0.00  0.00    +0.000 C 
ATOM      7  C   UNL     1       3.611   6.214  17.573  0.00  0.00    +0.000 C 
ATOM      8  N   UNL     1       4.600   5.209  17.956  0.00  0.00    +0.000 N 
ATOM      9  C   UNL     1       4.368   4.029  18.669  0.00  0.00    +0.000 C 
ATOM     10  O   UNL     1       5.259   3.230  18.941  0.00  0.00    +0.000 OA
ATOM     11  O   UNL     1       5.223   5.612  15.085  0.00  0.00    +0.000 OA
ENDROOT
BRANCH   9  12
ATOM     12  C   UNL     1       2.998   3.686  19.139  0.00  0.00    +0.000 A 
ATOM     13  C   UNL     1       2.211   2.739  18.481  0.00  0.00    +0.000 A 
ATOM     14  C   UNL     1       0.950   2.445  18.981  0.00  0.00    +0.000 A 
ATOM     15  N   UNL     1       0.403   3.079  20.031  0.00  0.00    +0.000 NA
ATOM     16  C   UNL     1       1.144   4.050  20.609  0.00  0.00    +0.000 A 
ATOM     17  C   UNL     1       2.436   4.378  20.208  0.00  0.00    +0.000 A 
ATOM     18  F   UNL     1       3.084   5.350  20.866  0.00  0.00    +0.000 F 
ENDBRANCH   9  12
BRANCH   1  19
ATOM     19  C   UNL     1       7.387   5.239  13.974  0.00  0.00    +0.000 C 
BRANCH  19  20
ATOM     20  O   UNL     1       7.475   4.658  12.671  0.00  0.00    +0.000 OA
BRANCH  20  22
ATOM     21  C   UNL     1       7.004   2.622  11.521  0.00  0.00    +0.000 C 
ATOM     22  C   UNL     1       6.451   3.698  12.437  0.00  0.00    +0.000 C 
ENDBRANCH  20  22
ENDBRANCH  19  20
ENDBRANCH   1  19
TORSDOF 4
ENDMDL
MODEL 3
REMARK VINA RESULT:      -6.4      2.585      3.192
REMARK  Name = 
REMARK  5 active torsions:
REMARK  status: ('A' for Active; 'I' for Inactive)
REMARK    1  A    between atoms: C_1  and  C_2
REMARK    2  A    between atoms: C_2  and  O_3
REMARK    3  A    between atoms: O_3  and  C_4
REMARK    4  A    between atoms: C_4  and  C_5
REMARK    5  A    between atoms: C_13  and  C_15
REMARK                            x       y       z     vdW  Elec       q    Type
REMARK                         _______ _______ _______ _____ _____    ______ ____
ROOT
ATOM      1  C   UNL     1       5.688   4.906  14.481  0.00  0.00    +0.000 C 
ATOM      2  C   UNL     1       4.650   4.100  15.270  0.00  0.00    +0.000 C 
ATOM      3  C   UNL     1       5.194   3.621  16.608  0.00  0.00    +0.000 C 
ATOM      4  C   UNL     1       5.798   4.764  17.413  0.00  0.00    +0.000 C 
ATOM      5  C   UNL     1       6.814   5.524  16.536  0.00  0.00    +0.000 C 
ATOM      6  C   UNL     1       7.074   6.790  17.340  0.00  0.00    +0.000 C 
ATOM      7  C   UNL     1       5.748   7.059  18.040  0.00  0.00    +0.000 C 
ATOM      8  N   UNL     1       4.942   5.845  17.926  0.00  0.00    +0.000 N 
ATOM      9  C   UNL     1       3.588   5.701  18.247  0.00  0.00    +0.000 C 
ATOM     10  O   UNL     1       2.981   4.643  18.110  0.00  0.00    +0.000 OA
ATOM     11  O   UNL     1       6.273   5.942  15.279  0.00  0.00    +0.000 OA
ENDROOT
BRANCH   9  12
ATOM     12  C   UNL     1       2.811   6.852  18.783  0.00  0.00    +0.000 A 
ATOM     13  C   UNL     1       2.282   6.842  20.075  0.00  0.00    +0.000 A 
ATOM     14  C   UNL     1       1.586   7.955  20.527  0.00  0.00    +0.000 A 
ATOM     15  N   UNL     1       1.322   9.026  19.760  0.00  0.00    +0.000 NA
ATOM     16  C   UNL     1       1.771   8.987  18.486  0.00  0.00    +0.000 A 
ATOM     17  C   UNL     1       2.519   7.937  17.962  0.00  0.00    +0.000 A 
ATOM     18  F   UNL     1       2.925   8.013  16.686  0.00  0.00    +0.000 F 
ENDBRANCH   9  12
BRANCH   1  19
ATOM     19  C   UNL     1       6.756   4.039  13.795  0.00  0.00    +0.000 C 
BRANCH  19  20
ATOM     20  O   UNL     1       6.500   3.993  12.390  0.00  0.00    +0.000 OA
BRANCH  20  22
ATOM     21  C   UNL     1       4.444   3.227  11.455  0.00  0.00    +0.000 C 
ATOM     22  C   UNL     1       5.796   2.816  12.007  0.00  0.00    +0.000 C 
ENDBRANCH  20  22
ENDBRANCH  19  20
ENDBRANCH   1  19
TORSDOF 4
ENDMDL
MODEL 4
REMARK VINA RESULT:      -6.3      2.589      3.204
REMARK  Name = 
REMARK  5 active torsions:
REMARK  status: ('A' for Active; 'I' for Inactive)
REMARK    1  A    between atoms: C_1  and  C_2
REMARK    2  A    between atoms: C_2  and  O_3
REMARK    3  A    between atoms: O_3  and  C_4
REMARK    4  A    between atoms: C_4  and  C_5
REMARK    5  A    between atoms: C_13  and  C_15
REMARK                            x       y       z     vdW  Elec       q    Type
REMARK                         _______ _______ _______ _____ _____    ______ ____
ROOT
ATOM      1  C   UNL     1       6.097   5.369  15.262  0.00  0.00    +0.000 C 
ATOM      2  C   UNL     1       4.688   4.771  15.336  0.00  0.00    +0.000 C 
ATOM      3  C   UNL     1       4.583   3.680  16.390  0.00  0.00    +0.000 C 
ATOM      4  C   UNL     1       5.102   4.151  17.742  0.00  0.00    +0.000 C 
ATOM      5  C   UNL     1       6.513   4.749  17.567  0.00  0.00    +0.000 C 
ATOM      6  C   UNL     1       6.750   5.452  18.896  0.00  0.00    +0.000 C 
ATOM      7  C   UNL     1       5.361   5.913  19.320  0.00  0.00    +0.000 C 
ATOM      8  N   UNL     1       4.394   5.207  18.483  0.00  0.00    +0.000 N 
ATOM      9  C   UNL     1       3.022   5.461  18.385  0.00  0.00    +0.000 C 
ATOM     10  O   UNL     1       2.278   4.823  17.646  0.00  0.00    +0.000 OA
ATOM     11  O   UNL     1       6.577   5.758  16.554  0.00  0.00    +0.000 OA
ENDROOT
BRANCH   9  12
ATOM     12  C   UNL     1       2.392   6.540  19.195  0.00  0.00    +0.000 A 
ATOM     13  C   UNL     1       1.847   6.287  20.455  0.00  0.00    +0.000 A 
ATOM     14  C   UNL     1       1.294   7.339  21.174  0.00  0.00    +0.000 A 
ATOM     15  N   UNL     1       1.184   8.588  20.693  0.00  0.00    +0.000 NA
ATOM     16  C   UNL     1       1.644   8.800  19.439  0.00  0.00    +0.000 A 
ATOM     17  C   UNL     1       2.257   7.819  18.665  0.00  0.00    +0.000 A 
ATOM     18  F   UNL     1       2.691   8.147  17.440  0.00  0.00    +0.000 F 
ENDBRANCH   9  12
BRANCH   1  19
ATOM     19  C   UNL     1       7.109   4.482  14.518  0.00  0.00    +0.000 C 
BRANCH  19  20
ATOM     20  O   UNL     1       6.411   3.465  13.798  0.00  0.00    +0.000 OA
BRANCH  20  22
ATOM     21  C   UNL     1       5.341   2.865  11.752  0.00  0.00    +0.000 C 
ATOM     22  C   UNL     1       6.458   3.669  12.390  0.00  0.00    +0.000 C 
ENDBRANCH  20  22
ENDBRANCH  19  20
ENDBRANCH   1  19
TORSDOF 4
ENDMDL
MODEL 5
REMARK VINA RESULT:      -6.3      2.621      3.367
REMARK  Name = 
REMARK  5 active torsions:
REMARK  status: ('A' for Active; 'I' for Inactive)
REMARK    1  A    between atoms: C_1  and  C_2
REMARK    2  A    between atoms: C_2  and  O_3
REMARK    3  A    between atoms: O_3  and  C_4
REMARK    4  A    between atoms: C_4  and  C_5
REMARK    5  A    between atoms: C_13  and  C_15
REMARK                            x       y       z     vdW  Elec       q    Type
REMARK                         _______ _______ _______ _____ _____    ______ ____
ROOT
ATOM      1  C   UNL     1       5.765   5.128  14.439  0.00  0.00    +0.000 C 
ATOM      2  C   UNL     1       4.638   4.353  15.132  0.00  0.00    +0.000 C 
ATOM      3  C   UNL     1       5.058   3.833  16.499  0.00  0.00    +0.000 C 
ATOM      4  C   UNL     1       5.643   4.940  17.367  0.00  0.00    +0.000 C 
ATOM      5  C   UNL     1       6.752   5.671  16.584  0.00  0.00    +0.000 C 
ATOM      6  C   UNL     1       6.997   6.915  17.427  0.00  0.00    +0.000 C 
ATOM      7  C   UNL     1       5.633   7.226  18.028  0.00  0.00    +0.000 C 
ATOM      8  N   UNL     1       4.792   6.047  17.832  0.00  0.00    +0.000 N 
ATOM      9  C   UNL     1       3.413   5.953  18.046  0.00  0.00    +0.000 C 
ATOM     10  O   UNL     1       2.778   4.922  17.845  0.00  0.00    +0.000 OA
ATOM     11  O   UNL     1       6.326   6.128  15.296  0.00  0.00    +0.000 OA
ENDROOT
BRANCH   9  12
ATOM     12  C   UNL     1       2.641   7.126  18.540  0.00  0.00    +0.000 A 
ATOM     13  C   UNL     1       2.450   8.262  17.752  0.00  0.00    +0.000 A 
ATOM     14  C   UNL     1       1.701   9.316  18.259  0.00  0.00    +0.000 A 
ATOM     15  N   UNL     1       1.206   9.340  19.507  0.00  0.00    +0.000 NA
ATOM     16  C   UNL     1       1.468   8.267  20.286  0.00  0.00    +0.000 A 
ATOM     17  C   UNL     1       2.166   7.146  19.848  0.00  0.00    +0.000 A 
ATOM     18  F   UNL     1       2.353   6.132  20.704  0.00  0.00    +0.000 F 
ENDBRANCH   9  12
BRANCH   1  19
ATOM     19  C   UNL     1       6.848   4.228  13.821  0.00  0.00    +0.000 C 
BRANCH  19  20
ATOM     20  O   UNL     1       6.239   3.056  13.277  0.00  0.00    +0.000 OA
BRANCH  20  22
ATOM     21  C   UNL     1       4.600   3.196  11.550  0.00  0.00    +0.000 C 
ATOM     22  C   UNL     1       6.083   3.133  11.864  0.00  0.00    +0.000 C 
ENDBRANCH  20  22
ENDBRANCH  19  20
ENDBRANCH   1  19
TORSDOF 4
ENDMDL
MODEL 6
REMARK VINA RESULT:      -6.3      2.416      3.100
REMARK  Name = 
REMARK  5 active torsions:
REMARK  status: ('A' for Active; 'I' for Inactive)
REMARK    1  A    between atoms: C_1  and  C_2
REMARK    2  A    between atoms: C_2  and  O_3
REMARK    3  A    between atoms: O_3  and  C_4
REMARK    4  A    between atoms: C_4  and  C_5
REMARK    5  A    between atoms: C_13  and  C_15
REMARK                            x       y       z     vdW  Elec       q    Type
REMARK                         _______ _______ _______ _____ _____    ______ ____
ROOT
ATOM      1  C   UNL     1       6.192   5.405  15.303  0.00  0.00    +0.000 C 
ATOM      2  C   UNL     1       4.796   4.773  15.344  0.00  0.00    +0.000 C 
ATOM      3  C   UNL     1       4.699   3.669  16.385  0.00  0.00    +0.000 C 
ATOM      4  C   UNL     1       5.181   4.138  17.752  0.00  0.00    +0.000 C 
ATOM      5  C   UNL     1       6.580   4.772  17.610  0.00  0.00    +0.000 C 
ATOM      6  C   UNL     1       6.775   5.467  18.949  0.00  0.00    +0.000 C 
ATOM      7  C   UNL     1       5.368   5.891  19.351  0.00  0.00    +0.000 C 
ATOM      8  N   UNL     1       4.434   5.170  18.490  0.00  0.00    +0.000 N 
ATOM      9  C   UNL     1       3.058   5.392  18.369  0.00  0.00    +0.000 C 
ATOM     10  O   UNL     1       2.344   4.744  17.609  0.00  0.00    +0.000 OA
ATOM     11  O   UNL     1       6.638   5.792  16.608  0.00  0.00    +0.000 OA
ENDROOT
BRANCH   9  12
ATOM     12  C   UNL     1       2.388   6.447  19.177  0.00  0.00    +0.000 A 
ATOM     13  C   UNL     1       2.291   7.765  18.727  0.00  0.00    +0.000 A 
ATOM     14  C   UNL     1       1.633   8.700  19.515  0.00  0.00    +0.000 A 
ATOM     15  N   UNL     1       1.143   8.427  20.735  0.00  0.00    +0.000 NA
ATOM     16  C   UNL     1       1.315   7.167  21.192  0.00  0.00    +0.000 A 
ATOM     17  C   UNL     1       1.917   6.152  20.453  0.00  0.00    +0.000 A 
ATOM     18  F   UNL     1       2.019   4.933  21.001  0.00  0.00    +0.000 F 
ENDBRANCH   9  12
BRANCH   1  19
ATOM     19  C   UNL     1       7.239   4.551  14.569  0.00  0.00    +0.000 C 
BRANCH  19  20
ATOM     20  O   UNL     1       8.038   5.390  13.734  0.00  0.00    +0.000 OA
BRANCH  20  22
ATOM     21  C   UNL     1       6.981   3.921  12.181  0.00  0.00    +0.000 C 
ATOM     22  C   UNL     1       7.734   5.226  12.353  0.00  0.00    +0.000 C 
ENDBRANCH  20  22
ENDBRANCH  19  20
ENDBRANCH   1  19
TORSDOF 4
ENDMDL
MODEL 7
REMARK VINA RESULT:      -6.2      1.117      1.163
REMARK  Name = 
REMARK  5 active torsions:
REMARK  status: ('A' for Active; 'I' for Inactive)
REMARK    1  A    between atoms: C_1  and  C_2
REMARK    2  A    between atoms: C_2  and  O_3
REMARK    3  A    between atoms: O_3  and  C_4
REMARK    4  A    between atoms: C_4  and  C_5
REMARK    5  A    between atoms: C_13  and  C_15
REMARK                            x       y       z     vdW  Elec       q    Type
REMARK                         _______ _______ _______ _____ _____    ______ ____
ROOT
ATOM      1  C   UNL     1       6.009   4.513  14.989  0.00  0.00    +0.000 C 
ATOM      2  C   UNL     1       6.613   3.832  16.222  0.00  0.00    +0.000 C 
ATOM      3  C   UNL     1       7.095   4.841  17.254  0.00  0.00    +0.000 C 
ATOM      4  C   UNL     1       6.011   5.852  17.603  0.00  0.00    +0.000 C 
ATOM      5  C   UNL     1       5.453   6.471  16.305  0.00  0.00    +0.000 C 
ATOM      6  C   UNL     1       4.197   7.186  16.783  0.00  0.00    +0.000 C 
ATOM      7  C   UNL     1       3.703   6.326  17.939  0.00  0.00    +0.000 C 
ATOM      8  N   UNL     1       4.791   5.422  18.305  0.00  0.00    +0.000 N 
ATOM      9  C   UNL     1       4.720   4.329  19.176  0.00  0.00    +0.000 C 
ATOM     10  O   UNL     1       5.684   3.611  19.421  0.00  0.00    +0.000 OA
ATOM     11  O   UNL     1       5.028   5.493  15.351  0.00  0.00    +0.000 OA
ENDROOT
BRANCH   9  12
ATOM     12  C   UNL     1       3.442   3.987  19.858  0.00  0.00    +0.000 A 
ATOM     13  C   UNL     1       2.341   4.845  19.826  0.00  0.00    +0.000 A 
ATOM     14  C   UNL     1       1.168   4.460  20.461  0.00  0.00    +0.000 A 
ATOM     15  N   UNL     1       1.049   3.330  21.177  0.00  0.00    +0.000 NA
ATOM     16  C   UNL     1       2.148   2.548  21.266  0.00  0.00    +0.000 A 
ATOM     17  C   UNL     1       3.350   2.828  20.623  0.00  0.00    +0.000 A 
ATOM     18  F   UNL     1       4.370   1.972  20.769  0.00  0.00    +0.000 F 
ENDBRANCH   9  12
BRANCH   1  19
ATOM     19  C   UNL     1       7.057   5.083  14.019  0.00  0.00    +0.000 C 
BRANCH  19  20
ATOM     20  O   UNL     1       6.846   4.534  12.717  0.00  0.00    +0.000 OA
BRANCH  20  22
ATOM     21  C   UNL     1       4.995   3.352  11.786  0.00  0.00    +0.000 C 
ATOM     22  C   UNL     1       6.157   3.289  12.758  0.00  0.00    +0.000 C 
ENDBRANCH  20  22
ENDBRANCH  19  20
ENDBRANCH   1  19
TORSDOF 4
ENDMDL
MODEL 8
REMARK VINA RESULT:      -6.1      3.521      4.742
REMARK  Name = 
REMARK  5 active torsions:
REMARK  status: ('A' for Active; 'I' for Inactive)
REMARK    1  A    between atoms: C_1  and  C_2
REMARK    2  A    between atoms: C_2  and  O_3
REMARK    3  A    between atoms: O_3  and  C_4
REMARK    4  A    between atoms: C_4  and  C_5
REMARK    5  A    between atoms: C_13  and  C_15
REMARK                            x       y       z     vdW  Elec       q    Type
REMARK                         _______ _______ _______ _____ _____    ______ ____
ROOT
ATOM      1  C   UNL     1       6.314   5.842  18.466  0.00  0.00    +0.000 C 
ATOM      2  C   UNL     1       5.688   6.848  17.493  0.00  0.00    +0.000 C 
ATOM      3  C   UNL     1       4.511   6.254  16.734  0.00  0.00    +0.000 C 
ATOM      4  C   UNL     1       3.493   5.624  17.676  0.00  0.00    +0.000 C 
ATOM      5  C   UNL     1       4.214   4.642  18.623  0.00  0.00    +0.000 C 
ATOM      6  C   UNL     1       3.158   4.357  19.682  0.00  0.00    +0.000 C 
ATOM      7  C   UNL     1       2.369   5.657  19.773  0.00  0.00    +0.000 C 
ATOM      8  N   UNL     1       2.722   6.463  18.607  0.00  0.00    +0.000 N 
ATOM      9  C   UNL     1       2.393   7.804  18.380  0.00  0.00    +0.000 C 
ATOM     10  O   UNL     1       2.741   8.413  17.373  0.00  0.00    +0.000 OA
ATOM     11  O   UNL     1       5.327   5.231  19.304  0.00  0.00    +0.000 OA
ENDROOT
BRANCH   9  12
ATOM     12  C   UNL     1       1.588   8.564  19.375  0.00  0.00    +0.000 A 
ATOM     13  C   UNL     1       1.681   8.307  20.744  0.00  0.00    +0.000 A 
ATOM     14  C   UNL     1       0.921   9.066  21.625  0.00  0.00    +0.000 A 
ATOM     15  N   UNL     1       0.035   9.994  21.230  0.00  0.00    +0.000 NA
ATOM     16  C   UNL     1      -0.103  10.175  19.898  0.00  0.00    +0.000 A 
ATOM     17  C   UNL     1       0.650   9.498  18.943  0.00  0.00    +0.000 A 
ATOM     18  F   UNL     1       0.440   9.770  17.648  0.00  0.00    +0.000 F 
ENDBRANCH   9  12
BRANCH   1  19
ATOM     19  C   UNL     1       7.214   4.798  17.785  0.00  0.00    +0.000 C 
BRANCH  19  20
ATOM     20  O   UNL     1       7.412   5.161  16.417  0.00  0.00    +0.000 OA
BRANCH  20  22
ATOM     21  C   UNL     1       6.878   4.760  14.127  0.00  0.00    +0.000 C 
ATOM     22  C   UNL     1       6.946   4.160  15.518  0.00  0.00    +0.000 C 
ENDBRANCH  20  22
ENDBRANCH  19  20
ENDBRANCH   1  19
TORSDOF 4
ENDMDL
MODEL 9
REMARK VINA RESULT:      -5.8      2.251      6.758
REMARK  Name = 
REMARK  5 active torsions:
REMARK  status: ('A' for Active; 'I' for Inactive)
REMARK    1  A    between atoms: C_1  and  C_2
REMARK    2  A    between atoms: C_2  and  O_3
REMARK    3  A    between atoms: O_3  and  C_4
REMARK    4  A    between atoms: C_4  and  C_5
REMARK    5  A    between atoms: C_13  and  C_15
REMARK                            x       y       z     vdW  Elec       q    Type
REMARK                         _______ _______ _______ _____ _____    ______ ____
ROOT
ATOM      1  C   UNL     1       3.503   4.577  18.904  0.00  0.00    +0.000 C 
ATOM      2  C   UNL     1       3.245   5.673  17.862  0.00  0.00    +0.000 C 
ATOM      3  C   UNL     1       4.283   6.782  17.930  0.00  0.00    +0.000 C 
ATOM      4  C   UNL     1       5.702   6.230  17.876  0.00  0.00    +0.000 C 
ATOM      5  C   UNL     1       5.862   5.129  18.943  0.00  0.00    +0.000 C 
ATOM      6  C   UNL     1       7.178   4.470  18.555  0.00  0.00    +0.000 C 
ATOM      7  C   UNL     1       7.221   4.601  17.038  0.00  0.00    +0.000 C 
ATOM      8  N   UNL     1       6.198   5.573  16.656  0.00  0.00    +0.000 N 
ATOM      9  C   UNL     1       5.749   5.858  15.362  0.00  0.00    +0.000 C 
ATOM     10  O   UNL     1       4.873   6.686  15.130  0.00  0.00    +0.000 OA
ATOM     11  O   UNL     1       4.857   4.113  18.861  0.00  0.00    +0.000 OA
ENDROOT
BRANCH   9  12
ATOM     12  C   UNL     1       6.331   5.153  14.187  0.00  0.00    +0.000 A 
ATOM     13  C   UNL     1       7.511   5.588  13.582  0.00  0.00    +0.000 A 
ATOM     14  C   UNL     1       8.017   4.875  12.503  0.00  0.00    +0.000 A 
ATOM     15  N   UNL     1       7.392   3.822  11.952  0.00  0.00    +0.000 NA
ATOM     16  C   UNL     1       6.209   3.462  12.498  0.00  0.00    +0.000 A 
ATOM     17  C   UNL     1       5.650   4.086  13.609  0.00  0.00    +0.000 A 
ATOM     18  F   UNL     1       4.478   3.633  14.076  0.00  0.00    +0.000 F 
ENDBRANCH   9  12
BRANCH   1  19
ATOM     19  C   UNL     1       3.073   4.962  20.328  0.00  0.00    +0.000 C 
BRANCH  19  20
ATOM     20  O   UNL     1       1.648   5.026  20.394  0.00  0.00    +0.000 OA
BRANCH  20  22
ATOM     21  C   UNL     1       1.462   2.917  21.493  0.00  0.00    +0.000 C 
ATOM     22  C   UNL     1       1.043   3.741  20.291  0.00  0.00    +0.000 C 
ENDBRANCH  20  22
ENDBRANCH  19  20
ENDBRANCH   1  19
TORSDOF 4
ENDMDL
