MODEL 1
REMARK VINA RESULT:      -8.2      0.000      0.000
REMARK  Name = 
REMARK  8 active torsions:
REMARK  status: ('A' for Active; 'I' for Inactive)
REMARK    1  A    between atoms: C_1  and  N_2
REMARK    2  A    between atoms: N_2  and  C_3
REMARK    3  A    between atoms: N_2  and  C_4
REMARK    4  A    between atoms: C_4  and  C_5
REMARK    5  A    between atoms: C_8  and  N_9
REMARK    6  A    between atoms: C_11  and  C_12
REMARK    7  A    between atoms: N_16  and  C_17
REMARK    8  A    between atoms: C_25  and  C_26
REMARK                            x       y       z     vdW  Elec       q    Type
REMARK                         _______ _______ _______ _____ _____    ______ ____
ROOT
ATOM      1  N   UNL     1       2.251   7.142  19.882  0.00  0.00    +0.000 N 
ATOM      2  C   UNL     1       1.456   6.286  20.593  0.00  0.00    +0.000 A 
ATOM      3  C   UNL     1       2.043   5.039  20.503  0.00  0.00    +0.000 A 
ATOM      4  C   UNL     1       3.226   5.253  19.751  0.00  0.00    +0.000 A 
ATOM      5  N   UNL     1       4.108   4.276  19.421  0.00  0.00    +0.000 N 
ATOM      6  N   UNL     1       3.328   6.538  19.379  0.00  0.00    +0.000 NA
ATOM      7  H   UNL     1       4.082   3.392  19.927  0.00  0.00    +0.000 HD
ENDROOT
BRANCH   5   8
ATOM      8  C   UNL     1       4.978   4.270  18.307  0.00  0.00    +0.000 A 
ATOM      9  C   UNL     1       6.318   4.645  18.456  0.00  0.00    +0.000 A 
ATOM     10  C   UNL     1       7.157   4.723  17.340  0.00  0.00    +0.000 A 
ATOM     11  C   UNL     1       6.661   4.425  16.077  0.00  0.00    +0.000 A 
ATOM     12  F   UNL     1       7.460   4.518  15.009  0.00  0.00    +0.000 F 
ATOM     13  C   UNL     1       5.334   4.062  15.900  0.00  0.00    +0.000 A 
ATOM     14  C   UNL     1       4.499   3.998  17.013  0.00  0.00    +0.000 A 
ENDBRANCH   5   8
BRANCH   1  18
ATOM     15  C   UNL     1       0.127  10.784  18.863  0.00  0.00    +0.000 C 
ATOM     16  C   UNL     1       1.012  10.152  17.783  0.00  0.00    +0.000 C 
ATOM     17  C   UNL     1       1.581   8.781  18.117  0.00  0.00    +0.000 C 
ATOM     18  C   UNL     1       2.048   8.561  19.568  0.00  0.00    +0.000 C 
ATOM     19  C   UNL     1       1.304   9.334  20.673  0.00  0.00    +0.000 C 
ATOM     20  C   UNL     1       0.841  10.727  20.222  0.00  0.00    +0.000 C 
BRANCH  19  21
ATOM     21  C   UNL     1       0.205   8.573  21.291  0.00  0.00    +0.000 C 
ATOM     22  N   UNL     1      -0.655   7.985  21.809  0.00  0.00    +0.000 NA
ENDBRANCH  19  21
BRANCH  15  23
ATOM     23  C   UNL     1      -1.324  10.231  18.859  0.00  0.00    +0.000 C 
BRANCH  23  25
ATOM     24  C   UNL     1      -2.680   9.835  16.848  0.00  0.00    +0.000 C 
ATOM     25  N   UNL     1      -2.177  10.817  17.810  0.00  0.00    +0.000 NA
ATOM     26  C   UNL     1      -3.308  11.539  18.408  0.00  0.00    +0.000 C 
ENDBRANCH  23  25
ENDBRANCH  15  23
ENDBRANCH   1  18
BRANCH   3  27
ATOM     27  C   UNL     1       1.536   3.791  21.041  0.00  0.00    +0.000 C 
ATOM     28  N   UNL     1       0.489   3.241  20.346  0.00  0.00    +0.000 N 
ATOM     29  O   UNL     1       2.026   3.214  21.998  0.00  0.00    +0.000 OA
ATOM     30  H   UNL     1       0.272   3.544  19.407  0.00  0.00    +0.000 HD
ATOM     31  H   UNL     1       0.208   2.303  20.617  0.00  0.00    +0.000 HD
ENDBRANCH   3  27
TORSDOF 6
ENDMDL
MODEL 2
REMARK VINA RESULT:      -7.6      0.781      1.333
REMARK  Name = 
REMARK  8 active torsions:
REMARK  status: ('A' for Active; 'I' for Inactive)
REMARK    1  A    between atoms: C_1  and  N_2
REMARK    2  A    between atoms: N_2  and  C_3
REMARK    3  A    between atoms: N_2  and  C_4
REMARK    4  A    between atoms: C_4  and  C_5
REMARK    5  A    between atoms: C_8  and  N_9
REMARK    6  A    between atoms: C_11  and  C_12
REMARK    7  A    between atoms: N_16  and  C_17
REMARK    8  A    between atoms: C_25  and  C_26
REMARK                            x       y       z     vdW  Elec       q    Type
REMARK                         _______ _______ _______ _____ _____    ______ ____
ROOT
ATOM      1  N   UNL     1       2.263   7.165  19.884  0.00  0.00    +0.000 N 
ATOM      2  C   UNL     1       1.485   6.266  20.560  0.00  0.00    +0.000 A 
ATOM      3  C   UNL     1       2.071   5.028  20.383  0.00  0.00    +0.000 A 
ATOM      4  C   UNL     1       3.237   5.291  19.619  0.00  0.00    +0.000 A 
ATOM      5  N   UNL     1       4.113   4.338  19.212  0.00  0.00    +0.000 N 
ATOM      6  N   UNL     1       3.329   6.596  19.323  0.00  0.00    +0.000 NA
ATOM      7  H   UNL     1       4.100   3.424  19.664  0.00  0.00    +0.000 HD
ENDROOT
BRANCH   5   8
ATOM      8  C   UNL     1       4.959   4.401  18.081  0.00  0.00    +0.000 A 
ATOM      9  C   UNL     1       4.462   4.093  16.809  0.00  0.00    +0.000 A 
ATOM     10  C   UNL     1       5.318   4.071  15.704  0.00  0.00    +0.000 A 
ATOM     11  C   UNL     1       6.667   4.359  15.866  0.00  0.00    +0.000 A 
ATOM     12  F   UNL     1       7.488   4.319  14.810  0.00  0.00    +0.000 F 
ATOM     13  C   UNL     1       7.188   4.656  17.116  0.00  0.00    +0.000 A 
ATOM     14  C   UNL     1       6.334   4.665  18.217  0.00  0.00    +0.000 A 
ENDBRANCH   5   8
BRANCH   1  18
ATOM     15  C   UNL     1       0.114  10.851  19.101  0.00  0.00    +0.000 C 
ATOM     16  C   UNL     1       1.000  10.293  17.982  0.00  0.00    +0.000 C 
ATOM     17  C   UNL     1       1.577   8.908  18.228  0.00  0.00    +0.000 C 
ATOM     18  C   UNL     1       2.051   8.599  19.661  0.00  0.00    +0.000 C 
ATOM     19  C   UNL     1       1.305   9.298  20.814  0.00  0.00    +0.000 C 
ATOM     20  C   UNL     1       0.832  10.713  20.452  0.00  0.00    +0.000 C 
BRANCH  19  21
ATOM     21  C   UNL     1       0.212   8.493  21.386  0.00  0.00    +0.000 C 
ATOM     22  N   UNL     1      -0.666   7.886  21.848  0.00  0.00    +0.000 NA
ENDBRANCH  19  21
BRANCH  15  23
ATOM     23  C   UNL     1      -1.333  10.291  19.067  0.00  0.00    +0.000 C 
BRANCH  23  25
ATOM     24  C   UNL     1      -1.837  12.692  18.910  0.00  0.00    +0.000 C 
ATOM     25  N   UNL     1      -2.363  11.327  18.871  0.00  0.00    +0.000 NA
ATOM     26  C   UNL     1      -3.075  11.114  17.603  0.00  0.00    +0.000 C 
ENDBRANCH  23  25
ENDBRANCH  15  23
ENDBRANCH   1  18
BRANCH   3  27
ATOM     27  C   UNL     1       1.578   3.749  20.855  0.00  0.00    +0.000 C 
ATOM     28  N   UNL     1       2.142   3.302  22.023  0.00  0.00    +0.000 N 
ATOM     29  O   UNL     1       0.680   3.124  20.313  0.00  0.00    +0.000 OA
ATOM     30  H   UNL     1       2.657   3.930  22.624  0.00  0.00    +0.000 HD
ATOM     31  H   UNL     1       1.718   2.483  22.446  0.00  0.00    +0.000 HD
ENDBRANCH   3  27
TORSDOF 6
ENDMDL
MODEL 3
REMARK VINA RESULT:      -7.2      3.979      6.781
REMARK  Name = 
REMARK  8 active torsions:
REMARK  status: ('A' for Active; 'I' for Inactive)
REMARK    1  A    between atoms: C_1  and  N_2
REMARK    2  A    between atoms: N_2  and  C_3
REMARK    3  A    between atoms: N_2  and  C_4
REMARK    4  A    between atoms: C_4  and  C_5
REMARK    5  A    between atoms: C_8  and  N_9
REMARK    6  A    between atoms: C_11  and  C_12
REMARK    7  A    between atoms: N_16  and  C_17
REMARK    8  A    between atoms: C_25  and  C_26
REMARK                            x       y       z     vdW  Elec       q    Type
REMARK                         _______ _______ _______ _____ _____    ______ ____
ROOT
ATOM      1  N   UNL     1      -1.460  11.367  18.791  0.00  0.00    +0.000 N 
ATOM      2  C   UNL     1      -0.783  12.549  18.676  0.00  0.00    +0.000 A 
ATOM      3  C   UNL     1       0.553  12.226  18.540  0.00  0.00    +0.000 A 
ATOM      4  C   UNL     1       0.578  10.808  18.535  0.00  0.00    +0.000 A 
ATOM      5  N   UNL     1       1.709  10.065  18.426  0.00  0.00    +0.000 N 
ATOM      6  N   UNL     1      -0.656  10.308  18.694  0.00  0.00    +0.000 NA
ATOM      7  H   UNL     1       2.562  10.506  18.081  0.00  0.00    +0.000 HD
ENDROOT
BRANCH   5   8
ATOM      8  C   UNL     1       1.902   8.750  18.909  0.00  0.00    +0.000 A 
ATOM      9  C   UNL     1       2.339   7.738  18.046  0.00  0.00    +0.000 A 
ATOM     10  C   UNL     1       2.446   6.421  18.503  0.00  0.00    +0.000 A 
ATOM     11  C   UNL     1       2.121   6.114  19.818  0.00  0.00    +0.000 A 
ATOM     12  F   UNL     1       2.207   4.850  20.247  0.00  0.00    +0.000 F 
ATOM     13  C   UNL     1       1.675   7.095  20.690  0.00  0.00    +0.000 A 
ATOM     14  C   UNL     1       1.558   8.404  20.228  0.00  0.00    +0.000 A 
ENDBRANCH   5   8
BRANCH   1  18
ATOM     15  C   UNL     1      -5.758  11.743  18.350  0.00  0.00    +0.000 C 
ATOM     16  C   UNL     1      -5.115  12.360  19.597  0.00  0.00    +0.000 C 
ATOM     17  C   UNL     1      -3.594  12.374  19.615  0.00  0.00    +0.000 C 
ATOM     18  C   UNL     1      -2.884  11.129  19.051  0.00  0.00    +0.000 C 
ATOM     19  C   UNL     1      -3.596  10.363  17.920  0.00  0.00    +0.000 C 
ATOM     20  C   UNL     1      -5.126  10.374  18.060  0.00  0.00    +0.000 C 
BRANCH  19  21
ATOM     21  C   UNL     1      -3.174  10.773  16.570  0.00  0.00    +0.000 C 
ATOM     22  N   UNL     1      -2.808  11.087  15.511  0.00  0.00    +0.000 NA
ENDBRANCH  19  21
BRANCH  15  23
ATOM     23  C   UNL     1      -5.799  12.717  17.143  0.00  0.00    +0.000 C 
BRANCH  23  25
ATOM     24  C   UNL     1      -7.916  13.423  18.173  0.00  0.00    +0.000 C 
ATOM     25  N   UNL     1      -7.106  13.373  16.955  0.00  0.00    +0.000 NA
ATOM     26  C   UNL     1      -6.931  14.733  16.428  0.00  0.00    +0.000 C 
ENDBRANCH  23  25
ENDBRANCH  15  23
ENDBRANCH   1  18
BRANCH   3  27
ATOM     27  C   UNL     1       1.673  13.143  18.452  0.00  0.00    +0.000 C 
ATOM     28  N   UNL     1       1.466  14.372  19.026  0.00  0.00    +0.000 N 
ATOM     29  O   UNL     1       2.755  12.850  17.969  0.00  0.00    +0.000 OA
ATOM     30  H   UNL     1       0.704  14.521  19.673  0.00  0.00    +0.000 HD
ATOM     31  H   UNL     1       2.277  14.978  19.101  0.00  0.00    +0.000 HD
ENDBRANCH   3  27
TORSDOF 6
ENDMDL
MODEL 4
REMARK VINA RESULT:      -7.1      1.092      1.407
REMARK  Name = 
REMARK  8 active torsions:
REMARK  status: ('A' for Active; 'I' for Inactive)
REMARK    1  A    between atoms: C_1  and  N_2
REMARK    2  A    between atoms: N_2  and  C_3
REMARK    3  A    between atoms: N_2  and  C_4
REMARK    4  A    between atoms: C_4  and  C_5
REMARK    5  A    between atoms: C_8  and  N_9
REMARK    6  A    between atoms: C_11  and  C_12
REMARK    7  A    between atoms: N_16  and  C_17
REMARK    8  A    between atoms: C_25  and  C_26
REMARK                            x       y       z     vdW  Elec       q    Type
REMARK                         _______ _______ _______ _____ _____    ______ ____
ROOT
ATOM      1  N   UNL     1       2.168   7.289  19.562  0.00  0.00    +0.000 N 
ATOM      2  C   UNL     1       1.425   6.464  20.360  0.00  0.00    +0.000 A 
ATOM      3  C   UNL     1       2.089   5.253  20.400  0.00  0.00    +0.000 A 
ATOM      4  C   UNL     1       3.259   5.462  19.627  0.00  0.00    +0.000 A 
ATOM      5  N   UNL     1       4.202   4.513  19.398  0.00  0.00    +0.000 N 
ATOM      6  N   UNL     1       3.283   6.705  19.123  0.00  0.00    +0.000 NA
ATOM      7  H   UNL     1       4.229   3.686  19.994  0.00  0.00    +0.000 HD
ENDROOT
BRANCH   5   8
ATOM      8  C   UNL     1       5.077   4.446  18.289  0.00  0.00    +0.000 A 
ATOM      9  C   UNL     1       6.413   4.839  18.419  0.00  0.00    +0.000 A 
ATOM     10  C   UNL     1       7.255   4.855  17.302  0.00  0.00    +0.000 A 
ATOM     11  C   UNL     1       6.765   4.477  16.059  0.00  0.00    +0.000 A 
ATOM     12  F   UNL     1       7.567   4.511  14.989  0.00  0.00    +0.000 F 
ATOM     13  C   UNL     1       5.442   4.094  15.900  0.00  0.00    +0.000 A 
ATOM     14  C   UNL     1       4.603   4.091  17.013  0.00  0.00    +0.000 A 
ENDBRANCH   5   8
BRANCH   1  18
ATOM     15  C   UNL     1      -0.058  10.969  19.007  0.00  0.00    +0.000 C 
ATOM     16  C   UNL     1       0.119  10.056  17.790  0.00  0.00    +0.000 C 
ATOM     17  C   UNL     1       0.735   8.694  18.073  0.00  0.00    +0.000 C 
ATOM     18  C   UNL     1       1.878   8.652  19.104  0.00  0.00    +0.000 C 
ATOM     19  C   UNL     1       1.839   9.689  20.242  0.00  0.00    +0.000 C 
ATOM     20  C   UNL     1       1.254  11.039  19.803  0.00  0.00    +0.000 C 
BRANCH  19  21
ATOM     21  C   UNL     1       1.194   9.194  21.471  0.00  0.00    +0.000 C 
ATOM     22  N   UNL     1       0.653   8.811  22.427  0.00  0.00    +0.000 NA
ENDBRANCH  19  21
BRANCH  15  23
ATOM     23  C   UNL     1      -1.318  10.626  19.846  0.00  0.00    +0.000 C 
BRANCH  23  25
ATOM     24  C   UNL     1      -1.540  11.978  21.886  0.00  0.00    +0.000 C 
ATOM     25  N   UNL     1      -1.938  11.798  20.489  0.00  0.00    +0.000 NA
ATOM     26  C   UNL     1      -1.638  13.021  19.734  0.00  0.00    +0.000 C 
ENDBRANCH  23  25
ENDBRANCH  15  23
ENDBRANCH   1  18
BRANCH   3  27
ATOM     27  C   UNL     1       1.658   4.038  21.065  0.00  0.00    +0.000 C 
ATOM     28  N   UNL     1       0.586   3.407  20.488  0.00  0.00    +0.000 N 
ATOM     29  O   UNL     1       2.229   3.551  22.028  0.00  0.00    +0.000 OA
ATOM     30  H   UNL     1       0.298   3.629  19.545  0.00  0.00    +0.000 HD
ATOM     31  H   UNL     1       0.354   2.487  20.849  0.00  0.00    +0.000 HD
ENDBRANCH   3  27
TORSDOF 6
ENDMDL
MODEL 5
REMARK VINA RESULT:      -7.1      1.605      2.126
REMARK  Name = 
REMARK  8 active torsions:
REMARK  status: ('A' for Active; 'I' for Inactive)
REMARK    1  A    between atoms: C_1  and  N_2
REMARK    2  A    between atoms: N_2  and  C_3
REMARK    3  A    between atoms: N_2  and  C_4
REMARK    4  A    between atoms: C_4  and  C_5
REMARK    5  A    between atoms: C_8  and  N_9
REMARK    6  A    between atoms: C_11  and  C_12
REMARK    7  A    between atoms: N_16  and  C_17
REMARK    8  A    between atoms: C_25  and  C_26
REMARK                            x       y       z     vdW  Elec       q    Type
REMARK                         _______ _______ _______ _____ _____    ______ ____
ROOT
ATOM      1  N   UNL     1       1.877   7.850  19.534  0.00  0.00    +0.000 N 
ATOM      2  C   UNL     1       1.236   6.936  20.324  0.00  0.00    +0.000 A 
ATOM      3  C   UNL     1       1.981   5.775  20.265  0.00  0.00    +0.000 A 
ATOM      4  C   UNL     1       3.091   6.103  19.446  0.00  0.00    +0.000 A 
ATOM      5  N   UNL     1       4.082   5.236  19.120  0.00  0.00    +0.000 N 
ATOM      6  N   UNL     1       3.003   7.368  19.009  0.00  0.00    +0.000 NA
ATOM      7  H   UNL     1       4.197   4.384  19.669  0.00  0.00    +0.000 HD
ENDROOT
BRANCH   5   8
ATOM      8  C   UNL     1       4.898   5.285  17.966  0.00  0.00    +0.000 A 
ATOM      9  C   UNL     1       4.511   4.615  16.800  0.00  0.00    +0.000 A 
ATOM     10  C   UNL     1       5.358   4.592  15.687  0.00  0.00    +0.000 A 
ATOM     11  C   UNL     1       6.587   5.236  15.737  0.00  0.00    +0.000 A 
ATOM     12  F   UNL     1       7.403   5.196  14.678  0.00  0.00    +0.000 F 
ATOM     13  C   UNL     1       7.000   5.897  16.884  0.00  0.00    +0.000 A 
ATOM     14  C   UNL     1       6.158   5.908  17.995  0.00  0.00    +0.000 A 
ENDBRANCH   5   8
BRANCH   1  18
ATOM     15  C   UNL     1      -0.473  11.495  19.521  0.00  0.00    +0.000 C 
ATOM     16  C   UNL     1      -0.558  10.591  18.286  0.00  0.00    +0.000 C 
ATOM     17  C   UNL     1       0.126   9.239  18.413  0.00  0.00    +0.000 C 
ATOM     18  C   UNL     1       1.471   9.210  19.163  0.00  0.00    +0.000 C 
ATOM     19  C   UNL     1       1.671  10.241  20.291  0.00  0.00    +0.000 C 
ATOM     20  C   UNL     1       0.982  11.583  20.005  0.00  0.00    +0.000 C 
BRANCH  19  21
ATOM     21  C   UNL     1       1.323   9.729  21.628  0.00  0.00    +0.000 C 
ATOM     22  N   UNL     1       1.025   9.350  22.687  0.00  0.00    +0.000 NA
ENDBRANCH  19  21
BRANCH  15  23
ATOM     23  C   UNL     1      -1.509  11.126  20.616  0.00  0.00    +0.000 C 
BRANCH  23  25
ATOM     24  C   UNL     1      -3.055  12.877  21.380  0.00  0.00    +0.000 C 
ATOM     25  N   UNL     1      -1.766  12.213  21.578  0.00  0.00    +0.000 NA
ATOM     26  C   UNL     1      -1.679  11.715  22.957  0.00  0.00    +0.000 C 
ENDBRANCH  23  25
ENDBRANCH  15  23
ENDBRANCH   1  18
BRANCH   3  27
ATOM     27  C   UNL     1       1.670   4.502  20.886  0.00  0.00    +0.000 C 
ATOM     28  N   UNL     1       0.577   3.853  20.369  0.00  0.00    +0.000 N 
ATOM     29  O   UNL     1       2.350   3.987  21.759  0.00  0.00    +0.000 OA
ATOM     30  H   UNL     1       0.192   4.117  19.474  0.00  0.00    +0.000 HD
ATOM     31  H   UNL     1       0.422   2.902  20.690  0.00  0.00    +0.000 HD
ENDBRANCH   3  27
TORSDOF 6
ENDMDL
MODEL 6
REMARK VINA RESULT:      -7.0      4.052      6.347
REMARK  Name = 
REMARK  8 active torsions:
REMARK  status: ('A' for Active; 'I' for Inactive)
REMARK    1  A    between atoms: C_1  and  N_2
REMARK    2  A    between atoms: N_2  and  C_3
REMARK    3  A    between atoms: N_2  and  C_4
REMARK    4  A    between atoms: C_4  and  C_5
REMARK    5  A    between atoms: C_8  and  N_9
REMARK    6  A    between atoms: C_11  and  C_12
REMARK    7  A    between atoms: N_16  and  C_17
REMARK    8  A    between atoms: C_25  and  C_26
REMARK                            x       y       z     vdW  Elec       q    Type
REMARK                         _______ _______ _______ _____ _____    ______ ____
ROOT
ATOM      1  N   UNL     1       4.523   4.282  17.587  0.00  0.00    +0.000 N 
ATOM      2  C   UNL     1       5.277   4.747  18.628  0.00  0.00    +0.000 A 
ATOM      3  C   UNL     1       6.393   5.341  18.070  0.00  0.00    +0.000 A 
ATOM      4  C   UNL     1       6.196   5.226  16.670  0.00  0.00    +0.000 A 
ATOM      5  N   UNL     1       7.070   5.682  15.737  0.00  0.00    +0.000 N 
ATOM      6  N   UNL     1       5.056   4.574  16.400  0.00  0.00    +0.000 NA
ATOM      7  H   UNL     1       7.782   6.358  16.012  0.00  0.00    +0.000 HD
ENDROOT
BRANCH   5   8
ATOM      8  C   UNL     1       7.229   5.188  14.422  0.00  0.00    +0.000 A 
ATOM      9  C   UNL     1       8.079   5.841  13.521  0.00  0.00    +0.000 A 
ATOM     10  C   UNL     1       8.169   5.404  12.195  0.00  0.00    +0.000 A 
ATOM     11  C   UNL     1       7.416   4.318  11.770  0.00  0.00    +0.000 A 
ATOM     12  F   UNL     1       7.491   3.915  10.497  0.00  0.00    +0.000 F 
ATOM     13  C   UNL     1       6.558   3.661  12.639  0.00  0.00    +0.000 A 
ATOM     14  C   UNL     1       6.461   4.106  13.955  0.00  0.00    +0.000 A 
ENDBRANCH   5   8
BRANCH   1  18
ATOM     15  C   UNL     1       0.799   2.659  19.110  0.00  0.00    +0.000 C 
ATOM     16  C   UNL     1       2.002   1.714  19.021  0.00  0.00    +0.000 C 
ATOM     17  C   UNL     1       3.329   2.369  18.668  0.00  0.00    +0.000 C 
ATOM     18  C   UNL     1       3.288   3.489  17.610  0.00  0.00    +0.000 C 
ATOM     19  C   UNL     1       2.007   4.342  17.537  0.00  0.00    +0.000 C 
ATOM     20  C   UNL     1       0.736   3.542  17.854  0.00  0.00    +0.000 C 
BRANCH  19  21
ATOM     21  C   UNL     1       2.077   5.582  18.328  0.00  0.00    +0.000 C 
ATOM     22  N   UNL     1       2.166   6.557  18.957  0.00  0.00    +0.000 NA
ENDBRANCH  19  21
BRANCH  15  23
ATOM     23  C   UNL     1       0.727   3.427  20.456  0.00  0.00    +0.000 C 
BRANCH  23  25
ATOM     24  C   UNL     1       2.551   4.384  21.797  0.00  0.00    +0.000 C 
ATOM     25  N   UNL     1       1.872   3.168  21.347  0.00  0.00    +0.000 NA
ATOM     26  C   UNL     1       1.451   2.383  22.515  0.00  0.00    +0.000 C 
ENDBRANCH  23  25
ENDBRANCH  15  23
ENDBRANCH   1  18
BRANCH   3  27
ATOM     27  C   UNL     1       7.519   5.923  18.773  0.00  0.00    +0.000 C 
ATOM     28  N   UNL     1       7.947   5.220  19.871  0.00  0.00    +0.000 N 
ATOM     29  O   UNL     1       8.108   6.926  18.402  0.00  0.00    +0.000 OA
ATOM     30  H   UNL     1       7.669   4.260  20.013  0.00  0.00    +0.000 HD
ATOM     31  H   UNL     1       8.816   5.529  20.295  0.00  0.00    +0.000 HD
ENDBRANCH   3  27
TORSDOF 6
ENDMDL
MODEL 7
REMARK VINA RESULT:      -6.9      3.096      7.325
REMARK  Name = 
REMARK  8 active torsions:
REMARK  status: ('A' for Active; 'I' for Inactive)
REMARK    1  A    between atoms: C_1  and  N_2
REMARK    2  A    between atoms: N_2  and  C_3
REMARK    3  A    between atoms: N_2  and  C_4
REMARK    4  A    between atoms: C_4  and  C_5
REMARK    5  A    between atoms: C_8  and  N_9
REMARK    6  A    between atoms: C_11  and  C_12
REMARK    7  A    between atoms: N_16  and  C_17
REMARK    8  A    between atoms: C_25  and  C_26
REMARK                            x       y       z     vdW  Elec       q    Type
REMARK                         _______ _______ _______ _____ _____    ______ ____
ROOT
ATOM      1  N   UNL     1       4.285   5.246  19.383  0.00  0.00    +0.000 N 
ATOM      2  C   UNL     1       3.783   4.088  19.907  0.00  0.00    +0.000 A 
ATOM      3  C   UNL     1       2.544   4.399  20.433  0.00  0.00    +0.000 A 
ATOM      4  C   UNL     1       2.363   5.773  20.131  0.00  0.00    +0.000 A 
ATOM      5  N   UNL     1       1.266   6.492  20.478  0.00  0.00    +0.000 N 
ATOM      6  N   UNL     1       3.437   6.268  19.498  0.00  0.00    +0.000 NA
ATOM      7  H   UNL     1       0.413   6.001  20.744  0.00  0.00    +0.000 HD
ENDROOT
BRANCH   5   8
ATOM      8  C   UNL     1       1.207   7.889  20.688  0.00  0.00    +0.000 A 
ATOM      9  C   UNL     1       1.014   8.402  21.975  0.00  0.00    +0.000 A 
ATOM     10  C   UNL     1       0.869   9.780  22.171  0.00  0.00    +0.000 A 
ATOM     11  C   UNL     1       0.920  10.644  21.084  0.00  0.00    +0.000 A 
ATOM     12  F   UNL     1       0.762  11.958  21.272  0.00  0.00    +0.000 F 
ATOM     13  C   UNL     1       1.098  10.161  19.797  0.00  0.00    +0.000 A 
ATOM     14  C   UNL     1       1.230   8.787  19.605  0.00  0.00    +0.000 A 
ENDBRANCH   5   8
BRANCH   1  18
ATOM     15  C   UNL     1       7.295   5.722  16.296  0.00  0.00    +0.000 C 
ATOM     16  C   UNL     1       7.384   4.481  17.189  0.00  0.00    +0.000 C 
ATOM     17  C   UNL     1       6.205   4.257  18.124  0.00  0.00    +0.000 C 
ATOM     18  C   UNL     1       5.601   5.508  18.789  0.00  0.00    +0.000 C 
ATOM     19  C   UNL     1       5.667   6.828  17.997  0.00  0.00    +0.000 C 
ATOM     20  C   UNL     1       6.939   6.952  17.145  0.00  0.00    +0.000 C 
BRANCH  19  21
ATOM     21  C   UNL     1       4.457   7.103  17.205  0.00  0.00    +0.000 C 
ATOM     22  N   UNL     1       3.510   7.355  16.577  0.00  0.00    +0.000 NA
ENDBRANCH  19  21
BRANCH  15  23
ATOM     23  C   UNL     1       6.402   5.508  15.044  0.00  0.00    +0.000 C 
BRANCH  23  25
ATOM     24  C   UNL     1       5.931   3.742  13.401  0.00  0.00    +0.000 C 
ATOM     25  N   UNL     1       6.954   4.536  14.084  0.00  0.00    +0.000 NA
ATOM     26  C   UNL     1       7.792   5.215  13.086  0.00  0.00    +0.000 C 
ENDBRANCH  23  25
ENDBRANCH  15  23
ENDBRANCH   1  18
BRANCH   3  27
ATOM     27  C   UNL     1       1.651   3.515  21.156  0.00  0.00    +0.000 C 
ATOM     28  N   UNL     1       0.534   3.122  20.462  0.00  0.00    +0.000 N 
ATOM     29  O   UNL     1       1.881   3.080  22.273  0.00  0.00    +0.000 OA
ATOM     30  H   UNL     1       0.480   3.231  19.460  0.00  0.00    +0.000 HD
ATOM     31  H   UNL     1      -0.033   2.397  20.891  0.00  0.00    +0.000 HD
ENDBRANCH   3  27
TORSDOF 6
ENDMDL
MODEL 8
REMARK VINA RESULT:      -6.9      3.438      7.709
REMARK  Name = 
REMARK  8 active torsions:
REMARK  status: ('A' for Active; 'I' for Inactive)
REMARK    1  A    between atoms: C_1  and  N_2
REMARK    2  A    between atoms: N_2  and  C_3
REMARK    3  A    between atoms: N_2  and  C_4
REMARK    4  A    between atoms: C_4  and  C_5
REMARK    5  A    between atoms: C_8  and  N_9
REMARK    6  A    between atoms: C_11  and  C_12
REMARK    7  A    between atoms: N_16  and  C_17
REMARK    8  A    between atoms: C_25  and  C_26
REMARK                            x       y       z     vdW  Elec       q    Type
REMARK                         _______ _______ _______ _____ _____    ______ ____
ROOT
ATOM      1  N   UNL     1       1.761   8.110  19.306  0.00  0.00    +0.000 N 
ATOM      2  C   UNL     1       1.403   7.803  20.589  0.00  0.00    +0.000 A 
ATOM      3  C   UNL     1       0.955   8.977  21.164  0.00  0.00    +0.000 A 
ATOM      4  C   UNL     1       1.036   9.937  20.123  0.00  0.00    +0.000 A 
ATOM      5  N   UNL     1       0.693  11.243  20.262  0.00  0.00    +0.000 N 
ATOM      6  N   UNL     1       1.534   9.389  19.005  0.00  0.00    +0.000 NA
ATOM      7  H   UNL     1       0.117  11.524  21.054  0.00  0.00    +0.000 HD
ENDROOT
BRANCH   5   8
ATOM      8  C   UNL     1       1.197  12.329  19.509  0.00  0.00    +0.000 A 
ATOM      9  C   UNL     1       2.209  12.124  18.565  0.00  0.00    +0.000 A 
ATOM     10  C   UNL     1       2.767  13.211  17.884  0.00  0.00    +0.000 A 
ATOM     11  C   UNL     1       2.314  14.498  18.142  0.00  0.00    +0.000 A 
ATOM     12  F   UNL     1       2.862  15.537  17.503  0.00  0.00    +0.000 F 
ATOM     13  C   UNL     1       1.320  14.730  19.081  0.00  0.00    +0.000 A 
ATOM     14  C   UNL     1       0.776  13.646  19.766  0.00  0.00    +0.000 A 
ENDBRANCH   5   8
BRANCH   1  18
ATOM     15  C   UNL     1       4.571   5.302  17.564  0.00  0.00    +0.000 C 
ATOM     16  C   UNL     1       4.673   6.769  17.132  0.00  0.00    +0.000 C 
ATOM     17  C   UNL     1       3.802   7.745  17.908  0.00  0.00    +0.000 C 
ATOM     18  C   UNL     1       2.388   7.263  18.285  0.00  0.00    +0.000 C 
ATOM     19  C   UNL     1       2.202   5.755  18.538  0.00  0.00    +0.000 C 
ATOM     20  C   UNL     1       3.096   4.883  17.643  0.00  0.00    +0.000 C 
BRANCH  19  21
ATOM     21  C   UNL     1       2.321   5.374  19.956  0.00  0.00    +0.000 C 
ATOM     22  N   UNL     1       2.380   5.072  21.078  0.00  0.00    +0.000 NA
ENDBRANCH  19  21
BRANCH  15  23
ATOM     23  C   UNL     1       5.414   4.980  18.826  0.00  0.00    +0.000 C 
BRANCH  23  25
ATOM     24  C   UNL     1       7.100   4.474  17.111  0.00  0.00    +0.000 C 
ATOM     25  N   UNL     1       6.828   4.682  18.534  0.00  0.00    +0.000 NA
ATOM     26  C   UNL     1       7.697   5.749  19.047  0.00  0.00    +0.000 C 
ENDBRANCH  23  25
ENDBRANCH  15  23
ENDBRANCH   1  18
BRANCH   3  27
ATOM     27  C   UNL     1       0.528   9.174  22.535  0.00  0.00    +0.000 C 
ATOM     28  N   UNL     1      -0.769   8.811  22.798  0.00  0.00    +0.000 N 
ATOM     29  O   UNL     1       1.262   9.568  23.427  0.00  0.00    +0.000 OA
ATOM     30  H   UNL     1      -1.284   8.222  22.159  0.00  0.00    +0.000 HD
ATOM     31  H   UNL     1      -1.048   8.808  23.775  0.00  0.00    +0.000 HD
ENDBRANCH   3  27
TORSDOF 6
ENDMDL
MODEL 9
REMARK VINA RESULT:      -6.9      1.025      1.060
REMARK  Name = 
REMARK  8 active torsions:
REMARK  status: ('A' for Active; 'I' for Inactive)
REMARK    1  A    between atoms: C_1  and  N_2
REMARK    2  A    between atoms: N_2  and  C_3
REMARK    3  A    between atoms: N_2  and  C_4
REMARK    4  A    between atoms: C_4  and  C_5
REMARK    5  A    between atoms: C_8  and  N_9
REMARK    6  A    between atoms: C_11  and  C_12
REMARK    7  A    between atoms: N_16  and  C_17
REMARK    8  A    between atoms: C_25  and  C_26
REMARK                            x       y       z     vdW  Elec       q    Type
REMARK                         _______ _______ _______ _____ _____    ______ ____
ROOT
ATOM      1  N   UNL     1       2.102   7.467  19.868  0.00  0.00    +0.000 N 
ATOM      2  C   UNL     1       1.415   6.545  20.608  0.00  0.00    +0.000 A 
ATOM      3  C   UNL     1       1.989   5.318  20.337  0.00  0.00    +0.000 A 
ATOM      4  C   UNL     1       3.057   5.611  19.451  0.00  0.00    +0.000 A 
ATOM      5  N   UNL     1       3.889   4.677  18.924  0.00  0.00    +0.000 N 
ATOM      6  N   UNL     1       3.103   6.923  19.176  0.00  0.00    +0.000 NA
ATOM      7  H   UNL     1       3.936   3.754  19.354  0.00  0.00    +0.000 HD
ENDROOT
BRANCH   5   8
ATOM      8  C   UNL     1       4.599   4.775  17.705  0.00  0.00    +0.000 A 
ATOM      9  C   UNL     1       4.946   6.029  17.190  0.00  0.00    +0.000 A 
ATOM     10  C   UNL     1       5.571   6.130  15.942  0.00  0.00    +0.000 A 
ATOM     11  C   UNL     1       5.852   4.982  15.213  0.00  0.00    +0.000 A 
ATOM     12  F   UNL     1       6.433   5.082  14.012  0.00  0.00    +0.000 F 
ATOM     13  C   UNL     1       5.508   3.728  15.695  0.00  0.00    +0.000 A 
ATOM     14  C   UNL     1       4.875   3.633  16.932  0.00  0.00    +0.000 A 
ENDBRANCH   5   8
BRANCH   1  18
ATOM     15  C   UNL     1      -0.148  11.130  19.289  0.00  0.00    +0.000 C 
ATOM     16  C   UNL     1       0.711  10.632  18.122  0.00  0.00    +0.000 C 
ATOM     17  C   UNL     1       1.326   9.252  18.299  0.00  0.00    +0.000 C 
ATOM     18  C   UNL     1       1.853   8.904  19.704  0.00  0.00    +0.000 C 
ATOM     19  C   UNL     1       1.132   9.545  20.906  0.00  0.00    +0.000 C 
ATOM     20  C   UNL     1       0.618  10.961  20.610  0.00  0.00    +0.000 C 
BRANCH  19  21
ATOM     21  C   UNL     1       0.076   8.696  21.483  0.00  0.00    +0.000 C 
ATOM     22  N   UNL     1      -0.778   8.031  21.911  0.00  0.00    +0.000 NA
ENDBRANCH  19  21
BRANCH  15  23
ATOM     23  C   UNL     1      -1.584  10.540  19.283  0.00  0.00    +0.000 C 
BRANCH  23  25
ATOM     24  C   UNL     1      -2.823   9.802  17.293  0.00  0.00    +0.000 C 
ATOM     25  N   UNL     1      -2.380  10.935  18.107  0.00  0.00    +0.000 NA
ATOM     26  C   UNL     1      -3.546  11.729  18.516  0.00  0.00    +0.000 C 
ENDBRANCH  23  25
ENDBRANCH  15  23
ENDBRANCH   1  18
BRANCH   3  27
ATOM     27  C   UNL     1       1.565   4.023  20.833  0.00  0.00    +0.000 C 
ATOM     28  N   UNL     1       2.234   3.578  21.945  0.00  0.00    +0.000 N 
ATOM     29  O   UNL     1       0.639   3.383  20.359  0.00  0.00    +0.000 OA
ATOM     30  H   UNL     1       2.782   4.211  22.509  0.00  0.00    +0.000 HD
ATOM     31  H   UNL     1       1.864   2.745  22.392  0.00  0.00    +0.000 HD
ENDBRANCH   3  27
TORSDOF 6
ENDMDL
