MODEL 1
REMARK VINA RESULT:      -8.1      0.000      0.000
REMARK  Name = 
REMARK  6 active torsions:
REMARK  status: ('A' for Active; 'I' for Inactive)
REMARK    1  A    between atoms: C_2  and  C_3
REMARK    2  A    between atoms: N_6  and  C_7
REMARK    3  A    between atoms: C_7  and  C_8
REMARK    4  A    between atoms: C_15  and  N_16
REMARK    5  A    between atoms: C_18  and  C_19
REMARK    6  A    between atoms: N_23  and  C_24
REMARK                            x       y       z     vdW  Elec       q    Type
REMARK                         _______ _______ _______ _____ _____    ______ ____
ROOT
ATOM      1  N   UNL     1       4.733   4.054  18.181  0.00  0.00    +0.000 N 
ATOM      2  C   UNL     1       5.520   4.624  19.138  0.00  0.00    +0.000 A 
ATOM      3  C   UNL     1       6.601   5.182  18.476  0.00  0.00    +0.000 A 
ATOM      4  C   UNL     1       6.403   4.838  17.107  0.00  0.00    +0.000 A 
ATOM      5  N   UNL     1       7.282   5.106  16.109  0.00  0.00    +0.000 N 
ATOM      6  N   UNL     1       5.261   4.159  16.961  0.00  0.00    +0.000 NA
ATOM      7  H   UNL     1       8.207   5.449  16.355  0.00  0.00    +0.000 HD
ENDROOT
BRANCH   5   8
ATOM      8  C   UNL     1       7.123   4.877  14.721  0.00  0.00    +0.000 A 
ATOM      9  C   UNL     1       6.272   3.876  14.226  0.00  0.00    +0.000 A 
ATOM     10  C   UNL     1       6.222   3.573  12.862  0.00  0.00    +0.000 A 
ATOM     11  C   UNL     1       7.035   4.266  11.984  0.00  0.00    +0.000 A 
ATOM     12  F   UNL     1       7.015   3.959  10.678  0.00  0.00    +0.000 F 
ATOM     13  C   UNL     1       7.884   5.271  12.439  0.00  0.00    +0.000 A 
ATOM     14  C   UNL     1       7.922   5.576  13.803  0.00  0.00    +0.000 A 
ENDBRANCH   5   8
BRANCH   1  20
ATOM     15  C   UNL     1       3.055   3.095  19.787  0.00  0.00    +0.000 C 
ATOM     16  C   UNL     1       2.620   4.311  20.618  0.00  0.00    +0.000 C 
ATOM     17  C   UNL     1       1.538   5.147  19.927  0.00  0.00    +0.000 C 
ATOM     18  N   UNL     1       1.843   5.540  18.545  0.00  0.00    +0.000 NA
ATOM     19  C   UNL     1       2.256   4.368  17.744  0.00  0.00    +0.000 C 
ATOM     20  C   UNL     1       3.392   3.485  18.328  0.00  0.00    +0.000 C 
BRANCH  15  22
ATOM     21  N   UNL     1       1.175   1.253  19.756  0.00  0.00    +0.000 NA
ATOM     22  C   UNL     1       1.995   2.077  19.784  0.00  0.00    +0.000 C 
ENDBRANCH  15  22
BRANCH  18  23
ATOM     23  C   UNL     1       2.822   6.642  18.429  0.00  0.00    +0.000 C 
BRANCH  23  24
ATOM     24  C   UNL     1       2.329   8.062  18.581  0.00  0.00    +0.000 A 
ATOM     25  C   UNL     1       1.615   8.513  19.681  0.00  0.00    +0.000 A 
ATOM     26  C   UNL     1       1.160   9.827  19.682  0.00  0.00    +0.000 A 
ATOM     27  C   UNL     1       1.419  10.611  18.575  0.00  0.00    +0.000 A 
ATOM     28  N   UNL     1       2.086  10.147  17.503  0.00  0.00    +0.000 NA
ATOM     29  N   UNL     1       2.541   8.864  17.508  0.00  0.00    +0.000 NA
ENDBRANCH  23  24
ENDBRANCH  18  23
ENDBRANCH   1  20
BRANCH   3  30
ATOM     30  C   UNL     1       7.647   5.985  19.071  0.00  0.00    +0.000 C 
ATOM     31  N   UNL     1       8.174   5.491  20.232  0.00  0.00    +0.000 N 
ATOM     32  O   UNL     1       8.062   7.029  18.585  0.00  0.00    +0.000 OA
ATOM     33  H   UNL     1       8.074   4.515  20.471  0.00  0.00    +0.000 HD
ATOM     34  H   UNL     1       8.957   5.997  20.622  0.00  0.00    +0.000 HD
ENDBRANCH   3  30
TORSDOF 6
ENDMDL
MODEL 2
REMARK VINA RESULT:      -7.8      8.743     12.587
REMARK  Name = 
REMARK  6 active torsions:
REMARK  status: ('A' for Active; 'I' for Inactive)
REMARK    1  A    between atoms: C_2  and  C_3
REMARK    2  A    between atoms: N_6  and  C_7
REMARK    3  A    between atoms: C_7  and  C_8
REMARK    4  A    between atoms: C_15  and  N_16
REMARK    5  A    between atoms: C_18  and  C_19
REMARK    6  A    between atoms: N_23  and  C_24
REMARK                            x       y       z     vdW  Elec       q    Type
REMARK                         _______ _______ _______ _____ _____    ______ ____
ROOT
ATOM      1  N   UNL     1      -4.778  13.877  21.094  0.00  0.00    +0.000 N 
ATOM      2  C   UNL     1      -5.877  13.420  21.761  0.00  0.00    +0.000 A 
ATOM      3  C   UNL     1      -6.302  12.287  21.088  0.00  0.00    +0.000 A 
ATOM      4  C   UNL     1      -5.417  12.175  19.976  0.00  0.00    +0.000 A 
ATOM      5  N   UNL     1      -5.531  11.249  18.990  0.00  0.00    +0.000 N 
ATOM      6  N   UNL     1      -4.504  13.150  20.010  0.00  0.00    +0.000 NA
ATOM      7  H   UNL     1      -6.373  10.680  18.952  0.00  0.00    +0.000 HD
ENDROOT
BRANCH   5   8
ATOM      8  C   UNL     1      -4.651  11.018  17.905  0.00  0.00    +0.000 A 
ATOM      9  C   UNL     1      -4.829  11.640  16.658  0.00  0.00    +0.000 A 
ATOM     10  C   UNL     1      -4.034  11.305  15.559  0.00  0.00    +0.000 A 
ATOM     11  C   UNL     1      -3.057  10.335  15.699  0.00  0.00    +0.000 A 
ATOM     12  F   UNL     1      -2.310   9.988  14.641  0.00  0.00    +0.000 F 
ATOM     13  C   UNL     1      -2.847   9.706  16.923  0.00  0.00    +0.000 A 
ATOM     14  C   UNL     1      -3.640  10.052  18.021  0.00  0.00    +0.000 A 
ENDBRANCH   5   8
BRANCH   1  20
ATOM     15  C   UNL     1      -4.093  15.450  22.930  0.00  0.00    +0.000 C 
ATOM     16  C   UNL     1      -3.460  14.522  23.977  0.00  0.00    +0.000 C 
ATOM     17  C   UNL     1      -1.998  14.186  23.668  0.00  0.00    +0.000 C 
ATOM     18  N   UNL     1      -1.748  13.688  22.309  0.00  0.00    +0.000 NA
ATOM     19  C   UNL     1      -2.353  14.584  21.301  0.00  0.00    +0.000 C 
ATOM     20  C   UNL     1      -3.853  14.940  21.489  0.00  0.00    +0.000 C 
BRANCH  15  22
ATOM     21  N   UNL     1      -3.122  17.888  23.128  0.00  0.00    +0.000 NA
ATOM     22  C   UNL     1      -3.550  16.809  23.061  0.00  0.00    +0.000 C 
ENDBRANCH  15  22
BRANCH  18  23
ATOM     23  C   UNL     1      -2.157  12.283  22.093  0.00  0.00    +0.000 C 
BRANCH  23  24
ATOM     24  C   UNL     1      -1.085  11.219  22.065  0.00  0.00    +0.000 A 
ATOM     25  C   UNL     1      -0.641  10.605  20.902  0.00  0.00    +0.000 A 
ATOM     26  C   UNL     1       0.308   9.595  21.008  0.00  0.00    +0.000 A 
ATOM     27  C   UNL     1       0.743   9.233  22.267  0.00  0.00    +0.000 A 
ATOM     28  N   UNL     1       0.280   9.818  23.386  0.00  0.00    +0.000 NA
ATOM     29  N   UNL     1      -0.642  10.815  23.282  0.00  0.00    +0.000 NA
ENDBRANCH  23  24
ENDBRANCH  18  23
ENDBRANCH   1  20
BRANCH   3  30
ATOM     30  C   UNL     1      -7.373  11.403  21.492  0.00  0.00    +0.000 C 
ATOM     31  N   UNL     1      -7.774  11.528  22.793  0.00  0.00    +0.000 N 
ATOM     32  O   UNL     1      -7.912  10.600  20.741  0.00  0.00    +0.000 OA
ATOM     33  H   UNL     1      -7.572  12.365  23.319  0.00  0.00    +0.000 HD
ATOM     34  H   UNL     1      -8.571  10.973  23.074  0.00  0.00    +0.000 HD
ENDBRANCH   3  30
TORSDOF 6
ENDMDL
MODEL 3
REMARK VINA RESULT:      -7.6      0.770      1.244
REMARK  Name = 
REMARK  6 active torsions:
REMARK  status: ('A' for Active; 'I' for Inactive)
REMARK    1  A    between atoms: C_2  and  C_3
REMARK    2  A    between atoms: N_6  and  C_7
REMARK    3  A    between atoms: C_7  and  C_8
REMARK    4  A    between atoms: C_15  and  N_16
REMARK    5  A    between atoms: C_18  and  C_19
REMARK    6  A    between atoms: N_23  and  C_24
REMARK                            x       y       z     vdW  Elec       q    Type
REMARK                         _______ _______ _______ _____ _____    ______ ____
ROOT
ATOM      1  N   UNL     1       4.687   4.015  18.107  0.00  0.00    +0.000 N 
ATOM      2  C   UNL     1       5.416   4.630  19.083  0.00  0.00    +0.000 A 
ATOM      3  C   UNL     1       6.522   5.181  18.458  0.00  0.00    +0.000 A 
ATOM      4  C   UNL     1       6.400   4.786  17.093  0.00  0.00    +0.000 A 
ATOM      5  N   UNL     1       7.327   5.032  16.133  0.00  0.00    +0.000 N 
ATOM      6  N   UNL     1       5.277   4.086  16.913  0.00  0.00    +0.000 NA
ATOM      7  H   UNL     1       8.233   5.397  16.415  0.00  0.00    +0.000 HD
ENDROOT
BRANCH   5   8
ATOM      8  C   UNL     1       7.244   4.751  14.748  0.00  0.00    +0.000 A 
ATOM      9  C   UNL     1       7.983   5.474  13.798  0.00  0.00    +0.000 A 
ATOM     10  C   UNL     1       7.795   5.275  12.427  0.00  0.00    +0.000 A 
ATOM     11  C   UNL     1       6.855   4.355  11.998  0.00  0.00    +0.000 A 
ATOM     12  F   UNL     1       6.648   4.181  10.684  0.00  0.00    +0.000 F 
ATOM     13  C   UNL     1       6.112   3.615  12.912  0.00  0.00    +0.000 A 
ATOM     14  C   UNL     1       6.311   3.812  14.283  0.00  0.00    +0.000 A 
ENDBRANCH   5   8
BRANCH   1  20
ATOM     15  C   UNL     1       3.043   2.843  19.602  0.00  0.00    +0.000 C 
ATOM     16  C   UNL     1       2.633   3.931  20.604  0.00  0.00    +0.000 C 
ATOM     17  C   UNL     1       1.538   4.856  20.063  0.00  0.00    +0.000 C 
ATOM     18  N   UNL     1       1.812   5.438  18.743  0.00  0.00    +0.000 NA
ATOM     19  C   UNL     1       2.202   4.389  17.777  0.00  0.00    +0.000 C 
ATOM     20  C   UNL     1       3.348   3.432  18.205  0.00  0.00    +0.000 C 
BRANCH  15  22
ATOM     21  N   UNL     1       1.118   1.063  19.369  0.00  0.00    +0.000 NA
ATOM     22  C   UNL     1       1.980   1.836  19.483  0.00  0.00    +0.000 C 
ENDBRANCH  15  22
BRANCH  18  23
ATOM     23  C   UNL     1       2.793   6.545  18.758  0.00  0.00    +0.000 C 
BRANCH  23  24
ATOM     24  C   UNL     1       2.275   7.964  18.759  0.00  0.00    +0.000 A 
ATOM     25  C   UNL     1       2.491   8.861  17.723  0.00  0.00    +0.000 A 
ATOM     26  C   UNL     1       2.017  10.161  17.863  0.00  0.00    +0.000 A 
ATOM     27  C   UNL     1       1.379  10.502  19.039  0.00  0.00    +0.000 A 
ATOM     28  N   UNL     1       1.204   9.628  20.046  0.00  0.00    +0.000 NA
ATOM     29  N   UNL     1       1.659   8.352  19.903  0.00  0.00    +0.000 NA
ENDBRANCH  23  24
ENDBRANCH  18  23
ENDBRANCH   1  20
BRANCH   3  30
ATOM     30  C   UNL     1       7.525   6.019  19.077  0.00  0.00    +0.000 C 
ATOM     31  N   UNL     1       8.026   5.554  20.261  0.00  0.00    +0.000 N 
ATOM     32  O   UNL     1       7.928   7.069  18.592  0.00  0.00    +0.000 OA
ATOM     33  H   UNL     1       7.945   4.579  20.509  0.00  0.00    +0.000 HD
ATOM     34  H   UNL     1       8.781   6.086  20.671  0.00  0.00    +0.000 HD
ENDBRANCH   3  30
TORSDOF 6
ENDMDL
MODEL 4
REMARK VINA RESULT:      -7.2      4.833      8.166
REMARK  Name = 
REMARK  6 active torsions:
REMARK  status: ('A' for Active; 'I' for Inactive)
REMARK    1  A    between atoms: C_2  and  C_3
REMARK    2  A    between atoms: N_6  and  C_7
REMARK    3  A    between atoms: C_7  and  C_8
REMARK    4  A    between atoms: C_15  and  N_16
REMARK    5  A    between atoms: C_18  and  C_19
REMARK    6  A    between atoms: N_23  and  C_24
REMARK                            x       y       z     vdW  Elec       q    Type
REMARK                         _______ _______ _______ _____ _____    ______ ____
ROOT
ATOM      1  N   UNL     1      -0.369   9.970  19.206  0.00  0.00    +0.000 N 
ATOM      2  C   UNL     1      -0.492  10.277  20.529  0.00  0.00    +0.000 A 
ATOM      3  C   UNL     1       0.410   9.471  21.204  0.00  0.00    +0.000 A 
ATOM      4  C   UNL     1       0.996   8.657  20.192  0.00  0.00    +0.000 A 
ATOM      5  N   UNL     1       1.875   7.649  20.424  0.00  0.00    +0.000 N 
ATOM      6  N   UNL     1       0.507   8.986  18.992  0.00  0.00    +0.000 NA
ATOM      7  H   UNL     1       2.030   7.352  21.384  0.00  0.00    +0.000 HD
ENDROOT
BRANCH   5   8
ATOM      8  C   UNL     1       2.563   6.856  19.475  0.00  0.00    +0.000 A 
ATOM      9  C   UNL     1       3.282   7.425  18.412  0.00  0.00    +0.000 A 
ATOM     10  C   UNL     1       3.848   6.632  17.409  0.00  0.00    +0.000 A 
ATOM     11  C   UNL     1       3.687   5.259  17.461  0.00  0.00    +0.000 A 
ATOM     12  F   UNL     1       4.201   4.494  16.486  0.00  0.00    +0.000 F 
ATOM     13  C   UNL     1       2.989   4.660  18.505  0.00  0.00    +0.000 A 
ATOM     14  C   UNL     1       2.433   5.459  19.510  0.00  0.00    +0.000 A 
ENDBRANCH   5   8
BRANCH   1  20
ATOM     15  C   UNL     1      -2.227   9.935  17.514  0.00  0.00    +0.000 C 
ATOM     16  C   UNL     1      -3.474  10.264  18.347  0.00  0.00    +0.000 C 
ATOM     17  C   UNL     1      -3.657  11.769  18.573  0.00  0.00    +0.000 C 
ATOM     18  N   UNL     1      -2.478  12.467  19.100  0.00  0.00    +0.000 NA
ATOM     19  C   UNL     1      -1.278  12.153  18.295  0.00  0.00    +0.000 C 
ATOM     20  C   UNL     1      -0.966  10.650  18.056  0.00  0.00    +0.000 C 
BRANCH  15  22
ATOM     21  N   UNL     1      -2.641  10.620  15.007  0.00  0.00    +0.000 NA
ATOM     22  C   UNL     1      -2.437  10.317  16.112  0.00  0.00    +0.000 C 
ENDBRANCH  15  22
BRANCH  18  23
ATOM     23  C   UNL     1      -2.231  12.241  20.541  0.00  0.00    +0.000 C 
BRANCH  23  24
ATOM     24  C   UNL     1      -3.218  12.805  21.536  0.00  0.00    +0.000 A 
ATOM     25  C   UNL     1      -3.838  14.038  21.389  0.00  0.00    +0.000 A 
ATOM     26  C   UNL     1      -4.683  14.479  22.401  0.00  0.00    +0.000 A 
ATOM     27  C   UNL     1      -4.842  13.680  23.516  0.00  0.00    +0.000 A 
ATOM     28  N   UNL     1      -4.210  12.501  23.656  0.00  0.00    +0.000 NA
ATOM     29  N   UNL     1      -3.391  12.065  22.659  0.00  0.00    +0.000 NA
ENDBRANCH  23  24
ENDBRANCH  18  23
ENDBRANCH   1  20
BRANCH   3  30
ATOM     30  C   UNL     1       0.707   9.520  22.619  0.00  0.00    +0.000 C 
ATOM     31  N   UNL     1      -0.381   9.575  23.444  0.00  0.00    +0.000 N 
ATOM     32  O   UNL     1       1.844   9.500  23.076  0.00  0.00    +0.000 OA
ATOM     33  H   UNL     1      -1.291   9.283  23.119  0.00  0.00    +0.000 HD
ATOM     34  H   UNL     1      -0.197   9.533  24.437  0.00  0.00    +0.000 HD
ENDBRANCH   3  30
TORSDOF 6
ENDMDL
MODEL 5
REMARK VINA RESULT:      -7.2      1.150      1.242
REMARK  Name = 
REMARK  6 active torsions:
REMARK  status: ('A' for Active; 'I' for Inactive)
REMARK    1  A    between atoms: C_2  and  C_3
REMARK    2  A    between atoms: N_6  and  C_7
REMARK    3  A    between atoms: C_7  and  C_8
REMARK    4  A    between atoms: C_15  and  N_16
REMARK    5  A    between atoms: C_18  and  C_19
REMARK    6  A    between atoms: N_23  and  C_24
REMARK                            x       y       z     vdW  Elec       q    Type
REMARK                         _______ _______ _______ _____ _____    ______ ____
ROOT
ATOM      1  N   UNL     1       4.766   4.670  17.927  0.00  0.00    +0.000 N 
ATOM      2  C   UNL     1       5.504   5.581  18.625  0.00  0.00    +0.000 A 
ATOM      3  C   UNL     1       6.453   6.074  17.744  0.00  0.00    +0.000 A 
ATOM      4  C   UNL     1       6.242   5.344  16.539  0.00  0.00    +0.000 A 
ATOM      5  N   UNL     1       7.019   5.441  15.431  0.00  0.00    +0.000 N 
ATOM      6  N   UNL     1       5.211   4.505  16.681  0.00  0.00    +0.000 NA
ATOM      7  H   UNL     1       7.892   5.958  15.494  0.00  0.00    +0.000 HD
ENDROOT
BRANCH   5   8
ATOM      8  C   UNL     1       6.829   4.818  14.174  0.00  0.00    +0.000 A 
ATOM      9  C   UNL     1       5.812   3.875  13.959  0.00  0.00    +0.000 A 
ATOM     10  C   UNL     1       5.715   3.173  12.754  0.00  0.00    +0.000 A 
ATOM     11  C   UNL     1       6.645   3.406  11.757  0.00  0.00    +0.000 A 
ATOM     12  F   UNL     1       6.576   2.714  10.610  0.00  0.00    +0.000 F 
ATOM     13  C   UNL     1       7.661   4.341  11.933  0.00  0.00    +0.000 A 
ATOM     14  C   UNL     1       7.747   5.047  13.137  0.00  0.00    +0.000 A 
ENDBRANCH   5   8
BRANCH   1  20
ATOM     15  C   UNL     1       3.523   3.618  19.841  0.00  0.00    +0.000 C 
ATOM     16  C   UNL     1       3.146   4.816  20.724  0.00  0.00    +0.000 C 
ATOM     17  C   UNL     1       1.880   5.533  20.245  0.00  0.00    +0.000 C 
ATOM     18  N   UNL     1       1.876   5.909  18.825  0.00  0.00    +0.000 NA
ATOM     19  C   UNL     1       2.234   4.753  17.975  0.00  0.00    +0.000 C 
ATOM     20  C   UNL     1       3.537   3.991  18.339  0.00  0.00    +0.000 C 
BRANCH  15  22
ATOM     21  N   UNL     1       1.809   1.661  20.240  0.00  0.00    +0.000 NA
ATOM     22  C   UNL     1       2.581   2.512  20.057  0.00  0.00    +0.000 C 
ENDBRANCH  15  22
BRANCH  18  23
ATOM     23  C   UNL     1       2.710   7.088  18.507  0.00  0.00    +0.000 C 
BRANCH  23  24
ATOM     24  C   UNL     1       2.103   8.462  18.668  0.00  0.00    +0.000 A 
ATOM     25  C   UNL     1       2.277   9.490  17.753  0.00  0.00    +0.000 A 
ATOM     26  C   UNL     1       1.719  10.732  18.039  0.00  0.00    +0.000 A 
ATOM     27  C   UNL     1       1.043  10.887  19.232  0.00  0.00    +0.000 A 
ATOM     28  N   UNL     1       0.909   9.887  20.122  0.00  0.00    +0.000 NA
ATOM     29  N   UNL     1       1.446   8.669  19.836  0.00  0.00    +0.000 NA
ENDBRANCH  23  24
ENDBRANCH  18  23
ENDBRANCH   1  20
BRANCH   3  30
ATOM     30  C   UNL     1       7.393   7.141  18.010  0.00  0.00    +0.000 C 
ATOM     31  N   UNL     1       8.256   6.916  19.045  0.00  0.00    +0.000 N 
ATOM     32  O   UNL     1       7.446   8.178  17.360  0.00  0.00    +0.000 OA
ATOM     33  H   UNL     1       8.435   5.979  19.375  0.00  0.00    +0.000 HD
ATOM     34  H   UNL     1       8.969   7.616  19.198  0.00  0.00    +0.000 HD
ENDBRANCH   3  30
TORSDOF 6
ENDMDL
MODEL 6
REMARK VINA RESULT:      -7.2      8.043     11.613
REMARK  Name = 
REMARK  6 active torsions:
REMARK  status: ('A' for Active; 'I' for Inactive)
REMARK    1  A    between atoms: C_2  and  C_3
REMARK    2  A    between atoms: N_6  and  C_7
REMARK    3  A    between atoms: C_7  and  C_8
REMARK    4  A    between atoms: C_15  and  N_16
REMARK    5  A    between atoms: C_18  and  C_19
REMARK    6  A    between atoms: N_23  and  C_24
REMARK                            x       y       z     vdW  Elec       q    Type
REMARK                         _______ _______ _______ _____ _____    ______ ____
ROOT
ATOM      1  N   UNL     1      -0.922  10.872  19.153  0.00  0.00    +0.000 N 
ATOM      2  C   UNL     1       0.030   9.942  19.451  0.00  0.00    +0.000 A 
ATOM      3  C   UNL     1       0.217   9.999  20.823  0.00  0.00    +0.000 A 
ATOM      4  C   UNL     1      -0.638  11.052  21.261  0.00  0.00    +0.000 A 
ATOM      5  N   UNL     1      -0.700  11.516  22.534  0.00  0.00    +0.000 N 
ATOM      6  N   UNL     1      -1.316  11.558  20.227  0.00  0.00    +0.000 NA
ATOM      7  H   UNL     1      -0.002  11.198  23.202  0.00  0.00    +0.000 HD
ENDROOT
BRANCH   5   8
ATOM      8  C   UNL     1      -1.577  12.493  23.065  0.00  0.00    +0.000 A 
ATOM      9  C   UNL     1      -1.210  13.844  23.165  0.00  0.00    +0.000 A 
ATOM     10  C   UNL     1      -2.032  14.774  23.809  0.00  0.00    +0.000 A 
ATOM     11  C   UNL     1      -3.226  14.353  24.366  0.00  0.00    +0.000 A 
ATOM     12  F   UNL     1      -4.004  15.234  25.011  0.00  0.00    +0.000 F 
ATOM     13  C   UNL     1      -3.625  13.023  24.276  0.00  0.00    +0.000 A 
ATOM     14  C   UNL     1      -2.803  12.099  23.623  0.00  0.00    +0.000 A 
ENDBRANCH   5   8
BRANCH   1  20
ATOM     15  C   UNL     1      -2.262   9.817  17.308  0.00  0.00    +0.000 C 
ATOM     16  C   UNL     1      -3.616   9.527  17.971  0.00  0.00    +0.000 C 
ATOM     17  C   UNL     1      -4.540  10.748  17.994  0.00  0.00    +0.000 C 
ATOM     18  N   UNL     1      -3.941  11.972  18.543  0.00  0.00    +0.000 NA
ATOM     19  C   UNL     1      -2.639  12.253  17.900  0.00  0.00    +0.000 C 
ATOM     20  C   UNL     1      -1.604  11.096  17.877  0.00  0.00    +0.000 C 
BRANCH  15  22
ATOM     21  N   UNL     1      -2.597  10.085  14.711  0.00  0.00    +0.000 NA
ATOM     22  C   UNL     1      -2.429   9.961  15.855  0.00  0.00    +0.000 C 
ENDBRANCH  15  22
BRANCH  18  23
ATOM     23  C   UNL     1      -3.825  11.983  20.017  0.00  0.00    +0.000 C 
BRANCH  23  24
ATOM     24  C   UNL     1      -4.878  12.717  20.815  0.00  0.00    +0.000 A 
ATOM     25  C   UNL     1      -4.899  14.095  20.974  0.00  0.00    +0.000 A 
ATOM     26  C   UNL     1      -5.884  14.653  21.782  0.00  0.00    +0.000 A 
ATOM     27  C   UNL     1      -6.775  13.805  22.408  0.00  0.00    +0.000 A 
ATOM     28  N   UNL     1      -6.721  12.468  22.268  0.00  0.00    +0.000 NA
ATOM     29  N   UNL     1      -5.764  11.923  21.467  0.00  0.00    +0.000 NA
ENDBRANCH  23  24
ENDBRANCH  18  23
ENDBRANCH   1  20
BRANCH   3  30
ATOM     30  C   UNL     1       1.058   9.121  21.608  0.00  0.00    +0.000 C 
ATOM     31  N   UNL     1       1.509   8.007  20.958  0.00  0.00    +0.000 N 
ATOM     32  O   UNL     1       1.372   9.343  22.771  0.00  0.00    +0.000 OA
ATOM     33  H   UNL     1       1.524   7.968  19.949  0.00  0.00    +0.000 HD
ATOM     34  H   UNL     1       2.158   7.421  21.465  0.00  0.00    +0.000 HD
ENDBRANCH   3  30
TORSDOF 6
ENDMDL
MODEL 7
REMARK VINA RESULT:      -7.2      3.826      7.823
REMARK  Name = 
REMARK  6 active torsions:
REMARK  status: ('A' for Active; 'I' for Inactive)
REMARK    1  A    between atoms: C_2  and  C_3
REMARK    2  A    between atoms: N_6  and  C_7
REMARK    3  A    between atoms: C_7  and  C_8
REMARK    4  A    between atoms: C_15  and  N_16
REMARK    5  A    between atoms: C_18  and  C_19
REMARK    6  A    between atoms: N_23  and  C_24
REMARK                            x       y       z     vdW  Elec       q    Type
REMARK                         _______ _______ _______ _____ _____    ______ ____
ROOT
ATOM      1  N   UNL     1       2.346   5.649  19.858  0.00  0.00    +0.000 N 
ATOM      2  C   UNL     1       2.939   5.938  18.664  0.00  0.00    +0.000 A 
ATOM      3  C   UNL     1       2.739   7.291  18.443  0.00  0.00    +0.000 A 
ATOM      4  C   UNL     1       1.949   7.724  19.548  0.00  0.00    +0.000 A 
ATOM      5  N   UNL     1       1.437   8.973  19.688  0.00  0.00    +0.000 N 
ATOM      6  N   UNL     1       1.732   6.708  20.388  0.00  0.00    +0.000 NA
ATOM      7  H   UNL     1       1.494   9.612  18.900  0.00  0.00    +0.000 HD
ENDROOT
BRANCH   5   8
ATOM      8  C   UNL     1       0.720   9.503  20.787  0.00  0.00    +0.000 A 
ATOM      9  C   UNL     1       0.672   8.849  22.029  0.00  0.00    +0.000 A 
ATOM     10  C   UNL     1      -0.143   9.315  23.065  0.00  0.00    +0.000 A 
ATOM     11  C   UNL     1      -0.925  10.438  22.859  0.00  0.00    +0.000 A 
ATOM     12  F   UNL     1      -1.732  10.872  23.838  0.00  0.00    +0.000 F 
ATOM     13  C   UNL     1      -0.895  11.116  21.644  0.00  0.00    +0.000 A 
ATOM     14  C   UNL     1      -0.070  10.650  20.615  0.00  0.00    +0.000 A 
ENDBRANCH   5   8
BRANCH   1  20
ATOM     15  C   UNL     1       1.098   3.597  20.598  0.00  0.00    +0.000 C 
ATOM     16  C   UNL     1       0.963   2.777  19.307  0.00  0.00    +0.000 C 
ATOM     17  C   UNL     1       2.213   1.949  18.995  0.00  0.00    +0.000 C 
ATOM     18  N   UNL     1       3.475   2.701  19.006  0.00  0.00    +0.000 NA
ATOM     19  C   UNL     1       3.607   3.487  20.252  0.00  0.00    +0.000 C 
ATOM     20  C   UNL     1       2.415   4.408  20.630  0.00  0.00    +0.000 C 
BRANCH  15  22
ATOM     21  N   UNL     1       0.995   2.043  22.718  0.00  0.00    +0.000 NA
ATOM     22  C   UNL     1       1.043   2.713  21.769  0.00  0.00    +0.000 C 
ENDBRANCH  15  22
BRANCH  18  23
ATOM     23  C   UNL     1       3.690   3.547  17.813  0.00  0.00    +0.000 C 
BRANCH  23  24
ATOM     24  C   UNL     1       5.100   3.973  17.478  0.00  0.00    +0.000 A 
ATOM     25  C   UNL     1       5.585   4.074  16.182  0.00  0.00    +0.000 A 
ATOM     26  C   UNL     1       6.919   4.419  15.999  0.00  0.00    +0.000 A 
ATOM     27  C   UNL     1       7.704   4.616  17.117  0.00  0.00    +0.000 A 
ATOM     28  N   UNL     1       7.226   4.484  18.367  0.00  0.00    +0.000 NA
ATOM     29  N   UNL     1       5.916   4.158  18.546  0.00  0.00    +0.000 NA
ENDBRANCH  23  24
ENDBRANCH  18  23
ENDBRANCH   1  20
BRANCH   3  30
ATOM     30  C   UNL     1       3.281   8.068  17.351  0.00  0.00    +0.000 C 
ATOM     31  N   UNL     1       4.303   7.477  16.663  0.00  0.00    +0.000 N 
ATOM     32  O   UNL     1       2.864   9.175  17.032  0.00  0.00    +0.000 OA
ATOM     33  H   UNL     1       4.444   6.478  16.703  0.00  0.00    +0.000 HD
ATOM     34  H   UNL     1       4.645   7.971  15.850  0.00  0.00    +0.000 HD
ENDBRANCH   3  30
TORSDOF 6
ENDMDL
MODEL 8
REMARK VINA RESULT:      -7.0      6.688     11.232
REMARK  Name = 
REMARK  6 active torsions:
REMARK  status: ('A' for Active; 'I' for Inactive)
REMARK    1  A    between atoms: C_2  and  C_3
REMARK    2  A    between atoms: N_6  and  C_7
REMARK    3  A    between atoms: C_7  and  C_8
REMARK    4  A    between atoms: C_15  and  N_16
REMARK    5  A    between atoms: C_18  and  C_19
REMARK    6  A    between atoms: N_23  and  C_24
REMARK                            x       y       z     vdW  Elec       q    Type
REMARK                         _______ _______ _______ _____ _____    ______ ____
ROOT
ATOM      1  N   UNL     1      -0.972  14.614  20.194  0.00  0.00    +0.000 N 
ATOM      2  C   UNL     1      -1.662  14.744  21.363  0.00  0.00    +0.000 A 
ATOM      3  C   UNL     1      -2.638  13.760  21.354  0.00  0.00    +0.000 A 
ATOM      4  C   UNL     1      -2.491  13.118  20.090  0.00  0.00    +0.000 A 
ATOM      5  N   UNL     1      -3.313  12.146  19.619  0.00  0.00    +0.000 N 
ATOM      6  N   UNL     1      -1.472  13.655  19.413  0.00  0.00    +0.000 NA
ATOM      7  H   UNL     1      -4.172  11.949  20.125  0.00  0.00    +0.000 HD
ENDROOT
BRANCH   5   8
ATOM      8  C   UNL     1      -3.187  11.403  18.421  0.00  0.00    +0.000 A 
ATOM      9  C   UNL     1      -2.111  10.528  18.198  0.00  0.00    +0.000 A 
ATOM     10  C   UNL     1      -1.929   9.900  16.963  0.00  0.00    +0.000 A 
ATOM     11  C   UNL     1      -2.821  10.153  15.936  0.00  0.00    +0.000 A 
ATOM     12  F   UNL     1      -2.634   9.577  14.739  0.00  0.00    +0.000 F 
ATOM     13  C   UNL     1      -3.904  11.006  16.125  0.00  0.00    +0.000 A 
ATOM     14  C   UNL     1      -4.086  11.624  17.366  0.00  0.00    +0.000 A 
ENDBRANCH   5   8
BRANCH   1  20
ATOM     15  C   UNL     1       0.951  16.045  20.948  0.00  0.00    +0.000 C 
ATOM     16  C   UNL     1       1.774  15.099  21.835  0.00  0.00    +0.000 C 
ATOM     17  C   UNL     1       2.713  14.196  21.029  0.00  0.00    +0.000 C 
ATOM     18  N   UNL     1       2.077  13.459  19.930  0.00  0.00    +0.000 NA
ATOM     19  C   UNL     1       1.288  14.371  19.073  0.00  0.00    +0.000 C 
ATOM     20  C   UNL     1       0.260  15.291  19.787  0.00  0.00    +0.000 C 
BRANCH  15  22
ATOM     21  N   UNL     1       2.505  17.912  19.937  0.00  0.00    +0.000 NA
ATOM     22  C   UNL     1       1.811  17.101  20.397  0.00  0.00    +0.000 C 
ENDBRANCH  15  22
BRANCH  18  23
ATOM     23  C   UNL     1       1.269  12.299  20.363  0.00  0.00    +0.000 C 
BRANCH  23  24
ATOM     24  C   UNL     1       1.380  11.013  19.578  0.00  0.00    +0.000 A 
ATOM     25  C   UNL     1       1.061   9.766  20.097  0.00  0.00    +0.000 A 
ATOM     26  C   UNL     1       1.261   8.645  19.299  0.00  0.00    +0.000 A 
ATOM     27  C   UNL     1       1.793   8.826  18.038  0.00  0.00    +0.000 A 
ATOM     28  N   UNL     1       2.125  10.039  17.561  0.00  0.00    +0.000 NA
ATOM     29  N   UNL     1       1.918  11.137  18.340  0.00  0.00    +0.000 NA
ENDBRANCH  23  24
ENDBRANCH  18  23
ENDBRANCH   1  20
BRANCH   3  30
ATOM     30  C   UNL     1      -3.545  13.446  22.436  0.00  0.00    +0.000 C 
ATOM     31  N   UNL     1      -3.876  14.497  23.246  0.00  0.00    +0.000 N 
ATOM     32  O   UNL     1      -4.012  12.330  22.629  0.00  0.00    +0.000 OA
ATOM     33  H   UNL     1      -3.761  15.449  22.930  0.00  0.00    +0.000 HD
ATOM     34  H   UNL     1      -4.567  14.314  23.961  0.00  0.00    +0.000 HD
ENDBRANCH   3  30
TORSDOF 6
ENDMDL
MODEL 9
REMARK VINA RESULT:      -7.0      5.956     10.302
REMARK  Name = 
REMARK  6 active torsions:
REMARK  status: ('A' for Active; 'I' for Inactive)
REMARK    1  A    between atoms: C_2  and  C_3
REMARK    2  A    between atoms: N_6  and  C_7
REMARK    3  A    between atoms: C_7  and  C_8
REMARK    4  A    between atoms: C_15  and  N_16
REMARK    5  A    between atoms: C_18  and  C_19
REMARK    6  A    between atoms: N_23  and  C_24
REMARK                            x       y       z     vdW  Elec       q    Type
REMARK                         _______ _______ _______ _____ _____    ______ ____
ROOT
ATOM      1  N   UNL     1       1.083  13.305  19.132  0.00  0.00    +0.000 N 
ATOM      2  C   UNL     1      -0.183  13.535  18.680  0.00  0.00    +0.000 A 
ATOM      3  C   UNL     1      -0.740  12.293  18.421  0.00  0.00    +0.000 A 
ATOM      4  C   UNL     1       0.307  11.365  18.695  0.00  0.00    +0.000 A 
ATOM      5  N   UNL     1       0.226  10.027  18.483  0.00  0.00    +0.000 N 
ATOM      6  N   UNL     1       1.395  12.008  19.127  0.00  0.00    +0.000 NA
ATOM      7  H   UNL     1      -0.572   9.664  17.968  0.00  0.00    +0.000 HD
ENDROOT
BRANCH   5   8
ATOM      8  C   UNL     1       1.181   9.034  18.806  0.00  0.00    +0.000 A 
ATOM      9  C   UNL     1       2.037   8.483  17.839  0.00  0.00    +0.000 A 
ATOM     10  C   UNL     1       2.884   7.413  18.143  0.00  0.00    +0.000 A 
ATOM     11  C   UNL     1       2.872   6.880  19.419  0.00  0.00    +0.000 A 
ATOM     12  F   UNL     1       3.660   5.834  19.709  0.00  0.00    +0.000 F 
ATOM     13  C   UNL     1       2.044   7.408  20.405  0.00  0.00    +0.000 A 
ATOM     14  C   UNL     1       1.205   8.484  20.098  0.00  0.00    +0.000 A 
ENDBRANCH   5   8
BRANCH   1  20
ATOM     15  C   UNL     1       1.688  15.732  19.366  0.00  0.00    +0.000 C 
ATOM     16  C   UNL     1       0.588  16.289  20.281  0.00  0.00    +0.000 C 
ATOM     17  C   UNL     1       0.867  16.037  21.766  0.00  0.00    +0.000 C 
ATOM     18  N   UNL     1       1.181  14.645  22.114  0.00  0.00    +0.000 NA
ATOM     19  C   UNL     1       2.244  14.112  21.235  0.00  0.00    +0.000 C 
ATOM     20  C   UNL     1       2.031  14.262  19.704  0.00  0.00    +0.000 C 
BRANCH  15  22
ATOM     21  N   UNL     1       3.854  17.219  19.533  0.00  0.00    +0.000 NA
ATOM     22  C   UNL     1       2.903  16.552  19.477  0.00  0.00    +0.000 C 
ENDBRANCH  15  22
BRANCH  18  23
ATOM     23  C   UNL     1       0.007  13.746  22.142  0.00  0.00    +0.000 C 
BRANCH  23  24
ATOM     24  C   UNL     1      -1.069  14.001  23.170  0.00  0.00    +0.000 A 
ATOM     25  C   UNL     1      -2.369  13.531  23.055  0.00  0.00    +0.000 A 
ATOM     26  C   UNL     1      -3.290  13.881  24.037  0.00  0.00    +0.000 A 
ATOM     27  C   UNL     1      -2.872  14.702  25.064  0.00  0.00    +0.000 A 
ATOM     28  N   UNL     1      -1.615  15.174  25.145  0.00  0.00    +0.000 NA
ATOM     29  N   UNL     1      -0.711  14.822  24.189  0.00  0.00    +0.000 NA
ENDBRANCH  23  24
ENDBRANCH  18  23
ENDBRANCH   1  20
BRANCH   3  30
ATOM     30  C   UNL     1      -2.106  12.035  18.022  0.00  0.00    +0.000 C 
ATOM     31  N   UNL     1      -2.297  11.845  16.682  0.00  0.00    +0.000 N 
ATOM     32  O   UNL     1      -3.043  11.970  18.808  0.00  0.00    +0.000 OA
ATOM     33  H   UNL     1      -1.528  11.588  16.081  0.00  0.00    +0.000 HD
ATOM     34  H   UNL     1      -3.231  11.588  16.393  0.00  0.00    +0.000 HD
ENDBRANCH   3  30
TORSDOF 6
ENDMDL
