MODEL 1
REMARK VINA RESULT:      -8.1      0.000      0.000
REMARK  Name = 
REMARK  9 active torsions:
REMARK  status: ('A' for Active; 'I' for Inactive)
REMARK    1  A    between atoms: C_1  and  C_2
REMARK    2  A    between atoms: C_2  and  C_3
REMARK    3  A    between atoms: C_3  and  C_4
REMARK    4  A    between atoms: C_4  and  C_5
REMARK    5  A    between atoms: C_8  and  N_9
REMARK    6  A    between atoms: C_11  and  C_12
REMARK    7  A    between atoms: C_12  and  O_13
REMARK    8  A    between atoms: O_13  and  C_14
REMARK    9  A    between atoms: C_19  and  C_20
REMARK                            x       y       z     vdW  Elec       q    Type
REMARK                         _______ _______ _______ _____ _____    ______ ____
ROOT
ATOM      1  N   UNL     1       6.150   5.554  15.869  0.00  0.00    +0.000 N 
ATOM      2  N   UNL     1       5.045   6.345  16.105  0.00  0.00    +0.000 NA
ATOM      3  C   UNL     1       5.097   6.656  17.366  0.00  0.00    +0.000 C 
ATOM      4  C   UNL     1       6.222   6.007  18.110  0.00  0.00    +0.000 C 
ATOM      5  C   UNL     1       6.913   5.267  17.008  0.00  0.00    +0.000 C 
ATOM      6  O   UNL     1       7.878   4.535  17.152  0.00  0.00    +0.000 OA
ENDROOT
BRANCH   1  10
ATOM      7  C   UNL     1       6.876   3.648  12.171  0.00  0.00    +0.000 A 
ATOM      8  C   UNL     1       5.737   3.336  12.926  0.00  0.00    +0.000 A 
ATOM      9  C   UNL     1       5.456   4.024  14.110  0.00  0.00    +0.000 A 
ATOM     10  C   UNL     1       6.349   4.980  14.599  0.00  0.00    +0.000 A 
ATOM     11  C   UNL     1       7.479   5.305  13.839  0.00  0.00    +0.000 A 
ATOM     12  C   UNL     1       7.729   4.662  12.624  0.00  0.00    +0.000 A 
BRANCH   7  13
ATOM     13  C   UNL     1       7.214   2.884  10.913  0.00  0.00    +0.000 C 
BRANCH  13  14
ATOM     14  C   UNL     1       7.301   1.366  11.095  0.00  0.00    +0.000 C 
BRANCH  14  16
ATOM     15  C   UNL     1       6.038  -0.796  11.340  0.00  0.00    +0.000 C 
ATOM     16  C   UNL     1       5.944   0.672  10.959  0.00  0.00    +0.000 C 
ENDBRANCH  14  16
ENDBRANCH  13  14
ENDBRANCH   7  13
ENDBRANCH   1  10
BRANCH   3  17
ATOM     17  C   UNL     1       4.118   7.554  18.070  0.00  0.00    +0.000 C 
BRANCH  17  18
ATOM     18  O   UNL     1       2.798   7.044  17.899  0.00  0.00    +0.000 OA
BRANCH  18  19
ATOM     19  C   UNL     1       2.434   5.987  18.697  0.00  0.00    +0.000 A 
ATOM     20  C   UNL     1       2.095   6.341  20.008  0.00  0.00    +0.000 A 
ATOM     21  C   UNL     1       1.727   5.363  20.934  0.00  0.00    +0.000 A 
ATOM     22  C   UNL     1       1.702   4.022  20.551  0.00  0.00    +0.000 A 
ATOM     23  F   UNL     1       1.351   3.120  21.482  0.00  0.00    +0.000 F 
ATOM     24  C   UNL     1       2.030   3.638  19.254  0.00  0.00    +0.000 A 
ATOM     25  C   UNL     1       2.391   4.631  18.332  0.00  0.00    +0.000 A 
ATOM     26  F   UNL     1       2.708   4.282  17.076  0.00  0.00    +0.000 F 
BRANCH  24  27
ATOM     27  C   UNL     1       2.020   2.212  18.825  0.00  0.00    +0.000 C 
ATOM     28  N   UNL     1       0.818   1.609  18.594  0.00  0.00    +0.000 N 
ATOM     29  O   UNL     1       3.051   1.562  18.678  0.00  0.00    +0.000 OA
ATOM     30  H   UNL     1      -0.076   2.076  18.687  0.00  0.00    +0.000 HD
ATOM     31  H   UNL     1       0.829   0.638  18.307  0.00  0.00    +0.000 HD
ENDBRANCH  24  27
ENDBRANCH  18  19
ENDBRANCH  17  18
ENDBRANCH   3  17
TORSDOF 8
ENDMDL
MODEL 2
REMARK VINA RESULT:      -7.9      5.774      9.137
REMARK  Name = 
REMARK  9 active torsions:
REMARK  status: ('A' for Active; 'I' for Inactive)
REMARK    1  A    between atoms: C_1  and  C_2
REMARK    2  A    between atoms: C_2  and  C_3
REMARK    3  A    between atoms: C_3  and  C_4
REMARK    4  A    between atoms: C_4  and  C_5
REMARK    5  A    between atoms: C_8  and  N_9
REMARK    6  A    between atoms: C_11  and  C_12
REMARK    7  A    between atoms: C_12  and  O_13
REMARK    8  A    between atoms: O_13  and  C_14
REMARK    9  A    between atoms: C_19  and  C_20
REMARK                            x       y       z     vdW  Elec       q    Type
REMARK                         _______ _______ _______ _____ _____    ______ ____
ROOT
ATOM      1  N   UNL     1       6.118   6.208  18.115  0.00  0.00    +0.000 N 
ATOM      2  N   UNL     1       6.428   7.361  17.424  0.00  0.00    +0.000 NA
ATOM      3  C   UNL     1       7.623   7.693  17.813  0.00  0.00    +0.000 C 
ATOM      4  C   UNL     1       8.184   6.814  18.886  0.00  0.00    +0.000 C 
ATOM      5  C   UNL     1       7.090   5.804  19.038  0.00  0.00    +0.000 C 
ATOM      6  O   UNL     1       7.080   4.898  19.856  0.00  0.00    +0.000 OA
ENDROOT
BRANCH   1  10
ATOM      7  C   UNL     1       2.343   4.324  17.911  0.00  0.00    +0.000 A 
ATOM      8  C   UNL     1       2.506   5.529  18.609  0.00  0.00    +0.000 A 
ATOM      9  C   UNL     1       3.736   6.193  18.609  0.00  0.00    +0.000 A 
ATOM     10  C   UNL     1       4.844   5.624  17.977  0.00  0.00    +0.000 A 
ATOM     11  C   UNL     1       4.681   4.429  17.266  0.00  0.00    +0.000 A 
ATOM     12  C   UNL     1       3.436   3.796  17.213  0.00  0.00    +0.000 A 
BRANCH   7  13
ATOM     13  C   UNL     1       1.032   3.575  17.938  0.00  0.00    +0.000 C 
BRANCH  13  14
ATOM     14  C   UNL     1       1.059   2.276  18.748  0.00  0.00    +0.000 C 
BRANCH  14  16
ATOM     15  C   UNL     1       1.257   2.992  21.151  0.00  0.00    +0.000 C 
ATOM     16  C   UNL     1       1.973   2.356  19.971  0.00  0.00    +0.000 C 
ENDBRANCH  14  16
ENDBRANCH  13  14
ENDBRANCH   7  13
ENDBRANCH   1  10
BRANCH   3  17
ATOM     17  C   UNL     1       8.402   8.866  17.287  0.00  0.00    +0.000 C 
BRANCH  17  18
ATOM     18  O   UNL     1       7.883  10.070  17.848  0.00  0.00    +0.000 OA
BRANCH  18  19
ATOM     19  C   UNL     1       8.799  10.982  18.313  0.00  0.00    +0.000 A 
ATOM     20  C   UNL     1       9.612  10.508  19.349  0.00  0.00    +0.000 A 
ATOM     21  C   UNL     1      10.573  11.337  19.931  0.00  0.00    +0.000 A 
ATOM     22  C   UNL     1      10.720  12.649  19.480  0.00  0.00    +0.000 A 
ATOM     23  F   UNL     1      11.651  13.408  20.081  0.00  0.00    +0.000 F 
ATOM     24  C   UNL     1       9.930  13.149  18.449  0.00  0.00    +0.000 A 
ATOM     25  C   UNL     1       8.974  12.303  17.868  0.00  0.00    +0.000 A 
ATOM     26  F   UNL     1       8.203  12.764  16.870  0.00  0.00    +0.000 F 
BRANCH  24  27
ATOM     27  C   UNL     1      10.062  14.548  17.957  0.00  0.00    +0.000 C 
ATOM     28  N   UNL     1       9.217  15.496  18.453  0.00  0.00    +0.000 N 
ATOM     29  O   UNL     1      10.900  14.874  17.120  0.00  0.00    +0.000 OA
ATOM     30  H   UNL     1       8.505  15.311  19.149  0.00  0.00    +0.000 HD
ATOM     31  H   UNL     1       9.319  16.441  18.105  0.00  0.00    +0.000 HD
ENDBRANCH  24  27
ENDBRANCH  18  19
ENDBRANCH  17  18
ENDBRANCH   3  17
TORSDOF 8
ENDMDL
MODEL 3
REMARK VINA RESULT:      -7.8      5.734      7.988
REMARK  Name = 
REMARK  9 active torsions:
REMARK  status: ('A' for Active; 'I' for Inactive)
REMARK    1  A    between atoms: C_1  and  C_2
REMARK    2  A    between atoms: C_2  and  C_3
REMARK    3  A    between atoms: C_3  and  C_4
REMARK    4  A    between atoms: C_4  and  C_5
REMARK    5  A    between atoms: C_8  and  N_9
REMARK    6  A    between atoms: C_11  and  C_12
REMARK    7  A    between atoms: C_12  and  O_13
REMARK    8  A    between atoms: O_13  and  C_14
REMARK    9  A    between atoms: C_19  and  C_20
REMARK                            x       y       z     vdW  Elec       q    Type
REMARK                         _______ _______ _______ _____ _____    ______ ____
ROOT
ATOM      1  N   UNL     1       7.295   5.989  16.639  0.00  0.00    +0.000 N 
ATOM      2  N   UNL     1       7.319   7.361  16.498  0.00  0.00    +0.000 NA
ATOM      3  C   UNL     1       7.713   7.826  17.646  0.00  0.00    +0.000 C 
ATOM      4  C   UNL     1       7.903   6.778  18.698  0.00  0.00    +0.000 C 
ATOM      5  C   UNL     1       7.604   5.532  17.926  0.00  0.00    +0.000 C 
ATOM      6  O   UNL     1       7.581   4.406  18.394  0.00  0.00    +0.000 OA
ENDROOT
BRANCH   1  10
ATOM      7  C   UNL     1       5.799   3.764  13.375  0.00  0.00    +0.000 A 
ATOM      8  C   UNL     1       7.063   4.368  13.312  0.00  0.00    +0.000 A 
ATOM      9  C   UNL     1       7.591   5.036  14.421  0.00  0.00    +0.000 A 
ATOM     10  C   UNL     1       6.832   5.179  15.584  0.00  0.00    +0.000 A 
ATOM     11  C   UNL     1       5.576   4.565  15.656  0.00  0.00    +0.000 A 
ATOM     12  C   UNL     1       5.074   3.843  14.570  0.00  0.00    +0.000 A 
BRANCH   7  13
ATOM     13  C   UNL     1       5.199   3.077  12.172  0.00  0.00    +0.000 C 
BRANCH  13  14
ATOM     14  C   UNL     1       4.296   3.968  11.315  0.00  0.00    +0.000 C 
BRANCH  14  16
ATOM     15  C   UNL     1       2.828   3.965   9.272  0.00  0.00    +0.000 C 
ATOM     16  C   UNL     1       3.291   3.171  10.483  0.00  0.00    +0.000 C 
ENDBRANCH  14  16
ENDBRANCH  13  14
ENDBRANCH   7  13
ENDBRANCH   1  10
BRANCH   3  17
ATOM     17  C   UNL     1       7.938   9.281  17.952  0.00  0.00    +0.000 C 
BRANCH  17  18
ATOM     18  O   UNL     1       9.003   9.409  18.890  0.00  0.00    +0.000 OA
BRANCH  18  19
ATOM     19  C   UNL     1       9.432  10.684  19.171  0.00  0.00    +0.000 A 
ATOM     20  C   UNL     1      10.225  10.788  20.319  0.00  0.00    +0.000 A 
ATOM     21  C   UNL     1      10.710  12.028  20.735  0.00  0.00    +0.000 A 
ATOM     22  C   UNL     1      10.399  13.175  20.003  0.00  0.00    +0.000 A 
ATOM     23  F   UNL     1      10.882  14.345  20.451  0.00  0.00    +0.000 F 
ATOM     24  C   UNL     1       9.615  13.104  18.854  0.00  0.00    +0.000 A 
ATOM     25  C   UNL     1       9.140  11.850  18.444  0.00  0.00    +0.000 A 
ATOM     26  F   UNL     1       8.385  11.759  17.338  0.00  0.00    +0.000 F 
BRANCH  24  27
ATOM     27  C   UNL     1       9.261  14.314  18.063  0.00  0.00    +0.000 C 
ATOM     28  N   UNL     1      10.171  14.797  17.169  0.00  0.00    +0.000 N 
ATOM     29  O   UNL     1       8.185  14.892  18.190  0.00  0.00    +0.000 OA
ATOM     30  H   UNL     1      11.076  14.376  16.999  0.00  0.00    +0.000 HD
ATOM     31  H   UNL     1       9.915  15.623  16.642  0.00  0.00    +0.000 HD
ENDBRANCH  24  27
ENDBRANCH  18  19
ENDBRANCH  17  18
ENDBRANCH   3  17
TORSDOF 8
ENDMDL
MODEL 4
REMARK VINA RESULT:      -7.8      4.319      6.038
REMARK  Name = 
REMARK  9 active torsions:
REMARK  status: ('A' for Active; 'I' for Inactive)
REMARK    1  A    between atoms: C_1  and  C_2
REMARK    2  A    between atoms: C_2  and  C_3
REMARK    3  A    between atoms: C_3  and  C_4
REMARK    4  A    between atoms: C_4  and  C_5
REMARK    5  A    between atoms: C_8  and  N_9
REMARK    6  A    between atoms: C_11  and  C_12
REMARK    7  A    between atoms: C_12  and  O_13
REMARK    8  A    between atoms: O_13  and  C_14
REMARK    9  A    between atoms: C_19  and  C_20
REMARK                            x       y       z     vdW  Elec       q    Type
REMARK                         _______ _______ _______ _____ _____    ______ ____
ROOT
ATOM      1  N   UNL     1       3.461   5.392  19.060  0.00  0.00    +0.000 N 
ATOM      2  N   UNL     1       2.736   6.553  19.235  0.00  0.00    +0.000 NA
ATOM      3  C   UNL     1       2.027   6.366  20.308  0.00  0.00    +0.000 C 
ATOM      4  C   UNL     1       2.160   4.998  20.900  0.00  0.00    +0.000 C 
ATOM      5  C   UNL     1       3.175   4.383  19.987  0.00  0.00    +0.000 C 
ATOM      6  O   UNL     1       3.566   3.229  20.051  0.00  0.00    +0.000 OA
ENDROOT
BRANCH   1  10
ATOM      7  C   UNL     1       5.754   5.054  15.530  0.00  0.00    +0.000 A 
ATOM      8  C   UNL     1       5.917   6.151  16.387  0.00  0.00    +0.000 A 
ATOM      9  C   UNL     1       5.216   6.223  17.595  0.00  0.00    +0.000 A 
ATOM     10  C   UNL     1       4.283   5.238  17.927  0.00  0.00    +0.000 A 
ATOM     11  C   UNL     1       4.129   4.134  17.080  0.00  0.00    +0.000 A 
ATOM     12  C   UNL     1       4.876   4.031  15.904  0.00  0.00    +0.000 A 
BRANCH   7  13
ATOM     13  C   UNL     1       6.473   4.985  14.203  0.00  0.00    +0.000 C 
BRANCH  13  14
ATOM     14  C   UNL     1       6.381   3.628  13.500  0.00  0.00    +0.000 C 
BRANCH  14  16
ATOM     15  C   UNL     1       5.471   2.320  11.553  0.00  0.00    +0.000 C 
ATOM     16  C   UNL     1       5.424   3.639  12.307  0.00  0.00    +0.000 C 
ENDBRANCH  14  16
ENDBRANCH  13  14
ENDBRANCH   7  13
ENDBRANCH   1  10
BRANCH   3  17
ATOM     17  C   UNL     1       1.113   7.390  20.922  0.00  0.00    +0.000 C 
BRANCH  17  18
ATOM     18  O   UNL     1       1.576   8.698  20.594  0.00  0.00    +0.000 OA
BRANCH  18  19
ATOM     19  C   UNL     1       0.626   9.685  20.496  0.00  0.00    +0.000 A 
ATOM     20  C   UNL     1       0.277  10.276  21.717  0.00  0.00    +0.000 A 
ATOM     21  C   UNL     1      -0.692  11.278  21.767  0.00  0.00    +0.000 A 
ATOM     22  C   UNL     1      -1.323  11.692  20.594  0.00  0.00    +0.000 A 
ATOM     23  F   UNL     1      -2.256  12.652  20.699  0.00  0.00    +0.000 F 
ATOM     24  C   UNL     1      -0.996  11.126  19.364  0.00  0.00    +0.000 A 
ATOM     25  C   UNL     1      -0.015  10.126  19.326  0.00  0.00    +0.000 A 
ATOM     26  F   UNL     1       0.316   9.570  18.150  0.00  0.00    +0.000 F 
BRANCH  24  27
ATOM     27  C   UNL     1      -1.663  11.544  18.100  0.00  0.00    +0.000 C 
ATOM     28  N   UNL     1      -1.179  12.633  17.437  0.00  0.00    +0.000 N 
ATOM     29  O   UNL     1      -2.632  10.947  17.639  0.00  0.00    +0.000 OA
ATOM     30  H   UNL     1      -0.381  13.176  17.746  0.00  0.00    +0.000 HD
ATOM     31  H   UNL     1      -1.646  12.906  16.581  0.00  0.00    +0.000 HD
ENDBRANCH  24  27
ENDBRANCH  18  19
ENDBRANCH  17  18
ENDBRANCH   3  17
TORSDOF 8
ENDMDL
MODEL 5
REMARK VINA RESULT:      -7.7      4.204      5.730
REMARK  Name = 
REMARK  9 active torsions:
REMARK  status: ('A' for Active; 'I' for Inactive)
REMARK    1  A    between atoms: C_1  and  C_2
REMARK    2  A    between atoms: C_2  and  C_3
REMARK    3  A    between atoms: C_3  and  C_4
REMARK    4  A    between atoms: C_4  and  C_5
REMARK    5  A    between atoms: C_8  and  N_9
REMARK    6  A    between atoms: C_11  and  C_12
REMARK    7  A    between atoms: C_12  and  O_13
REMARK    8  A    between atoms: O_13  and  C_14
REMARK    9  A    between atoms: C_19  and  C_20
REMARK                            x       y       z     vdW  Elec       q    Type
REMARK                         _______ _______ _______ _____ _____    ______ ____
ROOT
ATOM      1  N   UNL     1       3.640   5.248  18.352  0.00  0.00    +0.000 N 
ATOM      2  N   UNL     1       3.124   6.495  18.640  0.00  0.00    +0.000 NA
ATOM      3  C   UNL     1       2.420   6.343  19.721  0.00  0.00    +0.000 C 
ATOM      4  C   UNL     1       2.336   4.929  20.204  0.00  0.00    +0.000 C 
ATOM      5  C   UNL     1       3.211   4.229  19.212  0.00  0.00    +0.000 C 
ATOM      6  O   UNL     1       3.406   3.025  19.175  0.00  0.00    +0.000 OA
ENDROOT
BRANCH   1  10
ATOM      7  C   UNL     1       6.121   4.674  14.983  0.00  0.00    +0.000 A 
ATOM      8  C   UNL     1       5.683   3.582  15.745  0.00  0.00    +0.000 A 
ATOM      9  C   UNL     1       4.797   3.765  16.811  0.00  0.00    +0.000 A 
ATOM     10  C   UNL     1       4.398   5.050  17.182  0.00  0.00    +0.000 A 
ATOM     11  C   UNL     1       4.821   6.142  16.415  0.00  0.00    +0.000 A 
ATOM     12  C   UNL     1       5.656   5.953  15.310  0.00  0.00    +0.000 A 
BRANCH   7  13
ATOM     13  C   UNL     1       7.110   4.496  13.856  0.00  0.00    +0.000 C 
BRANCH  13  14
ATOM     14  C   UNL     1       6.480   4.429  12.462  0.00  0.00    +0.000 C 
BRANCH  14  16
ATOM     15  C   UNL     1       4.446   3.243  11.578  0.00  0.00    +0.000 C 
ATOM     16  C   UNL     1       5.838   3.073  12.163  0.00  0.00    +0.000 C 
ENDBRANCH  14  16
ENDBRANCH  13  14
ENDBRANCH   7  13
ENDBRANCH   1  10
BRANCH   3  17
ATOM     17  C   UNL     1       1.704   7.451  20.442  0.00  0.00    +0.000 C 
BRANCH  17  18
ATOM     18  O   UNL     1       1.856   8.667  19.714  0.00  0.00    +0.000 OA
BRANCH  18  19
ATOM     19  C   UNL     1       0.861   9.604  19.858  0.00  0.00    +0.000 A 
ATOM     20  C   UNL     1       0.732  10.116  21.154  0.00  0.00    +0.000 A 
ATOM     21  C   UNL     1      -0.253  11.060  21.447  0.00  0.00    +0.000 A 
ATOM     22  C   UNL     1      -1.120  11.492  20.443  0.00  0.00    +0.000 A 
ATOM     23  F   UNL     1      -2.057  12.393  20.780  0.00  0.00    +0.000 F 
ATOM     24  C   UNL     1      -1.015  11.004  19.143  0.00  0.00    +0.000 A 
ATOM     25  C   UNL     1      -0.016  10.062  18.860  0.00  0.00    +0.000 A 
ATOM     26  F   UNL     1       0.104   9.581  17.613  0.00  0.00    +0.000 F 
BRANCH  24  27
ATOM     27  C   UNL     1      -1.934  11.442  18.057  0.00  0.00    +0.000 C 
ATOM     28  N   UNL     1      -1.507  12.405  17.190  0.00  0.00    +0.000 N 
ATOM     29  O   UNL     1      -3.061  10.973  17.919  0.00  0.00    +0.000 OA
ATOM     30  H   UNL     1      -0.592  12.838  17.231  0.00  0.00    +0.000 HD
ATOM     31  H   UNL     1      -2.147  12.694  16.460  0.00  0.00    +0.000 HD
ENDBRANCH  24  27
ENDBRANCH  18  19
ENDBRANCH  17  18
ENDBRANCH   3  17
TORSDOF 8
ENDMDL
MODEL 6
REMARK VINA RESULT:      -7.6      3.813      5.535
REMARK  Name = 
REMARK  9 active torsions:
REMARK  status: ('A' for Active; 'I' for Inactive)
REMARK    1  A    between atoms: C_1  and  C_2
REMARK    2  A    between atoms: C_2  and  C_3
REMARK    3  A    between atoms: C_3  and  C_4
REMARK    4  A    between atoms: C_4  and  C_5
REMARK    5  A    between atoms: C_8  and  N_9
REMARK    6  A    between atoms: C_11  and  C_12
REMARK    7  A    between atoms: C_12  and  O_13
REMARK    8  A    between atoms: O_13  and  C_14
REMARK    9  A    between atoms: C_19  and  C_20
REMARK                            x       y       z     vdW  Elec       q    Type
REMARK                         _______ _______ _______ _____ _____    ______ ____
ROOT
ATOM      1  N   UNL     1       3.329   4.770  18.037  0.00  0.00    +0.000 N 
ATOM      2  N   UNL     1       3.208   5.839  18.901  0.00  0.00    +0.000 NA
ATOM      3  C   UNL     1       2.167   5.581  19.636  0.00  0.00    +0.000 C 
ATOM      4  C   UNL     1       1.441   4.330  19.251  0.00  0.00    +0.000 C 
ATOM      5  C   UNL     1       2.307   3.818  18.144  0.00  0.00    +0.000 C 
ATOM      6  O   UNL     1       2.076   2.825  17.475  0.00  0.00    +0.000 OA
ENDROOT
BRANCH   1  10
ATOM      7  C   UNL     1       6.141   4.746  14.886  0.00  0.00    +0.000 A 
ATOM      8  C   UNL     1       5.531   5.941  15.293  0.00  0.00    +0.000 A 
ATOM      9  C   UNL     1       4.661   5.961  16.388  0.00  0.00    +0.000 A 
ATOM     10  C   UNL     1       4.327   4.775  17.044  0.00  0.00    +0.000 A 
ATOM     11  C   UNL     1       4.946   3.583  16.650  0.00  0.00    +0.000 A 
ATOM     12  C   UNL     1       5.863   3.572  15.596  0.00  0.00    +0.000 A 
BRANCH   7  13
ATOM     13  C   UNL     1       7.049   4.702  13.681  0.00  0.00    +0.000 C 
BRANCH  13  14
ATOM     14  C   UNL     1       6.575   3.771  12.561  0.00  0.00    +0.000 C 
BRANCH  14  16
ATOM     15  C   UNL     1       4.619   2.784  11.325  0.00  0.00    +0.000 C 
ATOM     16  C   UNL     1       5.058   3.804  12.362  0.00  0.00    +0.000 C 
ENDBRANCH  14  16
ENDBRANCH  13  14
ENDBRANCH   7  13
ENDBRANCH   1  10
BRANCH   3  17
ATOM     17  C   UNL     1       1.675   6.448  20.761  0.00  0.00    +0.000 C 
BRANCH  17  18
ATOM     18  O   UNL     1       2.134   7.784  20.567  0.00  0.00    +0.000 OA
BRANCH  18  19
ATOM     19  C   UNL     1       1.201   8.784  20.693  0.00  0.00    +0.000 A 
ATOM     20  C   UNL     1       0.815   9.052  22.011  0.00  0.00    +0.000 A 
ATOM     21  C   UNL     1      -0.143  10.030  22.284  0.00  0.00    +0.000 A 
ATOM     22  C   UNL     1      -0.724  10.743  21.234  0.00  0.00    +0.000 A 
ATOM     23  F   UNL     1      -1.648  11.665  21.550  0.00  0.00    +0.000 F 
ATOM     24  C   UNL     1      -0.358  10.502  19.913  0.00  0.00    +0.000 A 
ATOM     25  C   UNL     1       0.611   9.522  19.653  0.00  0.00    +0.000 A 
ATOM     26  F   UNL     1       0.979   9.277  18.387  0.00  0.00    +0.000 F 
BRANCH  24  27
ATOM     27  C   UNL     1      -0.971  11.242  18.775  0.00  0.00    +0.000 C 
ATOM     28  N   UNL     1      -0.266  12.260  18.205  0.00  0.00    +0.000 N 
ATOM     29  O   UNL     1      -2.087  10.972  18.339  0.00  0.00    +0.000 OA
ATOM     30  H   UNL     1       0.662  12.542  18.500  0.00  0.00    +0.000 HD
ATOM     31  H   UNL     1      -0.699  12.756  17.435  0.00  0.00    +0.000 HD
ENDBRANCH  24  27
ENDBRANCH  18  19
ENDBRANCH  17  18
ENDBRANCH   3  17
TORSDOF 8
ENDMDL
MODEL 7
REMARK VINA RESULT:      -7.6      5.943      9.268
REMARK  Name = 
REMARK  9 active torsions:
REMARK  status: ('A' for Active; 'I' for Inactive)
REMARK    1  A    between atoms: C_1  and  C_2
REMARK    2  A    between atoms: C_2  and  C_3
REMARK    3  A    between atoms: C_3  and  C_4
REMARK    4  A    between atoms: C_4  and  C_5
REMARK    5  A    between atoms: C_8  and  N_9
REMARK    6  A    between atoms: C_11  and  C_12
REMARK    7  A    between atoms: C_12  and  O_13
REMARK    8  A    between atoms: O_13  and  C_14
REMARK    9  A    between atoms: C_19  and  C_20
REMARK                            x       y       z     vdW  Elec       q    Type
REMARK                         _______ _______ _______ _____ _____    ______ ____
ROOT
ATOM      1  N   UNL     1       6.567   6.127  18.340  0.00  0.00    +0.000 N 
ATOM      2  N   UNL     1       6.552   7.306  17.624  0.00  0.00    +0.000 NA
ATOM      3  C   UNL     1       7.665   7.909  17.919  0.00  0.00    +0.000 C 
ATOM      4  C   UNL     1       8.491   7.203  18.949  0.00  0.00    +0.000 C 
ATOM      5  C   UNL     1       7.672   5.974  19.186  0.00  0.00    +0.000 C 
ATOM      6  O   UNL     1       7.930   5.106  20.005  0.00  0.00    +0.000 OA
ENDROOT
BRANCH   1  10
ATOM      7  C   UNL     1       3.342   3.416  18.040  0.00  0.00    +0.000 A 
ATOM      8  C   UNL     1       4.420   3.155  18.897  0.00  0.00    +0.000 A 
ATOM      9  C   UNL     1       5.448   4.090  19.056  0.00  0.00    +0.000 A 
ATOM     10  C   UNL     1       5.454   5.265  18.302  0.00  0.00    +0.000 A 
ATOM     11  C   UNL     1       4.371   5.536  17.457  0.00  0.00    +0.000 A 
ATOM     12  C   UNL     1       3.313   4.631  17.345  0.00  0.00    +0.000 A 
BRANCH   7  13
ATOM     13  C   UNL     1       2.247   2.398  17.826  0.00  0.00    +0.000 C 
BRANCH  13  14
ATOM     14  C   UNL     1       0.950   2.691  18.585  0.00  0.00    +0.000 C 
BRANCH  14  16
ATOM     15  C   UNL     1       1.080   4.318  20.499  0.00  0.00    +0.000 C 
ATOM     16  C   UNL     1       1.165   2.856  20.090  0.00  0.00    +0.000 C 
ENDBRANCH  14  16
ENDBRANCH  13  14
ENDBRANCH   7  13
ENDBRANCH   1  10
BRANCH   3  17
ATOM     17  C   UNL     1       8.114   9.219  17.332  0.00  0.00    +0.000 C 
BRANCH  17  18
ATOM     18  O   UNL     1       7.945  10.254  18.297  0.00  0.00    +0.000 OA
BRANCH  18  19
ATOM     19  C   UNL     1       9.010  11.100  18.491  0.00  0.00    +0.000 A 
ATOM     20  C   UNL     1       9.921  10.670  19.462  0.00  0.00    +0.000 A 
ATOM     21  C   UNL     1      11.040  11.444  19.777  0.00  0.00    +0.000 A 
ATOM     22  C   UNL     1      11.248  12.658  19.122  0.00  0.00    +0.000 A 
ATOM     23  F   UNL     1      12.333  13.369  19.469  0.00  0.00    +0.000 F 
ATOM     24  C   UNL     1      10.362  13.112  18.149  0.00  0.00    +0.000 A 
ATOM     25  C   UNL     1       9.247  12.321  17.837  0.00  0.00    +0.000 A 
ATOM     26  F   UNL     1       8.382  12.739  16.901  0.00  0.00    +0.000 F 
BRANCH  24  27
ATOM     27  C   UNL     1      10.558  14.409  17.444  0.00  0.00    +0.000 C 
ATOM     28  N   UNL     1      11.144  14.399  16.213  0.00  0.00    +0.000 N 
ATOM     29  O   UNL     1      10.216  15.482  17.934  0.00  0.00    +0.000 OA
ATOM     30  H   UNL     1      11.448  13.558  15.737  0.00  0.00    +0.000 HD
ATOM     31  H   UNL     1      11.273  15.290  15.749  0.00  0.00    +0.000 HD
ENDBRANCH  24  27
ENDBRANCH  18  19
ENDBRANCH  17  18
ENDBRANCH   3  17
TORSDOF 8
ENDMDL
MODEL 8
REMARK VINA RESULT:      -7.6      5.301      8.872
REMARK  Name = 
REMARK  9 active torsions:
REMARK  status: ('A' for Active; 'I' for Inactive)
REMARK    1  A    between atoms: C_1  and  C_2
REMARK    2  A    between atoms: C_2  and  C_3
REMARK    3  A    between atoms: C_3  and  C_4
REMARK    4  A    between atoms: C_4  and  C_5
REMARK    5  A    between atoms: C_8  and  N_9
REMARK    6  A    between atoms: C_11  and  C_12
REMARK    7  A    between atoms: C_12  and  O_13
REMARK    8  A    between atoms: O_13  and  C_14
REMARK    9  A    between atoms: C_19  and  C_20
REMARK                            x       y       z     vdW  Elec       q    Type
REMARK                         _______ _______ _______ _____ _____    ______ ____
ROOT
ATOM      1  N   UNL     1       5.500   5.755  17.017  0.00  0.00    +0.000 N 
ATOM      2  N   UNL     1       6.050   6.595  17.963  0.00  0.00    +0.000 NA
ATOM      3  C   UNL     1       7.164   7.022  17.448  0.00  0.00    +0.000 C 
ATOM      4  C   UNL     1       7.497   6.418  16.120  0.00  0.00    +0.000 C 
ATOM      5  C   UNL     1       6.296   5.558  15.882  0.00  0.00    +0.000 C 
ATOM      6  O   UNL     1       6.143   4.817  14.924  0.00  0.00    +0.000 OA
ENDROOT
BRANCH   1  10
ATOM      7  C   UNL     1       2.007   3.643  18.102  0.00  0.00    +0.000 A 
ATOM      8  C   UNL     1       2.052   5.042  18.182  0.00  0.00    +0.000 A 
ATOM      9  C   UNL     1       3.180   5.746  17.747  0.00  0.00    +0.000 A 
ATOM     10  C   UNL     1       4.310   5.058  17.299  0.00  0.00    +0.000 A 
ATOM     11  C   UNL     1       4.262   3.662  17.203  0.00  0.00    +0.000 A 
ATOM     12  C   UNL     1       3.112   2.962  17.578  0.00  0.00    +0.000 A 
BRANCH   7  13
ATOM     13  C   UNL     1       0.813   2.869  18.607  0.00  0.00    +0.000 C 
BRANCH  13  14
ATOM     14  C   UNL     1       0.537   3.031  20.104  0.00  0.00    +0.000 C 
BRANCH  14  16
ATOM     15  C   UNL     1       2.344   3.640  21.745  0.00  0.00    +0.000 C 
ATOM     16  C   UNL     1       1.678   2.509  20.979  0.00  0.00    +0.000 C 
ENDBRANCH  14  16
ENDBRANCH  13  14
ENDBRANCH   7  13
ENDBRANCH   1  10
BRANCH   3  17
ATOM     17  C   UNL     1       8.090   8.010  18.104  0.00  0.00    +0.000 C 
BRANCH  17  18
ATOM     18  O   UNL     1       7.723   9.332  17.718  0.00  0.00    +0.000 OA
BRANCH  18  19
ATOM     19  C   UNL     1       8.482  10.359  18.226  0.00  0.00    +0.000 A 
ATOM     20  C   UNL     1       9.282  10.001  19.317  0.00  0.00    +0.000 A 
ATOM     21  C   UNL     1      10.088  10.951  19.946  0.00  0.00    +0.000 A 
ATOM     22  C   UNL     1      10.093  12.269  19.487  0.00  0.00    +0.000 A 
ATOM     23  F   UNL     1      10.877  13.146  20.134  0.00  0.00    +0.000 F 
ATOM     24  C   UNL     1       9.310  12.655  18.402  0.00  0.00    +0.000 A 
ATOM     25  C   UNL     1       8.511  11.689  17.775  0.00  0.00    +0.000 A 
ATOM     26  F   UNL     1       7.751  12.040  16.726  0.00  0.00    +0.000 F 
BRANCH  24  27
ATOM     27  C   UNL     1       9.291  14.057  17.901  0.00  0.00    +0.000 C 
ATOM     28  N   UNL     1       8.099  14.720  17.864  0.00  0.00    +0.000 N 
ATOM     29  O   UNL     1      10.305  14.632  17.516  0.00  0.00    +0.000 OA
ATOM     30  H   UNL     1       7.220  14.320  18.169  0.00  0.00    +0.000 HD
ATOM     31  H   UNL     1       8.104  15.671  17.516  0.00  0.00    +0.000 HD
ENDBRANCH  24  27
ENDBRANCH  18  19
ENDBRANCH  17  18
ENDBRANCH   3  17
TORSDOF 8
ENDMDL
MODEL 9
REMARK VINA RESULT:      -7.6      4.969     10.520
REMARK  Name = 
REMARK  9 active torsions:
REMARK  status: ('A' for Active; 'I' for Inactive)
REMARK    1  A    between atoms: C_1  and  C_2
REMARK    2  A    between atoms: C_2  and  C_3
REMARK    3  A    between atoms: C_3  and  C_4
REMARK    4  A    between atoms: C_4  and  C_5
REMARK    5  A    between atoms: C_8  and  N_9
REMARK    6  A    between atoms: C_11  and  C_12
REMARK    7  A    between atoms: C_12  and  O_13
REMARK    8  A    between atoms: O_13  and  C_14
REMARK    9  A    between atoms: C_19  and  C_20
REMARK                            x       y       z     vdW  Elec       q    Type
REMARK                         _______ _______ _______ _____ _____    ______ ____
ROOT
ATOM      1  N   UNL     1       1.164   8.696  20.625  0.00  0.00    +0.000 N 
ATOM      2  N   UNL     1       1.153   7.403  21.107  0.00  0.00    +0.000 NA
ATOM      3  C   UNL     1       1.763   6.688  20.209  0.00  0.00    +0.000 C 
ATOM      4  C   UNL     1       2.162   7.451  18.985  0.00  0.00    +0.000 C 
ATOM      5  C   UNL     1       1.722   8.835  19.348  0.00  0.00    +0.000 C 
ATOM      6  O   UNL     1       1.796   9.809  18.617  0.00  0.00    +0.000 OA
ENDROOT
BRANCH   1  10
ATOM      7  C   UNL     1      -1.019  11.707  22.625  0.00  0.00    +0.000 A 
ATOM      8  C   UNL     1      -0.954  10.406  23.143  0.00  0.00    +0.000 A 
ATOM      9  C   UNL     1      -0.166   9.430  22.524  0.00  0.00    +0.000 A 
ATOM     10  C   UNL     1       0.506   9.719  21.334  0.00  0.00    +0.000 A 
ATOM     11  C   UNL     1       0.455  11.021  20.823  0.00  0.00    +0.000 A 
ATOM     12  C   UNL     1      -0.281  12.013  21.476  0.00  0.00    +0.000 A 
BRANCH   7  13
ATOM     13  C   UNL     1      -1.899  12.758  23.259  0.00  0.00    +0.000 C 
BRANCH  13  14
ATOM     14  C   UNL     1      -3.400  12.464  23.179  0.00  0.00    +0.000 C 
BRANCH  14  16
ATOM     15  C   UNL     1      -5.618  12.608  24.356  0.00  0.00    +0.000 C 
ATOM     16  C   UNL     1      -4.108  12.614  24.526  0.00  0.00    +0.000 C 
ENDBRANCH  14  16
ENDBRANCH  13  14
ENDBRANCH   7  13
ENDBRANCH   1  10
BRANCH   3  17
ATOM     17  C   UNL     1       2.038   5.214  20.327  0.00  0.00    +0.000 C 
BRANCH  17  18
ATOM     18  O   UNL     1       3.446   4.993  20.331  0.00  0.00    +0.000 OA
BRANCH  18  19
ATOM     19  C   UNL     1       4.032   4.703  19.122  0.00  0.00    +0.000 A 
ATOM     20  C   UNL     1       3.201   4.021  18.226  0.00  0.00    +0.000 A 
ATOM     21  C   UNL     1       3.674   3.644  16.969  0.00  0.00    +0.000 A 
ATOM     22  C   UNL     1       4.986   3.944  16.603  0.00  0.00    +0.000 A 
ATOM     23  F   UNL     1       5.395   3.550  15.386  0.00  0.00    +0.000 F 
ATOM     24  C   UNL     1       5.836   4.625  17.471  0.00  0.00    +0.000 A 
ATOM     25  C   UNL     1       5.346   5.005  18.728  0.00  0.00    +0.000 A 
ATOM     26  F   UNL     1       6.148   5.664  19.578  0.00  0.00    +0.000 F 
BRANCH  24  27
ATOM     27  C   UNL     1       7.244   4.948  17.107  0.00  0.00    +0.000 C 
ATOM     28  N   UNL     1       8.247   4.225  17.680  0.00  0.00    +0.000 N 
ATOM     29  O   UNL     1       7.530   5.843  16.317  0.00  0.00    +0.000 OA
ATOM     30  H   UNL     1       8.096   3.467  18.336  0.00  0.00    +0.000 HD
ATOM     31  H   UNL     1       9.199   4.461  17.425  0.00  0.00    +0.000 HD
ENDBRANCH  24  27
ENDBRANCH  18  19
ENDBRANCH  17  18
ENDBRANCH   3  17
TORSDOF 8
ENDMDL
