MODEL 1
REMARK VINA RESULT:      -7.5      0.000      0.000
REMARK  Name = 
REMARK  3 active torsions:
REMARK  status: ('A' for Active; 'I' for Inactive)
REMARK    1  A    between atoms: C_1  and  C_2
REMARK    2  A    between atoms: C_8  and  C_9
REMARK    3  A    between atoms: C_17  and  C_18
REMARK                            x       y       z     vdW  Elec       q    Type
REMARK                         _______ _______ _______ _____ _____    ______ ____
ROOT
ATOM      1  C   UNL     1      -0.239   9.254  22.437  0.00  0.00    +0.000 C 
ATOM      2  C   UNL     1       0.578   8.767  21.275  0.00  0.00    +0.000 A 
ATOM      3  C   UNL     1       0.820   9.593  20.167  0.00  0.00    +0.000 A 
ATOM      4  C   UNL     1       1.582   9.141  19.083  0.00  0.00    +0.000 A 
ATOM      5 CL   UNL     1       1.847  10.149  17.719  0.00  0.00    +0.000 Cl
ATOM      6  C   UNL     1       2.075   7.841  19.148  0.00  0.00    +0.000 A 
ATOM      7  O   UNL     1       2.809   7.204  18.197  0.00  0.00    +0.000 OA
ATOM      8  C   UNL     1       2.980   5.905  18.599  0.00  0.00    +0.000 A 
ATOM      9  C   UNL     1       2.464   5.742  19.878  0.00  0.00    +0.000 A 
ATOM     10  C   UNL     1       2.460   4.513  20.712  0.00  0.00    +0.000 C 
ATOM     11  C   UNL     1       1.846   6.985  20.217  0.00  0.00    +0.000 A 
ATOM     12  C   UNL     1       1.094   7.458  21.307  0.00  0.00    +0.000 A 
ENDROOT
BRANCH   8  13
ATOM     13  C   UNL     1       3.636   4.960  17.711  0.00  0.00    +0.000 C 
ATOM     14  O   UNL     1       2.994   4.081  17.133  0.00  0.00    +0.000 OA
ATOM     15  N   UNL     1       5.002   5.118  17.457  0.00  0.00    +0.000 N 
ATOM     16  C   UNL     1       5.890   6.134  18.040  0.00  0.00    +0.000 C 
ATOM     17  C   UNL     1       6.803   6.755  16.979  0.00  0.00    +0.000 C 
ATOM     18  O   UNL     1       7.498   5.756  16.222  0.00  0.00    +0.000 OA
ATOM     19  C   UNL     1       6.566   4.882  15.569  0.00  0.00    +0.000 C 
ATOM     20  C   UNL     1       5.691   4.156  16.595  0.00  0.00    +0.000 C 
ENDBRANCH   8  13
TORSDOF 1
ENDMDL
MODEL 2
REMARK VINA RESULT:      -6.6      2.324      6.388
REMARK  Name = 
REMARK  3 active torsions:
REMARK  status: ('A' for Active; 'I' for Inactive)
REMARK    1  A    between atoms: C_1  and  C_2
REMARK    2  A    between atoms: C_8  and  C_9
REMARK    3  A    between atoms: C_17  and  C_18
REMARK                            x       y       z     vdW  Elec       q    Type
REMARK                         _______ _______ _______ _____ _____    ______ ____
ROOT
ATOM      1  C   UNL     1       6.391   3.736  13.949  0.00  0.00    +0.000 C 
ATOM      2  C   UNL     1       5.967   4.483  15.181  0.00  0.00    +0.000 A 
ATOM      3  C   UNL     1       6.833   5.390  15.810  0.00  0.00    +0.000 A 
ATOM      4  C   UNL     1       6.439   6.088  16.957  0.00  0.00    +0.000 A 
ATOM      5 CL   UNL     1       7.518   7.172  17.736  0.00  0.00    +0.000 Cl
ATOM      6  C   UNL     1       5.162   5.834  17.451  0.00  0.00    +0.000 A 
ATOM      7  O   UNL     1       4.598   6.381  18.560  0.00  0.00    +0.000 OA
ATOM      8  C   UNL     1       3.388   5.771  18.760  0.00  0.00    +0.000 A 
ATOM      9  C   UNL     1       3.114   4.920  17.697  0.00  0.00    +0.000 A 
ATOM     10  C   UNL     1       1.905   4.084  17.483  0.00  0.00    +0.000 C 
ATOM     11  C   UNL     1       4.279   4.933  16.869  0.00  0.00    +0.000 A 
ATOM     12  C   UNL     1       4.682   4.253  15.707  0.00  0.00    +0.000 A 
ENDROOT
BRANCH   8  13
ATOM     13  C   UNL     1       2.615   6.084  19.951  0.00  0.00    +0.000 C 
ATOM     14  O   UNL     1       2.692   5.382  20.961  0.00  0.00    +0.000 OA
ATOM     15  N   UNL     1       1.841   7.248  19.959  0.00  0.00    +0.000 N 
ATOM     16  C   UNL     1       1.677   8.200  18.849  0.00  0.00    +0.000 C 
ATOM     17  C   UNL     1       1.777   9.649  19.336  0.00  0.00    +0.000 C 
ATOM     18  O   UNL     1       0.900   9.903  20.440  0.00  0.00    +0.000 OA
ATOM     19  C   UNL     1       1.208   9.031  21.537  0.00  0.00    +0.000 C 
ATOM     20  C   UNL     1       1.026   7.564  21.133  0.00  0.00    +0.000 C 
ENDBRANCH   8  13
TORSDOF 1
ENDMDL
MODEL 3
REMARK VINA RESULT:      -6.5      2.622      4.055
REMARK  Name = 
REMARK  3 active torsions:
REMARK  status: ('A' for Active; 'I' for Inactive)
REMARK    1  A    between atoms: C_1  and  C_2
REMARK    2  A    between atoms: C_8  and  C_9
REMARK    3  A    between atoms: C_17  and  C_18
REMARK                            x       y       z     vdW  Elec       q    Type
REMARK                         _______ _______ _______ _____ _____    ______ ____
ROOT
ATOM      1  C   UNL     1       0.456  12.188  18.518  0.00  0.00    +0.000 C 
ATOM      2  C   UNL     1       0.818  10.820  19.021  0.00  0.00    +0.000 A 
ATOM      3  C   UNL     1       0.366  10.367  20.269  0.00  0.00    +0.000 A 
ATOM      4  C   UNL     1       0.701   9.092  20.740  0.00  0.00    +0.000 A 
ATOM      5 CL   UNL     1       0.167   8.560  22.282  0.00  0.00    +0.000 Cl
ATOM      6  C   UNL     1       1.508   8.304  19.925  0.00  0.00    +0.000 A 
ATOM      7  O   UNL     1       1.968   7.055  20.203  0.00  0.00    +0.000 OA
ATOM      8  C   UNL     1       2.826   6.690  19.199  0.00  0.00    +0.000 A 
ATOM      9  C   UNL     1       2.815   7.657  18.203  0.00  0.00    +0.000 A 
ATOM     10  C   UNL     1       3.568   7.659  16.922  0.00  0.00    +0.000 C 
ATOM     11  C   UNL     1       1.991   8.719  18.690  0.00  0.00    +0.000 A 
ATOM     12  C   UNL     1       1.631   9.995  18.223  0.00  0.00    +0.000 A 
ENDROOT
BRANCH   8  13
ATOM     13  C   UNL     1       3.557   5.438  19.301  0.00  0.00    +0.000 C 
ATOM     14  O   UNL     1       4.666   5.392  19.837  0.00  0.00    +0.000 OA
ATOM     15  N   UNL     1       2.942   4.266  18.850  0.00  0.00    +0.000 N 
ATOM     16  C   UNL     1       1.616   4.156  18.223  0.00  0.00    +0.000 C 
ATOM     17  C   UNL     1       0.823   2.977  18.793  0.00  0.00    +0.000 C 
ATOM     18  O   UNL     1       1.576   1.758  18.753  0.00  0.00    +0.000 OA
ATOM     19  C   UNL     1       2.793   1.895  19.501  0.00  0.00    +0.000 C 
ATOM     20  C   UNL     1       3.674   2.999  18.909  0.00  0.00    +0.000 C 
ENDBRANCH   8  13
TORSDOF 1
ENDMDL
MODEL 4
REMARK VINA RESULT:      -6.3      3.144      6.548
REMARK  Name = 
REMARK  3 active torsions:
REMARK  status: ('A' for Active; 'I' for Inactive)
REMARK    1  A    between atoms: C_1  and  C_2
REMARK    2  A    between atoms: C_8  and  C_9
REMARK    3  A    between atoms: C_17  and  C_18
REMARK                            x       y       z     vdW  Elec       q    Type
REMARK                         _______ _______ _______ _____ _____    ______ ____
ROOT
ATOM      1  C   UNL     1       7.058   4.069  13.320  0.00  0.00    +0.000 C 
ATOM      2  C   UNL     1       6.538   4.646  14.605  0.00  0.00    +0.000 A 
ATOM      3  C   UNL     1       7.274   5.607  15.315  0.00  0.00    +0.000 A 
ATOM      4  C   UNL     1       6.790   6.147  16.513  0.00  0.00    +0.000 A 
ATOM      5 CL   UNL     1       7.713   7.300  17.388  0.00  0.00    +0.000 Cl
ATOM      6  C   UNL     1       5.561   5.682  16.971  0.00  0.00    +0.000 A 
ATOM      7  O   UNL     1       4.930   6.053  18.117  0.00  0.00    +0.000 OA
ATOM      8  C   UNL     1       3.814   5.270  18.254  0.00  0.00    +0.000 A 
ATOM      9  C   UNL     1       3.657   4.481  17.122  0.00  0.00    +0.000 A 
ATOM     10  C   UNL     1       2.573   3.509  16.828  0.00  0.00    +0.000 C 
ATOM     11  C   UNL     1       4.808   4.721  16.309  0.00  0.00    +0.000 A 
ATOM     12  C   UNL     1       5.298   4.201  15.098  0.00  0.00    +0.000 A 
ENDROOT
BRANCH   8  13
ATOM     13  C   UNL     1       3.008   5.375  19.459  0.00  0.00    +0.000 C 
ATOM     14  O   UNL     1       2.300   6.362  19.666  0.00  0.00    +0.000 OA
ATOM     15  N   UNL     1       2.987   4.294  20.345  0.00  0.00    +0.000 N 
ATOM     16  C   UNL     1       3.746   3.041  20.218  0.00  0.00    +0.000 C 
ATOM     17  C   UNL     1       2.873   1.822  20.532  0.00  0.00    +0.000 C 
ATOM     18  O   UNL     1       2.201   1.957  21.791  0.00  0.00    +0.000 OA
ATOM     19  C   UNL     1       1.371   3.128  21.794  0.00  0.00    +0.000 C 
ATOM     20  C   UNL     1       2.212   4.391  21.584  0.00  0.00    +0.000 C 
ENDBRANCH   8  13
TORSDOF 1
ENDMDL
MODEL 5
REMARK VINA RESULT:      -6.3      1.833      2.894
REMARK  Name = 
REMARK  3 active torsions:
REMARK  status: ('A' for Active; 'I' for Inactive)
REMARK    1  A    between atoms: C_1  and  C_2
REMARK    2  A    between atoms: C_8  and  C_9
REMARK    3  A    between atoms: C_17  and  C_18
REMARK                            x       y       z     vdW  Elec       q    Type
REMARK                         _______ _______ _______ _____ _____    ______ ____
ROOT
ATOM      1  C   UNL     1      -0.748  10.072  22.531  0.00  0.00    +0.000 C 
ATOM      2  C   UNL     1       0.156   9.565  21.444  0.00  0.00    +0.000 A 
ATOM      3  C   UNL     1       0.449  10.355  20.322  0.00  0.00    +0.000 A 
ATOM      4  C   UNL     1       1.293   9.885  19.309  0.00  0.00    +0.000 A 
ATOM      5 CL   UNL     1       1.621  10.847  17.926  0.00  0.00    +0.000 Cl
ATOM      6  C   UNL     1       1.814   8.602  19.457  0.00  0.00    +0.000 A 
ATOM      7  O   UNL     1       2.625   7.950  18.582  0.00  0.00    +0.000 OA
ATOM      8  C   UNL     1       2.803   6.673  19.045  0.00  0.00    +0.000 A 
ATOM      9  C   UNL     1       2.208   6.544  20.293  0.00  0.00    +0.000 A 
ATOM     10  C   UNL     1       2.180   5.348  21.173  0.00  0.00    +0.000 C 
ATOM     11  C   UNL     1       1.536   7.781  20.542  0.00  0.00    +0.000 A 
ATOM     12  C   UNL     1       0.702   8.273  21.561  0.00  0.00    +0.000 A 
ENDROOT
BRANCH   8  13
ATOM     13  C   UNL     1       3.540   5.714  18.239  0.00  0.00    +0.000 C 
ATOM     14  O   UNL     1       4.737   5.875  17.997  0.00  0.00    +0.000 OA
ATOM     15  N   UNL     1       2.882   4.557  17.809  0.00  0.00    +0.000 N 
ATOM     16  C   UNL     1       1.473   4.209  18.048  0.00  0.00    +0.000 C 
ATOM     17  C   UNL     1       1.322   2.744  18.468  0.00  0.00    +0.000 C 
ATOM     18  O   UNL     1       1.983   1.857  17.557  0.00  0.00    +0.000 OA
ATOM     19  C   UNL     1       3.382   2.168  17.480  0.00  0.00    +0.000 C 
ATOM     20  C   UNL     1       3.593   3.595  16.966  0.00  0.00    +0.000 C 
ENDBRANCH   8  13
TORSDOF 1
ENDMDL
MODEL 6
REMARK VINA RESULT:      -6.2      3.540      7.188
REMARK  Name = 
REMARK  3 active torsions:
REMARK  status: ('A' for Active; 'I' for Inactive)
REMARK    1  A    between atoms: C_1  and  C_2
REMARK    2  A    between atoms: C_8  and  C_9
REMARK    3  A    between atoms: C_17  and  C_18
REMARK                            x       y       z     vdW  Elec       q    Type
REMARK                         _______ _______ _______ _____ _____    ______ ____
ROOT
ATOM      1  C   UNL     1       4.386   5.043  16.612  0.00  0.00    +0.000 C 
ATOM      2  C   UNL     1       3.627   5.726  17.714  0.00  0.00    +0.000 A 
ATOM      3  C   UNL     1       3.217   5.019  18.854  0.00  0.00    +0.000 A 
ATOM      4  C   UNL     1       2.511   5.653  19.883  0.00  0.00    +0.000 A 
ATOM      5 CL   UNL     1       1.987   4.771  21.259  0.00  0.00    +0.000 Cl
ATOM      6  C   UNL     1       2.225   7.006  19.719  0.00  0.00    +0.000 A 
ATOM      7  O   UNL     1       1.532   7.798  20.580  0.00  0.00    +0.000 OA
ATOM      8  C   UNL     1       1.369   9.022  19.986  0.00  0.00    +0.000 A 
ATOM      9  C   UNL     1       2.075   9.057  18.791  0.00  0.00    +0.000 A 
ATOM     10  C   UNL     1       2.204  10.189  17.838  0.00  0.00    +0.000 C 
ATOM     11  C   UNL     1       2.598   7.740  18.601  0.00  0.00    +0.000 A 
ATOM     12  C   UNL     1       3.322   7.094  17.584  0.00  0.00    +0.000 A 
ENDROOT
BRANCH   8  13
ATOM     13  C   UNL     1       0.558  10.035  20.642  0.00  0.00    +0.000 C 
ATOM     14  O   UNL     1       0.934  10.572  21.686  0.00  0.00    +0.000 OA
ATOM     15  N   UNL     1      -0.623  10.450  20.020  0.00  0.00    +0.000 N 
ATOM     16  C   UNL     1      -1.181   9.932  18.762  0.00  0.00    +0.000 C 
ATOM     17  C   UNL     1      -1.673  11.066  17.858  0.00  0.00    +0.000 C 
ATOM     18  O   UNL     1      -2.557  11.956  18.551  0.00  0.00    +0.000 OA
ATOM     19  C   UNL     1      -1.899  12.531  19.689  0.00  0.00    +0.000 C 
ATOM     20  C   UNL     1      -1.475  11.442  20.679  0.00  0.00    +0.000 C 
ENDBRANCH   8  13
TORSDOF 1
ENDMDL
MODEL 7
REMARK VINA RESULT:      -6.1      3.661      5.126
REMARK  Name = 
REMARK  3 active torsions:
REMARK  status: ('A' for Active; 'I' for Inactive)
REMARK    1  A    between atoms: C_1  and  C_2
REMARK    2  A    between atoms: C_8  and  C_9
REMARK    3  A    between atoms: C_17  and  C_18
REMARK                            x       y       z     vdW  Elec       q    Type
REMARK                         _______ _______ _______ _____ _____    ______ ____
ROOT
ATOM      1  C   UNL     1       1.011   3.896  20.766  0.00  0.00    +0.000 C 
ATOM      2  C   UNL     1       2.089   3.730  19.733  0.00  0.00    +0.000 A 
ATOM      3  C   UNL     1       2.594   2.461  19.414  0.00  0.00    +0.000 A 
ATOM      4  C   UNL     1       3.598   2.304  18.451  0.00  0.00    +0.000 A 
ATOM      5 CL   UNL     1       4.230   0.749  18.090  0.00  0.00    +0.000 Cl
ATOM      6  C   UNL     1       4.078   3.457  17.837  0.00  0.00    +0.000 A 
ATOM      7  O   UNL     1       5.062   3.529  16.901  0.00  0.00    +0.000 OA
ATOM      8  C   UNL     1       5.312   4.853  16.655  0.00  0.00    +0.000 A 
ATOM      9  C   UNL     1       4.392   5.636  17.340  0.00  0.00    +0.000 A 
ATOM     10  C   UNL     1       4.272   7.116  17.340  0.00  0.00    +0.000 C 
ATOM     11  C   UNL     1       3.618   4.734  18.134  0.00  0.00    +0.000 A 
ATOM     12  C   UNL     1       2.597   4.874  19.090  0.00  0.00    +0.000 A 
ENDROOT
BRANCH   8  13
ATOM     13  C   UNL     1       6.407   5.224  15.773  0.00  0.00    +0.000 C 
ATOM     14  O   UNL     1       7.450   5.702  16.223  0.00  0.00    +0.000 OA
ATOM     15  N   UNL     1       6.286   4.952  14.407  0.00  0.00    +0.000 N 
ATOM     16  C   UNL     1       5.124   4.356  13.731  0.00  0.00    +0.000 C 
ATOM     17  C   UNL     1       5.550   3.283  12.726  0.00  0.00    +0.000 C 
ATOM     18  O   UNL     1       6.551   3.766  11.821  0.00  0.00    +0.000 OA
ATOM     19  C   UNL     1       7.712   4.202  12.544  0.00  0.00    +0.000 C 
ATOM     20  C   UNL     1       7.360   5.350  13.495  0.00  0.00    +0.000 C 
ENDBRANCH   8  13
TORSDOF 1
ENDMDL
MODEL 8
REMARK VINA RESULT:      -6.0      8.287     11.376
REMARK  Name = 
REMARK  3 active torsions:
REMARK  status: ('A' for Active; 'I' for Inactive)
REMARK    1  A    between atoms: C_1  and  C_2
REMARK    2  A    between atoms: C_8  and  C_9
REMARK    3  A    between atoms: C_17  and  C_18
REMARK                            x       y       z     vdW  Elec       q    Type
REMARK                         _______ _______ _______ _____ _____    ______ ____
ROOT
ATOM      1  C   UNL     1      -3.251  10.148  14.413  0.00  0.00    +0.000 C 
ATOM      2  C   UNL     1      -3.266  10.636  15.834  0.00  0.00    +0.000 A 
ATOM      3  C   UNL     1      -2.129  10.521  16.648  0.00  0.00    +0.000 A 
ATOM      4  C   UNL     1      -2.140  10.975  17.972  0.00  0.00    +0.000 A 
ATOM      5 CL   UNL     1      -0.753  10.803  18.968  0.00  0.00    +0.000 Cl
ATOM      6  C   UNL     1      -3.325  11.531  18.445  0.00  0.00    +0.000 A 
ATOM      7  O   UNL     1      -3.555  12.005  19.698  0.00  0.00    +0.000 OA
ATOM      8  C   UNL     1      -4.879  12.345  19.783  0.00  0.00    +0.000 A 
ATOM      9  C   UNL     1      -5.475  12.211  18.535  0.00  0.00    +0.000 A 
ATOM     10  C   UNL     1      -6.882  12.499  18.159  0.00  0.00    +0.000 C 
ATOM     11  C   UNL     1      -4.478  11.649  17.679  0.00  0.00    +0.000 A 
ATOM     12  C   UNL     1      -4.446  11.205  16.346  0.00  0.00    +0.000 A 
ENDROOT
BRANCH   8  13
ATOM     13  C   UNL     1      -5.429  12.776  21.058  0.00  0.00    +0.000 C 
ATOM     14  O   UNL     1      -6.014  11.982  21.798  0.00  0.00    +0.000 OA
ATOM     15  N   UNL     1      -5.211  14.094  21.468  0.00  0.00    +0.000 N 
ATOM     16  C   UNL     1      -4.505  15.142  20.715  0.00  0.00    +0.000 C 
ATOM     17  C   UNL     1      -3.545  15.927  21.614  0.00  0.00    +0.000 C 
ATOM     18  O   UNL     1      -4.194  16.412  22.795  0.00  0.00    +0.000 OA
ATOM     19  C   UNL     1      -4.740  15.322  23.552  0.00  0.00    +0.000 C 
ATOM     20  C   UNL     1      -5.786  14.561  22.732  0.00  0.00    +0.000 C 
ENDBRANCH   8  13
TORSDOF 1
ENDMDL
MODEL 9
REMARK VINA RESULT:      -5.8      2.982      4.850
REMARK  Name = 
REMARK  3 active torsions:
REMARK  status: ('A' for Active; 'I' for Inactive)
REMARK    1  A    between atoms: C_1  and  C_2
REMARK    2  A    between atoms: C_8  and  C_9
REMARK    3  A    between atoms: C_17  and  C_18
REMARK                            x       y       z     vdW  Elec       q    Type
REMARK                         _______ _______ _______ _____ _____    ______ ____
ROOT
ATOM      1  C   UNL     1       1.534   6.147  20.609  0.00  0.00    +0.000 C 
ATOM      2  C   UNL     1       2.339   5.479  19.532  0.00  0.00    +0.000 A 
ATOM      3  C   UNL     1       2.141   4.126  19.217  0.00  0.00    +0.000 A 
ATOM      4  C   UNL     1       2.890   3.501  18.213  0.00  0.00    +0.000 A 
ATOM      5 CL   UNL     1       2.660   1.838  17.856  0.00  0.00    +0.000 Cl
ATOM      6  C   UNL     1       3.842   4.274  17.553  0.00  0.00    +0.000 A 
ATOM      7  O   UNL     1       4.687   3.857  16.573  0.00  0.00    +0.000 OA
ATOM      8  C   UNL     1       5.541   4.890  16.288  0.00  0.00    +0.000 A 
ATOM      9  C   UNL     1       5.158   6.020  16.998  0.00  0.00    +0.000 A 
ATOM     10  C   UNL     1       5.778   7.369  16.972  0.00  0.00    +0.000 C 
ATOM     11  C   UNL     1       4.081   5.610  17.844  0.00  0.00    +0.000 A 
ATOM     12  C   UNL     1       3.309   6.229  18.843  0.00  0.00    +0.000 A 
ENDROOT
BRANCH   8  13
ATOM     13  C   UNL     1       6.632   4.680  15.350  0.00  0.00    +0.000 C 
ATOM     14  O   UNL     1       7.799   4.609  15.739  0.00  0.00    +0.000 OA
ATOM     15  N   UNL     1       6.323   4.477  14.002  0.00  0.00    +0.000 N 
ATOM     16  C   UNL     1       4.983   4.498  13.395  0.00  0.00    +0.000 C 
ATOM     17  C   UNL     1       4.794   3.335  12.417  0.00  0.00    +0.000 C 
ATOM     18  O   UNL     1       5.854   3.268  11.455  0.00  0.00    +0.000 OA
ATOM     19  C   UNL     1       7.120   3.109  12.114  0.00  0.00    +0.000 C 
ATOM     20  C   UNL     1       7.407   4.300  13.033  0.00  0.00    +0.000 C 
ENDBRANCH   8  13
TORSDOF 1
ENDMDL
