MODEL 1
REMARK VINA RESULT:      -6.8      0.000      0.000
REMARK  Name = 
REMARK  2 active torsions:
REMARK  status: ('A' for Active; 'I' for Inactive)
REMARK    1  A    between atoms: C_1  and  C_2
REMARK    2  A    between atoms: C_2  and  C_4
REMARK                            x       y       z     vdW  Elec       q    Type
REMARK                         _______ _______ _______ _____ _____    ______ ____
ROOT
ATOM      1  C   UNL     1       6.418   4.597  18.128  0.00  0.00    +0.000 C 
ATOM      2  C   UNL     1       5.214   4.153  18.508  0.00  0.00    +0.000 C 
ATOM      3  N   UNL     1       4.471   4.572  19.609  0.00  0.00    +0.000 N 
ATOM      4  C   UNL     1       3.182   4.043  19.462  0.00  0.00    +0.000 A 
ATOM      5  C   UNL     1       2.077   4.133  20.276  0.00  0.00    +0.000 A 
ATOM      6  C   UNL     1       0.956   3.367  19.930  0.00  0.00    +0.000 A 
ATOM      7  C   UNL     1       0.969   2.519  18.799  0.00  0.00    +0.000 A 
ATOM      8  C   UNL     1       2.103   2.418  17.989  0.00  0.00    +0.000 A 
ATOM      9  C   UNL     1       3.189   3.189  18.329  0.00  0.00    +0.000 A 
ATOM     10  N   UNL     1       4.492   3.193  17.791  0.00  0.00    +0.000 N 
ATOM     11  H   UNL     1       4.699   5.439  20.075  0.00  0.00    +0.000 HD
ATOM     12  H   UNL     1       4.639   3.073  16.801  0.00  0.00    +0.000 HD
ENDROOT
BRANCH   1  14
ATOM     13  C   UNL     1       7.632   6.820  18.052  0.00  0.00    +0.000 C 
ATOM     14  C   UNL     1       7.199   5.625  18.867  0.00  0.00    +0.000 C 
ATOM     15  O   UNL     1       7.460   5.522  20.061  0.00  0.00    +0.000 OA
ENDBRANCH   1  14
TORSDOF 1
ENDMDL
MODEL 2
REMARK VINA RESULT:      -6.6      1.734      1.993
REMARK  Name = 
REMARK  2 active torsions:
REMARK  status: ('A' for Active; 'I' for Inactive)
REMARK    1  A    between atoms: C_1  and  C_2
REMARK    2  A    between atoms: C_2  and  C_4
REMARK                            x       y       z     vdW  Elec       q    Type
REMARK                         _______ _______ _______ _____ _____    ______ ____
ROOT
ATOM      1  C   UNL     1       7.050   5.243  18.124  0.00  0.00    +0.000 C 
ATOM      2  C   UNL     1       5.826   4.736  18.317  0.00  0.00    +0.000 C 
ATOM      3  N   UNL     1       4.653   5.090  17.657  0.00  0.00    +0.000 N 
ATOM      4  C   UNL     1       3.689   4.127  17.981  0.00  0.00    +0.000 A 
ATOM      5  C   UNL     1       2.367   4.022  17.616  0.00  0.00    +0.000 A 
ATOM      6  C   UNL     1       1.608   3.014  18.223  0.00  0.00    +0.000 A 
ATOM      7  C   UNL     1       2.175   2.150  19.188  0.00  0.00    +0.000 A 
ATOM      8  C   UNL     1       3.514   2.277  19.567  0.00  0.00    +0.000 A 
ATOM      9  C   UNL     1       4.252   3.259  18.950  0.00  0.00    +0.000 A 
ATOM     10  N   UNL     1       5.562   3.703  19.223  0.00  0.00    +0.000 N 
ATOM     11  H   UNL     1       4.696   5.609  16.789  0.00  0.00    +0.000 HD
ATOM     12  H   UNL     1       6.283   3.047  19.480  0.00  0.00    +0.000 HD
ENDROOT
BRANCH   1  14
ATOM     13  C   UNL     1       7.773   7.646  17.776  0.00  0.00    +0.000 C 
ATOM     14  C   UNL     1       7.357   6.332  17.159  0.00  0.00    +0.000 C 
ATOM     15  O   UNL     1       7.297   6.173  15.944  0.00  0.00    +0.000 OA
ENDBRANCH   1  14
TORSDOF 1
ENDMDL
MODEL 3
REMARK VINA RESULT:      -6.6      2.175      5.471
REMARK  Name = 
REMARK  2 active torsions:
REMARK  status: ('A' for Active; 'I' for Inactive)
REMARK    1  A    between atoms: C_1  and  C_2
REMARK    2  A    between atoms: C_2  and  C_4
REMARK                            x       y       z     vdW  Elec       q    Type
REMARK                         _______ _______ _______ _____ _____    ______ ____
ROOT
ATOM      1  C   UNL     1       3.573   2.961  18.735  0.00  0.00    +0.000 C 
ATOM      2  C   UNL     1       4.528   3.854  18.449  0.00  0.00    +0.000 C 
ATOM      3  N   UNL     1       4.480   4.859  17.487  0.00  0.00    +0.000 N 
ATOM      4  C   UNL     1       5.568   5.710  17.723  0.00  0.00    +0.000 A 
ATOM      5  C   UNL     1       5.993   6.832  17.052  0.00  0.00    +0.000 A 
ATOM      6  C   UNL     1       7.214   7.395  17.442  0.00  0.00    +0.000 A 
ATOM      7  C   UNL     1       7.990   6.819  18.474  0.00  0.00    +0.000 A 
ATOM      8  C   UNL     1       7.561   5.666  19.137  0.00  0.00    +0.000 A 
ATOM      9  C   UNL     1       6.351   5.135  18.757  0.00  0.00    +0.000 A 
ATOM     10  N   UNL     1       5.740   3.925  19.143  0.00  0.00    +0.000 N 
ATOM     11  H   UNL     1       3.594   5.138  17.087  0.00  0.00    +0.000 HD
ATOM     12  H   UNL     1       5.809   3.596  20.094  0.00  0.00    +0.000 HD
ENDROOT
BRANCH   1  14
ATOM     13  C   UNL     1       1.102   2.411  18.856  0.00  0.00    +0.000 C 
ATOM     14  C   UNL     1       2.271   2.874  18.020  0.00  0.00    +0.000 C 
ATOM     15  O   UNL     1       2.148   3.176  16.837  0.00  0.00    +0.000 OA
ENDBRANCH   1  14
TORSDOF 1
ENDMDL
MODEL 4
REMARK VINA RESULT:      -6.5      1.274      2.149
REMARK  Name = 
REMARK  2 active torsions:
REMARK  status: ('A' for Active; 'I' for Inactive)
REMARK    1  A    between atoms: C_1  and  C_2
REMARK    2  A    between atoms: C_2  and  C_4
REMARK                            x       y       z     vdW  Elec       q    Type
REMARK                         _______ _______ _______ _____ _____    ______ ____
ROOT
ATOM      1  C   UNL     1       6.406   5.268  18.342  0.00  0.00    +0.000 C 
ATOM      2  C   UNL     1       5.212   4.757  18.668  0.00  0.00    +0.000 C 
ATOM      3  N   UNL     1       4.678   3.538  18.259  0.00  0.00    +0.000 N 
ATOM      4  C   UNL     1       3.546   3.298  19.049  0.00  0.00    +0.000 A 
ATOM      5  C   UNL     1       2.648   2.257  19.036  0.00  0.00    +0.000 A 
ATOM      6  C   UNL     1       1.520   2.367  19.859  0.00  0.00    +0.000 A 
ATOM      7  C   UNL     1       1.304   3.514  20.656  0.00  0.00    +0.000 A 
ATOM      8  C   UNL     1       2.212   4.577  20.648  0.00  0.00    +0.000 A 
ATOM      9  C   UNL     1       3.324   4.447  19.849  0.00  0.00    +0.000 A 
ATOM     10  N   UNL     1       4.321   5.393  19.537  0.00  0.00    +0.000 N 
ATOM     11  H   UNL     1       5.279   2.828  17.863  0.00  0.00    +0.000 HD
ATOM     12  H   UNL     1       4.656   6.036  20.239  0.00  0.00    +0.000 HD
ENDROOT
BRANCH   1  14
ATOM     13  C   UNL     1       7.017   4.647  15.963  0.00  0.00    +0.000 C 
ATOM     14  C   UNL     1       7.375   4.605  17.429  0.00  0.00    +0.000 C 
ATOM     15  O   UNL     1       8.406   4.076  17.834  0.00  0.00    +0.000 OA
ENDBRANCH   1  14
TORSDOF 1
ENDMDL
MODEL 5
REMARK VINA RESULT:      -6.4      0.964      1.886
REMARK  Name = 
REMARK  2 active torsions:
REMARK  status: ('A' for Active; 'I' for Inactive)
REMARK    1  A    between atoms: C_1  and  C_2
REMARK    2  A    between atoms: C_2  and  C_4
REMARK                            x       y       z     vdW  Elec       q    Type
REMARK                         _______ _______ _______ _____ _____    ______ ____
ROOT
ATOM      1  C   UNL     1       5.971   5.661  19.199  0.00  0.00    +0.000 C 
ATOM      2  C   UNL     1       4.786   5.044  19.116  0.00  0.00    +0.000 C 
ATOM      3  N   UNL     1       4.395   4.094  18.176  0.00  0.00    +0.000 N 
ATOM      4  C   UNL     1       3.194   3.533  18.632  0.00  0.00    +0.000 A 
ATOM      5  C   UNL     1       2.382   2.576  18.071  0.00  0.00    +0.000 A 
ATOM      6  C   UNL     1       1.157   2.320  18.699  0.00  0.00    +0.000 A 
ATOM      7  C   UNL     1       0.763   3.034  19.854  0.00  0.00    +0.000 A 
ATOM      8  C   UNL     1       1.586   4.019  20.406  0.00  0.00    +0.000 A 
ATOM      9  C   UNL     1       2.794   4.247  19.790  0.00  0.00    +0.000 A 
ATOM     10  N   UNL     1       3.751   5.252  20.033  0.00  0.00    +0.000 N 
ATOM     11  H   UNL     1       5.089   3.618  17.616  0.00  0.00    +0.000 HD
ATOM     12  H   UNL     1       3.950   5.554  20.974  0.00  0.00    +0.000 HD
ENDROOT
BRANCH   1  14
ATOM     13  C   UNL     1       7.421   6.625  17.358  0.00  0.00    +0.000 C 
ATOM     14  C   UNL     1       7.090   5.447  18.243  0.00  0.00    +0.000 C 
ATOM     15  O   UNL     1       7.717   4.394  18.187  0.00  0.00    +0.000 OA
ENDBRANCH   1  14
TORSDOF 1
ENDMDL
MODEL 6
REMARK VINA RESULT:      -6.4      2.227      2.616
REMARK  Name = 
REMARK  2 active torsions:
REMARK  status: ('A' for Active; 'I' for Inactive)
REMARK    1  A    between atoms: C_1  and  C_2
REMARK    2  A    between atoms: C_2  and  C_4
REMARK                            x       y       z     vdW  Elec       q    Type
REMARK                         _______ _______ _______ _____ _____    ______ ____
ROOT
ATOM      1  C   UNL     1       6.041   4.375  16.786  0.00  0.00    +0.000 C 
ATOM      2  C   UNL     1       5.008   4.205  17.621  0.00  0.00    +0.000 C 
ATOM      3  N   UNL     1       3.693   4.619  17.430  0.00  0.00    +0.000 N 
ATOM      4  C   UNL     1       2.917   3.997  18.417  0.00  0.00    +0.000 A 
ATOM      5  C   UNL     1       1.571   4.085  18.688  0.00  0.00    +0.000 A 
ATOM      6  C   UNL     1       1.103   3.449  19.845  0.00  0.00    +0.000 A 
ATOM      7  C   UNL     1       1.984   2.762  20.710  0.00  0.00    +0.000 A 
ATOM      8  C   UNL     1       3.353   2.695  20.438  0.00  0.00    +0.000 A 
ATOM      9  C   UNL     1       3.796   3.307  19.289  0.00  0.00    +0.000 A 
ATOM     10  N   UNL     1       5.113   3.519  18.835  0.00  0.00    +0.000 N 
ATOM     11  H   UNL     1       3.371   4.877  16.507  0.00  0.00    +0.000 HD
ATOM     12  H   UNL     1       5.822   2.813  18.968  0.00  0.00    +0.000 HD
ENDROOT
BRANCH   1  14
ATOM     13  C   UNL     1       6.339   4.280  14.271  0.00  0.00    +0.000 C 
ATOM     14  C   UNL     1       5.950   5.091  15.485  0.00  0.00    +0.000 C 
ATOM     15  O   UNL     1       5.569   6.254  15.397  0.00  0.00    +0.000 OA
ENDBRANCH   1  14
TORSDOF 1
ENDMDL
MODEL 7
REMARK VINA RESULT:      -6.3      1.879      1.924
REMARK  Name = 
REMARK  2 active torsions:
REMARK  status: ('A' for Active; 'I' for Inactive)
REMARK    1  A    between atoms: C_1  and  C_2
REMARK    2  A    between atoms: C_2  and  C_4
REMARK                            x       y       z     vdW  Elec       q    Type
REMARK                         _______ _______ _______ _____ _____    ______ ____
ROOT
ATOM      1  C   UNL     1       6.487   4.719  17.689  0.00  0.00    +0.000 C 
ATOM      2  C   UNL     1       5.427   4.573  18.495  0.00  0.00    +0.000 C 
ATOM      3  N   UNL     1       4.421   5.504  18.740  0.00  0.00    +0.000 N 
ATOM      4  C   UNL     1       3.395   4.832  19.418  0.00  0.00    +0.000 A 
ATOM      5  C   UNL     1       2.196   5.291  19.911  0.00  0.00    +0.000 A 
ATOM      6  C   UNL     1       1.431   4.404  20.678  0.00  0.00    +0.000 A 
ATOM      7  C   UNL     1       1.886   3.094  20.953  0.00  0.00    +0.000 A 
ATOM      8  C   UNL     1       3.115   2.643  20.465  0.00  0.00    +0.000 A 
ATOM      9  C   UNL     1       3.846   3.518  19.697  0.00  0.00    +0.000 A 
ATOM     10  N   UNL     1       5.157   3.393  19.195  0.00  0.00    +0.000 N 
ATOM     11  H   UNL     1       4.297   6.293  18.120  0.00  0.00    +0.000 HD
ATOM     12  H   UNL     1       5.495   2.505  18.856  0.00  0.00    +0.000 HD
ENDROOT
BRANCH   1  14
ATOM     13  C   UNL     1       7.519   7.033  17.696  0.00  0.00    +0.000 C 
ATOM     14  C   UNL     1       6.788   5.960  16.926  0.00  0.00    +0.000 C 
ATOM     15  O   UNL     1       6.483   6.098  15.746  0.00  0.00    +0.000 OA
ENDBRANCH   1  14
TORSDOF 1
ENDMDL
MODEL 8
REMARK VINA RESULT:      -6.3      1.142      1.170
REMARK  Name = 
REMARK  2 active torsions:
REMARK  status: ('A' for Active; 'I' for Inactive)
REMARK    1  A    between atoms: C_1  and  C_2
REMARK    2  A    between atoms: C_2  and  C_4
REMARK                            x       y       z     vdW  Elec       q    Type
REMARK                         _______ _______ _______ _____ _____    ______ ____
ROOT
ATOM      1  C   UNL     1       5.770   5.081  17.270  0.00  0.00    +0.000 C 
ATOM      2  C   UNL     1       4.780   4.440  17.902  0.00  0.00    +0.000 C 
ATOM      3  N   UNL     1       4.806   3.913  19.191  0.00  0.00    +0.000 N 
ATOM      4  C   UNL     1       3.486   3.584  19.529  0.00  0.00    +0.000 A 
ATOM      5  C   UNL     1       2.967   3.014  20.667  0.00  0.00    +0.000 A 
ATOM      6  C   UNL     1       1.610   2.669  20.656  0.00  0.00    +0.000 A 
ATOM      7  C   UNL     1       0.810   2.881  19.510  0.00  0.00    +0.000 A 
ATOM      8  C   UNL     1       1.351   3.443  18.350  0.00  0.00    +0.000 A 
ATOM      9  C   UNL     1       2.679   3.794  18.381  0.00  0.00    +0.000 A 
ATOM     10  N   UNL     1       3.515   4.244  17.339  0.00  0.00    +0.000 N 
ATOM     11  H   UNL     1       5.524   4.200  19.843  0.00  0.00    +0.000 HD
ATOM     12  H   UNL     1       3.162   4.872  16.634  0.00  0.00    +0.000 HD
ENDROOT
BRANCH   1  14
ATOM     13  C   UNL     1       7.554   6.757  17.927  0.00  0.00    +0.000 C 
ATOM     14  C   UNL     1       7.119   5.313  17.853  0.00  0.00    +0.000 C 
ATOM     15  O   UNL     1       7.825   4.397  18.264  0.00  0.00    +0.000 OA
ENDBRANCH   1  14
TORSDOF 1
ENDMDL
MODEL 9
REMARK VINA RESULT:      -6.3      2.329      5.281
REMARK  Name = 
REMARK  2 active torsions:
REMARK  status: ('A' for Active; 'I' for Inactive)
REMARK    1  A    between atoms: C_1  and  C_2
REMARK    2  A    between atoms: C_2  and  C_4
REMARK                            x       y       z     vdW  Elec       q    Type
REMARK                         _______ _______ _______ _____ _____    ______ ____
ROOT
ATOM      1  C   UNL     1       3.469   2.735  19.625  0.00  0.00    +0.000 C 
ATOM      2  C   UNL     1       4.258   3.636  19.026  0.00  0.00    +0.000 C 
ATOM      3  N   UNL     1       3.863   4.679  18.193  0.00  0.00    +0.000 N 
ATOM      4  C   UNL     1       4.975   5.515  18.024  0.00  0.00    +0.000 A 
ATOM      5  C   UNL     1       5.130   6.662  17.281  0.00  0.00    +0.000 A 
ATOM      6  C   UNL     1       6.418   7.205  17.193  0.00  0.00    +0.000 A 
ATOM      7  C   UNL     1       7.519   6.584  17.825  0.00  0.00    +0.000 A 
ATOM      8  C   UNL     1       7.356   5.407  18.560  0.00  0.00    +0.000 A 
ATOM      9  C   UNL     1       6.084   4.896  18.655  0.00  0.00    +0.000 A 
ATOM     10  N   UNL     1       5.644   3.673  19.202  0.00  0.00    +0.000 N 
ATOM     11  H   UNL     1       2.897   4.977  18.175  0.00  0.00    +0.000 HD
ATOM     12  H   UNL     1       6.067   3.306  20.041  0.00  0.00    +0.000 HD
ENDROOT
BRANCH   1  14
ATOM     13  C   UNL     1       1.192   2.937  20.717  0.00  0.00    +0.000 C 
ATOM     14  C   UNL     1       1.992   2.682  19.462  0.00  0.00    +0.000 C 
ATOM     15  O   UNL     1       1.455   2.466  18.380  0.00  0.00    +0.000 OA
ENDBRANCH   1  14
TORSDOF 1
ENDMDL
