MODEL 1
REMARK VINA RESULT:      -6.7      0.000      0.000
REMARK  Name = 
REMARK  6 active torsions:
REMARK  status: ('A' for Active; 'I' for Inactive)
REMARK    1  A    between atoms: C_1  and  N_2
REMARK    2  A    between atoms: N_2  and  C_3
REMARK    3  A    between atoms: N_2  and  C_11
REMARK    4  A    between atoms: C_3  and  C_4
REMARK    5  A    between atoms: C_14  and  C_16
REMARK    6  A    between atoms: C_22  and  O_23
REMARK                            x       y       z     vdW  Elec       q    Type
REMARK                         _______ _______ _______ _____ _____    ______ ____
ROOT
ATOM      1  C   UNL     1       2.760   6.557  19.512  0.00  0.00    +0.000 C 
ATOM      2  C   UNL     1       1.695   7.087  20.497  0.00  0.00    +0.000 C 
ATOM      3  N   UNL     1       1.362   8.429  20.032  0.00  0.00    +0.000 N 
ATOM      4  C   UNL     1       0.387   9.174  20.693  0.00  0.00    +0.000 C 
ATOM      5  O   UNL     1      -0.136   8.698  21.704  0.00  0.00    +0.000 OA
ATOM      6  C   UNL     1       1.992   8.701  18.749  0.00  0.00    +0.000 C 
ATOM      7  C   UNL     1       2.433   7.341  18.214  0.00  0.00    +0.000 C 
ENDROOT
BRANCH   4   8
ATOM      8  C   UNL     1      -0.001  10.476  20.145  0.00  0.00    +0.000 A 
ATOM      9  C   UNL     1      -0.941  10.832  19.190  0.00  0.00    +0.000 A 
ATOM     10  C   UNL     1      -1.028  12.240  18.985  0.00  0.00    +0.000 A 
ATOM     11  C   UNL     1      -0.107  12.924  19.743  0.00  0.00    +0.000 A 
ATOM     12  S   UNL     1       0.837  11.875  20.705  0.00  0.00    +0.000 S 
ENDBRANCH   4   8
BRANCH   1  14
ATOM     13  C   UNL     1       1.968   4.308  20.154  0.00  0.00    +0.000 C 
ATOM     14  N   UNL     1       2.904   5.090  19.338  0.00  0.00    +0.000 NA
BRANCH  14  15
ATOM     15  C   UNL     1       4.300   4.667  19.576  0.00  0.00    +0.000 C 
BRANCH  15  16
ATOM     16  C   UNL     1       5.131   4.571  18.311  0.00  0.00    +0.000 A 
ATOM     17  C   UNL     1       6.491   4.920  18.316  0.00  0.00    +0.000 A 
ATOM     18  C   UNL     1       7.243   4.862  17.141  0.00  0.00    +0.000 A 
ATOM     19  C   UNL     1       6.635   4.453  15.961  0.00  0.00    +0.000 A 
ATOM     20  F   UNL     1       7.351   4.411  14.829  0.00  0.00    +0.000 F 
ATOM     21  C   UNL     1       5.294   4.091  15.934  0.00  0.00    +0.000 A 
ATOM     22  C   UNL     1       4.542   4.148  17.108  0.00  0.00    +0.000 A 
ENDBRANCH  15  16
ENDBRANCH  14  15
ENDBRANCH   1  14
BRANCH   7  23
ATOM     23  O   UNL     1       3.544   7.477  17.332  0.00  0.00    +0.000 OA
ATOM     24  H   UNL     1       3.349   8.190  16.701  0.00  0.00    +0.000 HD
ENDBRANCH   7  23
TORSDOF 5
ENDMDL
MODEL 2
REMARK VINA RESULT:      -6.6      0.684      1.334
REMARK  Name = 
REMARK  6 active torsions:
REMARK  status: ('A' for Active; 'I' for Inactive)
REMARK    1  A    between atoms: C_1  and  N_2
REMARK    2  A    between atoms: N_2  and  C_3
REMARK    3  A    between atoms: N_2  and  C_11
REMARK    4  A    between atoms: C_3  and  C_4
REMARK    5  A    between atoms: C_14  and  C_16
REMARK    6  A    between atoms: C_22  and  O_23
REMARK                            x       y       z     vdW  Elec       q    Type
REMARK                         _______ _______ _______ _____ _____    ______ ____
ROOT
ATOM      1  C   UNL     1       2.715   6.470  19.454  0.00  0.00    +0.000 C 
ATOM      2  C   UNL     1       1.684   7.044  20.450  0.00  0.00    +0.000 C 
ATOM      3  N   UNL     1       1.455   8.422  20.029  0.00  0.00    +0.000 N 
ATOM      4  C   UNL     1       0.531   9.214  20.709  0.00  0.00    +0.000 C 
ATOM      5  O   UNL     1      -0.034   8.744  21.700  0.00  0.00    +0.000 OA
ATOM      6  C   UNL     1       2.114   8.690  18.760  0.00  0.00    +0.000 C 
ATOM      7  C   UNL     1       2.459   7.320  18.181  0.00  0.00    +0.000 C 
ENDROOT
BRANCH   4   8
ATOM      8  C   UNL     1       0.245  10.559  20.203  0.00  0.00    +0.000 A 
ATOM      9  C   UNL     1       0.837  11.786  20.457  0.00  0.00    +0.000 A 
ATOM     10  C   UNL     1       0.265  12.853  19.704  0.00  0.00    +0.000 A 
ATOM     11  C   UNL     1      -0.794  12.426  18.938  0.00  0.00    +0.000 A 
ATOM     12  S   UNL     1      -1.079  10.751  19.115  0.00  0.00    +0.000 S 
ENDBRANCH   4   8
BRANCH   1  14
ATOM     13  C   UNL     1       1.737   4.268  19.993  0.00  0.00    +0.000 C 
ATOM     14  N   UNL     1       2.752   5.003  19.230  0.00  0.00    +0.000 NA
BRANCH  14  15
ATOM     15  C   UNL     1       4.105   4.466  19.488  0.00  0.00    +0.000 C 
BRANCH  15  16
ATOM     16  C   UNL     1       5.012   4.492  18.273  0.00  0.00    +0.000 A 
ATOM     17  C   UNL     1       4.545   4.072  17.017  0.00  0.00    +0.000 A 
ATOM     18  C   UNL     1       5.395   4.066  15.909  0.00  0.00    +0.000 A 
ATOM     19  C   UNL     1       6.712   4.484  16.056  0.00  0.00    +0.000 A 
ATOM     20  F   UNL     1       7.533   4.465  14.998  0.00  0.00    +0.000 F 
ATOM     21  C   UNL     1       7.193   4.915  17.287  0.00  0.00    +0.000 A 
ATOM     22  C   UNL     1       6.344   4.921  18.394  0.00  0.00    +0.000 A 
ENDBRANCH  15  16
ENDBRANCH  14  15
ENDBRANCH   1  14
BRANCH   7  23
ATOM     23  O   UNL     1       3.584   7.403  17.312  0.00  0.00    +0.000 OA
ATOM     24  H   UNL     1       3.347   6.995  16.463  0.00  0.00    +0.000 HD
ENDBRANCH   7  23
TORSDOF 5
ENDMDL
MODEL 3
REMARK VINA RESULT:      -6.5      1.899      2.827
REMARK  Name = 
REMARK  6 active torsions:
REMARK  status: ('A' for Active; 'I' for Inactive)
REMARK    1  A    between atoms: C_1  and  N_2
REMARK    2  A    between atoms: N_2  and  C_3
REMARK    3  A    between atoms: N_2  and  C_11
REMARK    4  A    between atoms: C_3  and  C_4
REMARK    5  A    between atoms: C_14  and  C_16
REMARK    6  A    between atoms: C_22  and  O_23
REMARK                            x       y       z     vdW  Elec       q    Type
REMARK                         _______ _______ _______ _____ _____    ______ ____
ROOT
ATOM      1  C   UNL     1       2.754   4.410  19.097  0.00  0.00    +0.000 C 
ATOM      2  C   UNL     1       2.764   5.881  18.628  0.00  0.00    +0.000 C 
ATOM      3  N   UNL     1       2.006   6.620  19.631  0.00  0.00    +0.000 N 
ATOM      4  C   UNL     1       1.862   8.002  19.518  0.00  0.00    +0.000 C 
ATOM      5  O   UNL     1       2.336   8.567  18.529  0.00  0.00    +0.000 OA
ATOM      6  C   UNL     1       1.685   5.768  20.766  0.00  0.00    +0.000 C 
ATOM      7  C   UNL     1       2.598   4.552  20.634  0.00  0.00    +0.000 C 
ENDROOT
BRANCH   4   8
ATOM      8  C   UNL     1       1.185   8.733  20.592  0.00  0.00    +0.000 A 
ATOM      9  C   UNL     1       1.345   8.709  21.969  0.00  0.00    +0.000 A 
ATOM     10  C   UNL     1       0.495   9.629  22.650  0.00  0.00    +0.000 A 
ATOM     11  C   UNL     1      -0.340  10.291  21.782  0.00  0.00    +0.000 A 
ATOM     12  S   UNL     1      -0.085   9.817  20.161  0.00  0.00    +0.000 S 
ENDBRANCH   4   8
BRANCH   1  14
ATOM     13  C   UNL     1       3.954   2.281  19.450  0.00  0.00    +0.000 C 
ATOM     14  N   UNL     1       3.852   3.513  18.659  0.00  0.00    +0.000 NA
BRANCH  14  15
ATOM     15  C   UNL     1       5.142   4.235  18.631  0.00  0.00    +0.000 C 
BRANCH  15  16
ATOM     16  C   UNL     1       5.722   4.392  17.239  0.00  0.00    +0.000 A 
ATOM     17  C   UNL     1       7.064   4.763  17.056  0.00  0.00    +0.000 A 
ATOM     18  C   UNL     1       7.584   4.938  15.773  0.00  0.00    +0.000 A 
ATOM     19  C   UNL     1       6.762   4.739  14.670  0.00  0.00    +0.000 A 
ATOM     20  F   UNL     1       7.254   4.921  13.437  0.00  0.00    +0.000 F 
ATOM     21  C   UNL     1       5.434   4.359  14.827  0.00  0.00    +0.000 A 
ATOM     22  C   UNL     1       4.914   4.184  16.109  0.00  0.00    +0.000 A 
ENDBRANCH  15  16
ENDBRANCH  14  15
ENDBRANCH   1  14
BRANCH   7  23
ATOM     23  O   UNL     1       2.019   3.410  21.258  0.00  0.00    +0.000 OA
ATOM     24  H   UNL     1       1.247   3.700  21.773  0.00  0.00    +0.000 HD
ENDBRANCH   7  23
TORSDOF 5
ENDMDL
MODEL 4
REMARK VINA RESULT:      -6.5      1.886      3.010
REMARK  Name = 
REMARK  6 active torsions:
REMARK  status: ('A' for Active; 'I' for Inactive)
REMARK    1  A    between atoms: C_1  and  N_2
REMARK    2  A    between atoms: N_2  and  C_3
REMARK    3  A    between atoms: N_2  and  C_11
REMARK    4  A    between atoms: C_3  and  C_4
REMARK    5  A    between atoms: C_14  and  C_16
REMARK    6  A    between atoms: C_22  and  O_23
REMARK                            x       y       z     vdW  Elec       q    Type
REMARK                         _______ _______ _______ _____ _____    ______ ____
ROOT
ATOM      1  C   UNL     1       2.779   4.365  19.084  0.00  0.00    +0.000 C 
ATOM      2  C   UNL     1       2.774   5.827  18.586  0.00  0.00    +0.000 C 
ATOM      3  N   UNL     1       2.027   6.580  19.587  0.00  0.00    +0.000 N 
ATOM      4  C   UNL     1       1.873   7.959  19.449  0.00  0.00    +0.000 C 
ATOM      5  O   UNL     1       2.328   8.507  18.442  0.00  0.00    +0.000 OA
ATOM      6  C   UNL     1       1.728   5.748  20.742  0.00  0.00    +0.000 C 
ATOM      7  C   UNL     1       2.646   4.535  20.620  0.00  0.00    +0.000 C 
ENDROOT
BRANCH   4   8
ATOM      8  C   UNL     1       1.208   8.707  20.519  0.00  0.00    +0.000 A 
ATOM      9  C   UNL     1       1.347   8.666  21.898  0.00  0.00    +0.000 A 
ATOM     10  C   UNL     1       0.523   9.613  22.574  0.00  0.00    +0.000 A 
ATOM     11  C   UNL     1      -0.275  10.311  21.699  0.00  0.00    +0.000 A 
ATOM     12  S   UNL     1      -0.014   9.840  20.078  0.00  0.00    +0.000 S 
ENDBRANCH   4   8
BRANCH   1  14
ATOM     13  C   UNL     1       3.975   2.233  19.438  0.00  0.00    +0.000 C 
ATOM     14  N   UNL     1       3.876   3.465  18.646  0.00  0.00    +0.000 NA
BRANCH  14  15
ATOM     15  C   UNL     1       5.167   4.185  18.619  0.00  0.00    +0.000 C 
BRANCH  15  16
ATOM     16  C   UNL     1       5.716   4.397  17.221  0.00  0.00    +0.000 A 
ATOM     17  C   UNL     1       4.909   4.189  16.091  0.00  0.00    +0.000 A 
ATOM     18  C   UNL     1       5.429   4.352  14.806  0.00  0.00    +0.000 A 
ATOM     19  C   UNL     1       6.758   4.727  14.651  0.00  0.00    +0.000 A 
ATOM     20  F   UNL     1       7.264   4.870  13.419  0.00  0.00    +0.000 F 
ATOM     21  C   UNL     1       7.573   4.950  15.754  0.00  0.00    +0.000 A 
ATOM     22  C   UNL     1       7.053   4.788  17.039  0.00  0.00    +0.000 A 
ENDBRANCH  15  16
ENDBRANCH  14  15
ENDBRANCH   1  14
BRANCH   7  23
ATOM     23  O   UNL     1       2.083   3.403  21.275  0.00  0.00    +0.000 OA
ATOM     24  H   UNL     1       1.264   3.680  21.718  0.00  0.00    +0.000 HD
ENDBRANCH   7  23
TORSDOF 5
ENDMDL
MODEL 5
REMARK VINA RESULT:      -6.5      2.152      3.071
REMARK  Name = 
REMARK  6 active torsions:
REMARK  status: ('A' for Active; 'I' for Inactive)
REMARK    1  A    between atoms: C_1  and  N_2
REMARK    2  A    between atoms: N_2  and  C_3
REMARK    3  A    between atoms: N_2  and  C_11
REMARK    4  A    between atoms: C_3  and  C_4
REMARK    5  A    between atoms: C_14  and  C_16
REMARK    6  A    between atoms: C_22  and  O_23
REMARK                            x       y       z     vdW  Elec       q    Type
REMARK                         _______ _______ _______ _____ _____    ______ ____
ROOT
ATOM      1  C   UNL     1       2.570   4.373  18.790  0.00  0.00    +0.000 C 
ATOM      2  C   UNL     1       2.580   5.860  18.370  0.00  0.00    +0.000 C 
ATOM      3  N   UNL     1       1.923   6.580  19.455  0.00  0.00    +0.000 N 
ATOM      4  C   UNL     1       1.806   7.968  19.399  0.00  0.00    +0.000 C 
ATOM      5  O   UNL     1       2.212   8.556  18.394  0.00  0.00    +0.000 OA
ATOM      6  C   UNL     1       1.673   5.696  20.583  0.00  0.00    +0.000 C 
ATOM      7  C   UNL     1       2.542   4.466  20.339  0.00  0.00    +0.000 C 
ENDROOT
BRANCH   4   8
ATOM      8  C   UNL     1       1.235   8.676  20.548  0.00  0.00    +0.000 A 
ATOM      9  C   UNL     1       1.458   8.555  21.910  0.00  0.00    +0.000 A 
ATOM     10  C   UNL     1       0.711   9.489  22.687  0.00  0.00    +0.000 A 
ATOM     11  C   UNL     1      -0.114  10.260  21.904  0.00  0.00    +0.000 A 
ATOM     12  S   UNL     1       0.029   9.871  20.247  0.00  0.00    +0.000 S 
ENDBRANCH   4   8
BRANCH   1  14
ATOM     13  C   UNL     1       3.177   2.067  18.149  0.00  0.00    +0.000 C 
ATOM     14  N   UNL     1       3.607   3.468  18.236  0.00  0.00    +0.000 NA
BRANCH  14  15
ATOM     15  C   UNL     1       4.871   3.590  18.992  0.00  0.00    +0.000 C 
BRANCH  15  16
ATOM     16  C   UNL     1       5.791   4.677  18.469  0.00  0.00    +0.000 A 
ATOM     17  C   UNL     1       6.690   5.332  19.326  0.00  0.00    +0.000 A 
ATOM     18  C   UNL     1       7.510   6.355  18.846  0.00  0.00    +0.000 A 
ATOM     19  C   UNL     1       7.433   6.721  17.508  0.00  0.00    +0.000 A 
ATOM     20  F   UNL     1       8.209   7.712  17.049  0.00  0.00    +0.000 F 
ATOM     21  C   UNL     1       6.559   6.078  16.639  0.00  0.00    +0.000 A 
ATOM     22  C   UNL     1       5.740   5.056  17.118  0.00  0.00    +0.000 A 
ENDBRANCH  15  16
ENDBRANCH  14  15
ENDBRANCH   1  14
BRANCH   7  23
ATOM     23  O   UNL     1       1.986   3.316  20.970  0.00  0.00    +0.000 OA
ATOM     24  H   UNL     1       2.714   2.753  21.280  0.00  0.00    +0.000 HD
ENDBRANCH   7  23
TORSDOF 5
ENDMDL
MODEL 6
REMARK VINA RESULT:      -6.4      4.176      8.107
REMARK  Name = 
REMARK  6 active torsions:
REMARK  status: ('A' for Active; 'I' for Inactive)
REMARK    1  A    between atoms: C_1  and  N_2
REMARK    2  A    between atoms: N_2  and  C_3
REMARK    3  A    between atoms: N_2  and  C_11
REMARK    4  A    between atoms: C_3  and  C_4
REMARK    5  A    between atoms: C_14  and  C_16
REMARK    6  A    between atoms: C_22  and  O_23
REMARK                            x       y       z     vdW  Elec       q    Type
REMARK                         _______ _______ _______ _____ _____    ______ ____
ROOT
ATOM      1  C   UNL     1       1.422   9.647  19.835  0.00  0.00    +0.000 C 
ATOM      2  C   UNL     1       1.819   8.545  18.829  0.00  0.00    +0.000 C 
ATOM      3  N   UNL     1       1.966   7.327  19.618  0.00  0.00    +0.000 N 
ATOM      4  C   UNL     1       2.285   6.124  18.989  0.00  0.00    +0.000 C 
ATOM      5  O   UNL     1       2.496   6.130  17.774  0.00  0.00    +0.000 OA
ATOM      6  C   UNL     1       1.520   7.541  20.986  0.00  0.00    +0.000 C 
ATOM      7  C   UNL     1       0.715   8.838  20.955  0.00  0.00    +0.000 C 
ENDROOT
BRANCH   4   8
ATOM      8  C   UNL     1       2.325   4.897  19.789  0.00  0.00    +0.000 A 
ATOM      9  C   UNL     1       1.408   4.335  20.663  0.00  0.00    +0.000 A 
ATOM     10  C   UNL     1       1.838   3.087  21.202  0.00  0.00    +0.000 A 
ATOM     11  C   UNL     1       3.101   2.754  20.776  0.00  0.00    +0.000 A 
ATOM     12  S   UNL     1       3.750   3.930  19.720  0.00  0.00    +0.000 S 
ENDBRANCH   4   8
BRANCH   1  14
ATOM     13  C   UNL     1       1.244  12.109  19.758  0.00  0.00    +0.000 C 
ATOM     14  N   UNL     1       0.666  10.825  19.343  0.00  0.00    +0.000 NA
BRANCH  14  15
ATOM     15  C   UNL     1      -0.759  10.734  19.727  0.00  0.00    +0.000 C 
BRANCH  15  16
ATOM     16  C   UNL     1      -1.710  10.739  18.545  0.00  0.00    +0.000 A 
ATOM     17  C   UNL     1      -2.845  11.566  18.538  0.00  0.00    +0.000 A 
ATOM     18  C   UNL     1      -3.735  11.541  17.463  0.00  0.00    +0.000 A 
ATOM     19  C   UNL     1      -3.487  10.692  16.392  0.00  0.00    +0.000 A 
ATOM     20  F   UNL     1      -4.347  10.656  15.365  0.00  0.00    +0.000 F 
ATOM     21  C   UNL     1      -2.364   9.874  16.371  0.00  0.00    +0.000 A 
ATOM     22  C   UNL     1      -1.474   9.899  17.445  0.00  0.00    +0.000 A 
ENDBRANCH  15  16
ENDBRANCH  14  15
ENDBRANCH   1  14
BRANCH   7  23
ATOM     23  O   UNL     1       0.736   9.480  22.226  0.00  0.00    +0.000 OA
ATOM     24  H   UNL     1       0.584   8.809  22.912  0.00  0.00    +0.000 HD
ENDBRANCH   7  23
TORSDOF 5
ENDMDL
MODEL 7
REMARK VINA RESULT:      -6.2      4.186      8.105
REMARK  Name = 
REMARK  6 active torsions:
REMARK  status: ('A' for Active; 'I' for Inactive)
REMARK    1  A    between atoms: C_1  and  N_2
REMARK    2  A    between atoms: N_2  and  C_3
REMARK    3  A    between atoms: N_2  and  C_11
REMARK    4  A    between atoms: C_3  and  C_4
REMARK    5  A    between atoms: C_14  and  C_16
REMARK    6  A    between atoms: C_22  and  O_23
REMARK                            x       y       z     vdW  Elec       q    Type
REMARK                         _______ _______ _______ _____ _____    ______ ____
ROOT
ATOM      1  C   UNL     1       1.240  10.063  19.819  0.00  0.00    +0.000 C 
ATOM      2  C   UNL     1       1.611   8.959  18.805  0.00  0.00    +0.000 C 
ATOM      3  N   UNL     1       1.826   7.753  19.597  0.00  0.00    +0.000 N 
ATOM      4  C   UNL     1       2.141   6.551  18.964  0.00  0.00    +0.000 C 
ATOM      5  O   UNL     1       2.290   6.548  17.740  0.00  0.00    +0.000 OA
ATOM      6  C   UNL     1       1.445   7.972  20.983  0.00  0.00    +0.000 C 
ATOM      7  C   UNL     1       0.610   9.250  20.981  0.00  0.00    +0.000 C 
ENDROOT
BRANCH   4   8
ATOM      8  C   UNL     1       2.250   5.334  19.773  0.00  0.00    +0.000 A 
ATOM      9  C   UNL     1       1.366   4.728  20.651  0.00  0.00    +0.000 A 
ATOM     10  C   UNL     1       1.866   3.510  21.199  0.00  0.00    +0.000 A 
ATOM     11  C   UNL     1       3.146   3.246  20.775  0.00  0.00    +0.000 A 
ATOM     12  S   UNL     1       3.728   4.449  19.711  0.00  0.00    +0.000 S 
ENDBRANCH   4   8
BRANCH   1  14
ATOM     13  C   UNL     1       0.937  12.514  19.823  0.00  0.00    +0.000 C 
ATOM     14  N   UNL     1       0.432  11.218  19.354  0.00  0.00    +0.000 NA
BRANCH  14  15
ATOM     15  C   UNL     1      -0.992  11.042  19.709  0.00  0.00    +0.000 C 
BRANCH  15  16
ATOM     16  C   UNL     1      -1.904  10.883  18.508  0.00  0.00    +0.000 A 
ATOM     17  C   UNL     1      -1.559  10.026  17.450  0.00  0.00    +0.000 A 
ATOM     18  C   UNL     1      -2.386   9.910  16.332  0.00  0.00    +0.000 A 
ATOM     19  C   UNL     1      -3.561  10.649  16.272  0.00  0.00    +0.000 A 
ATOM     20  F   UNL     1      -4.349  10.551  15.193  0.00  0.00    +0.000 F 
ATOM     21  C   UNL     1      -3.929  11.495  17.312  0.00  0.00    +0.000 A 
ATOM     22  C   UNL     1      -3.103  11.611  18.430  0.00  0.00    +0.000 A 
ENDBRANCH  15  16
ENDBRANCH  14  15
ENDBRANCH   1  14
BRANCH   7  23
ATOM     23  O   UNL     1       0.681   9.907  22.243  0.00  0.00    +0.000 OA
ATOM     24  H   UNL     1       0.283  10.789  22.152  0.00  0.00    +0.000 HD
ENDBRANCH   7  23
TORSDOF 5
ENDMDL
MODEL 8
REMARK VINA RESULT:      -6.2      3.966      8.150
REMARK  Name = 
REMARK  6 active torsions:
REMARK  status: ('A' for Active; 'I' for Inactive)
REMARK    1  A    between atoms: C_1  and  N_2
REMARK    2  A    between atoms: N_2  and  C_3
REMARK    3  A    between atoms: N_2  and  C_11
REMARK    4  A    between atoms: C_3  and  C_4
REMARK    5  A    between atoms: C_14  and  C_16
REMARK    6  A    between atoms: C_22  and  O_23
REMARK                            x       y       z     vdW  Elec       q    Type
REMARK                         _______ _______ _______ _____ _____    ______ ____
ROOT
ATOM      1  C   UNL     1       0.697  10.588  19.760  0.00  0.00    +0.000 C 
ATOM      2  C   UNL     1       1.454   9.676  18.770  0.00  0.00    +0.000 C 
ATOM      3  N   UNL     1       1.719   8.440  19.497  0.00  0.00    +0.000 N 
ATOM      4  C   UNL     1       2.363   7.381  18.860  0.00  0.00    +0.000 C 
ATOM      5  O   UNL     1       2.751   7.537  17.699  0.00  0.00    +0.000 OA
ATOM      6  C   UNL     1       1.036   8.441  20.782  0.00  0.00    +0.000 C 
ATOM      7  C   UNL     1       0.004   9.562  20.695  0.00  0.00    +0.000 C 
ENDROOT
BRANCH   4   8
ATOM      8  C   UNL     1       2.524   6.115  19.580  0.00  0.00    +0.000 A 
ATOM      9  C   UNL     1       1.771   5.519  20.579  0.00  0.00    +0.000 A 
ATOM     10  C   UNL     1       2.268   4.241  20.971  0.00  0.00    +0.000 A 
ATOM     11  C   UNL     1       3.427   3.918  20.306  0.00  0.00    +0.000 A 
ATOM     12  S   UNL     1       3.896   5.139  19.207  0.00  0.00    +0.000 S 
ENDBRANCH   4   8
BRANCH   1  14
ATOM     13  C   UNL     1       0.064  12.975  19.782  0.00  0.00    +0.000 C 
ATOM     14  N   UNL     1      -0.195  11.644  19.220  0.00  0.00    +0.000 NA
BRANCH  14  15
ATOM     15  C   UNL     1      -1.615  11.266  19.380  0.00  0.00    +0.000 C 
BRANCH  15  16
ATOM     16  C   UNL     1      -2.323  10.987  18.068  0.00  0.00    +0.000 A 
ATOM     17  C   UNL     1      -3.542  11.612  17.760  0.00  0.00    +0.000 A 
ATOM     18  C   UNL     1      -4.205  11.326  16.566  0.00  0.00    +0.000 A 
ATOM     19  C   UNL     1      -3.648  10.415  15.677  0.00  0.00    +0.000 A 
ATOM     20  F   UNL     1      -4.290  10.127  14.537  0.00  0.00    +0.000 F 
ATOM     21  C   UNL     1      -2.436   9.793  15.954  0.00  0.00    +0.000 A 
ATOM     22  C   UNL     1      -1.773  10.080  17.148  0.00  0.00    +0.000 A 
ENDBRANCH  15  16
ENDBRANCH  14  15
ENDBRANCH   1  14
BRANCH   7  23
ATOM     23  O   UNL     1      -0.297  10.078  21.988  0.00  0.00    +0.000 OA
ATOM     24  H   UNL     1       0.014  10.997  22.032  0.00  0.00    +0.000 HD
ENDBRANCH   7  23
TORSDOF 5
ENDMDL
MODEL 9
REMARK VINA RESULT:      -6.2      3.729      8.000
REMARK  Name = 
REMARK  6 active torsions:
REMARK  status: ('A' for Active; 'I' for Inactive)
REMARK    1  A    between atoms: C_1  and  N_2
REMARK    2  A    between atoms: N_2  and  C_3
REMARK    3  A    between atoms: N_2  and  C_11
REMARK    4  A    between atoms: C_3  and  C_4
REMARK    5  A    between atoms: C_14  and  C_16
REMARK    6  A    between atoms: C_22  and  O_23
REMARK                            x       y       z     vdW  Elec       q    Type
REMARK                         _______ _______ _______ _____ _____    ______ ____
ROOT
ATOM      1  C   UNL     1       1.634   8.166  19.321  0.00  0.00    +0.000 C 
ATOM      2  C   UNL     1       2.323   6.871  19.804  0.00  0.00    +0.000 C 
ATOM      3  N   UNL     1       3.142   6.420  18.684  0.00  0.00    +0.000 N 
ATOM      4  C   UNL     1       3.934   5.280  18.815  0.00  0.00    +0.000 C 
ATOM      5  O   UNL     1       3.878   4.638  19.867  0.00  0.00    +0.000 OA
ATOM      6  C   UNL     1       3.158   7.415  17.623  0.00  0.00    +0.000 C 
ATOM      7  C   UNL     1       2.632   8.698  18.260  0.00  0.00    +0.000 C 
ENDROOT
BRANCH   4   8
ATOM      8  C   UNL     1       4.824   4.907  17.712  0.00  0.00    +0.000 A 
ATOM      9  C   UNL     1       4.606   4.170  16.559  0.00  0.00    +0.000 A 
ATOM     10  C   UNL     1       5.756   4.087  15.720  0.00  0.00    +0.000 A 
ATOM     11  C   UNL     1       6.844   4.709  16.282  0.00  0.00    +0.000 A 
ATOM     12  S   UNL     1       6.473   5.403  17.798  0.00  0.00    +0.000 S 
ENDBRANCH   4   8
BRANCH   1  14
ATOM     13  C   UNL     1       1.215   8.651  21.706  0.00  0.00    +0.000 C 
ATOM     14  N   UNL     1       1.202   9.164  20.331  0.00  0.00    +0.000 NA
BRANCH  14  15
ATOM     15  C   UNL     1      -0.122   9.723  19.985  0.00  0.00    +0.000 C 
BRANCH  15  16
ATOM     16  C   UNL     1      -0.075  11.175  19.549  0.00  0.00    +0.000 A 
ATOM     17  C   UNL     1       0.813  12.079  20.153  0.00  0.00    +0.000 A 
ATOM     18  C   UNL     1       0.828  13.422  19.772  0.00  0.00    +0.000 A 
ATOM     19  C   UNL     1      -0.043  13.860  18.783  0.00  0.00    +0.000 A 
ATOM     20  F   UNL     1      -0.041  15.152  18.426  0.00  0.00    +0.000 F 
ATOM     21  C   UNL     1      -0.923  12.981  18.163  0.00  0.00    +0.000 A 
ATOM     22  C   UNL     1      -0.938  11.639  18.543  0.00  0.00    +0.000 A 
ENDBRANCH  15  16
ENDBRANCH  14  15
ENDBRANCH   1  14
BRANCH   7  23
ATOM     23  O   UNL     1       2.031   9.542  17.282  0.00  0.00    +0.000 OA
ATOM     24  H   UNL     1       1.513   8.988  16.675  0.00  0.00    +0.000 HD
ENDBRANCH   7  23
TORSDOF 5
ENDMDL
