MODEL 1
REMARK VINA RESULT:      -8.3      0.000      0.000
REMARK  Name = 
REMARK  6 active torsions:
REMARK  status: ('A' for Active; 'I' for Inactive)
REMARK    1  A    between atoms: C_1  and  C_2
REMARK    2  A    between atoms: C_5  and  N_6
REMARK    3  A    between atoms: C_7  and  C_9
REMARK    4  A    between atoms: C_15  and  N_16
REMARK    5  A    between atoms: C_22  and  N_23
REMARK    6  A    between atoms: N_26  and  C_27
REMARK                            x       y       z     vdW  Elec       q    Type
REMARK                         _______ _______ _______ _____ _____    ______ ____
ROOT
ATOM      1  N   UNL     1       1.035   9.850  19.380  0.00  0.00    +0.000 N 
ATOM      2  C   UNL     1       0.693   9.197  20.545  0.00  0.00    +0.000 A 
ATOM      3  N   UNL     1       1.100   8.019  20.886  0.00  0.00    +0.000 NA
ATOM      4  C   UNL     1       1.954   7.353  19.997  0.00  0.00    +0.000 A 
ATOM      5  C   UNL     1       2.385   6.067  20.305  0.00  0.00    +0.000 A 
ATOM      6  C   UNL     1       3.253   5.382  19.444  0.00  0.00    +0.000 A 
ATOM      7  C   UNL     1       3.726   5.960  18.258  0.00  0.00    +0.000 A 
ATOM      8  C   UNL     1       3.265   7.245  17.950  0.00  0.00    +0.000 A 
ATOM      9  C   UNL     1       2.388   7.923  18.805  0.00  0.00    +0.000 A 
ATOM     10  C   UNL     1       1.896   9.266  18.455  0.00  0.00    +0.000 A 
ATOM     11  O   UNL     1       2.271   9.787  17.405  0.00  0.00    +0.000 OA
ENDROOT
BRANCH   1  18
ATOM     12  C   UNL     1      -1.646  10.009  18.106  0.00  0.00    +0.000 C 
ATOM     13  C   UNL     1      -0.801  11.209  18.439  0.00  0.00    +0.000 A 
ATOM     14  C   UNL     1      -1.316  12.487  18.181  0.00  0.00    +0.000 A 
ATOM     15  C   UNL     1      -0.627  13.640  18.571  0.00  0.00    +0.000 A 
ATOM     16  C   UNL     1       0.596  13.544  19.229  0.00  0.00    +0.000 A 
ATOM     17  C   UNL     1       1.133  12.275  19.467  0.00  0.00    +0.000 A 
ATOM     18  C   UNL     1       0.446  11.109  19.080  0.00  0.00    +0.000 A 
BRANCH  16  19
ATOM     19  N   UNL     1       1.342  14.663  19.663  0.00  0.00    +0.000 N 
ATOM     20  C   UNL     1       2.397  15.274  19.000  0.00  0.00    +0.000 C 
ATOM     21  O   UNL     1       2.815  14.923  17.900  0.00  0.00    +0.000 OA
ATOM     22  H   UNL     1       1.023  15.125  20.506  0.00  0.00    +0.000 HD
BRANCH  20  23
ATOM     23  C   UNL     1       2.984  16.413  19.685  0.00  0.00    +0.000 A 
ATOM     24  C   UNL     1       4.255  16.922  19.493  0.00  0.00    +0.000 A 
ATOM     25  N   UNL     1       4.592  18.017  20.265  0.00  0.00    +0.000 NA
ATOM     26  C   UNL     1       3.574  18.330  21.033  0.00  0.00    +0.000 A 
ATOM     27  S   UNL     1       2.179  17.341  20.882  0.00  0.00    +0.000 S 
ENDBRANCH  20  23
ENDBRANCH  16  19
ENDBRANCH   1  18
BRANCH   7  28
ATOM     28  N   UNL     1       4.655   5.345  17.448  0.00  0.00    +0.000 N 
ATOM     29  C   UNL     1       6.099   5.536  17.641  0.00  0.00    +0.000 C 
ATOM     30  C   UNL     1       6.799   5.546  16.261  0.00  0.00    +0.000 C 
ATOM     31  N   UNL     1       6.517   4.331  15.463  0.00  0.00    +0.000 NA
ATOM     32  C   UNL     1       7.160   4.425  14.154  0.00  0.00    +0.000 C 
ATOM     33  C   UNL     1       5.050   4.173  15.312  0.00  0.00    +0.000 C 
ATOM     34  C   UNL     1       4.313   4.142  16.671  0.00  0.00    +0.000 C 
ENDBRANCH   7  28
TORSDOF 4
ENDMDL
MODEL 2
REMARK VINA RESULT:      -7.9      1.365      1.444
REMARK  Name = 
REMARK  6 active torsions:
REMARK  status: ('A' for Active; 'I' for Inactive)
REMARK    1  A    between atoms: C_1  and  C_2
REMARK    2  A    between atoms: C_5  and  N_6
REMARK    3  A    between atoms: C_7  and  C_9
REMARK    4  A    between atoms: C_15  and  N_16
REMARK    5  A    between atoms: C_22  and  N_23
REMARK    6  A    between atoms: N_26  and  C_27
REMARK                            x       y       z     vdW  Elec       q    Type
REMARK                         _______ _______ _______ _____ _____    ______ ____
ROOT
ATOM      1  N   UNL     1       1.033   9.843  19.492  0.00  0.00    +0.000 N 
ATOM      2  C   UNL     1       0.760   9.119  20.633  0.00  0.00    +0.000 A 
ATOM      3  N   UNL     1       1.196   7.929  20.883  0.00  0.00    +0.000 NA
ATOM      4  C   UNL     1       2.010   7.327  19.914  0.00  0.00    +0.000 A 
ATOM      5  C   UNL     1       2.469   6.031  20.125  0.00  0.00    +0.000 A 
ATOM      6  C   UNL     1       3.299   5.409  19.182  0.00  0.00    +0.000 A 
ATOM      7  C   UNL     1       3.702   6.061  18.008  0.00  0.00    +0.000 A 
ATOM      8  C   UNL     1       3.212   7.354  17.800  0.00  0.00    +0.000 A 
ATOM      9  C   UNL     1       2.374   7.971  18.737  0.00  0.00    +0.000 A 
ATOM     10  C   UNL     1       1.851   9.324  18.491  0.00  0.00    +0.000 A 
ATOM     11  O   UNL     1       2.164   9.910  17.456  0.00  0.00    +0.000 OA
ENDROOT
BRANCH   1  18
ATOM     12  C   UNL     1      -1.676  10.042  18.285  0.00  0.00    +0.000 C 
ATOM     13  C   UNL     1      -0.846  11.231  18.689  0.00  0.00    +0.000 A 
ATOM     14  C   UNL     1      -1.390  12.514  18.535  0.00  0.00    +0.000 A 
ATOM     15  C   UNL     1      -0.713  13.649  18.995  0.00  0.00    +0.000 A 
ATOM     16  C   UNL     1       0.525  13.528  19.621  0.00  0.00    +0.000 A 
ATOM     17  C   UNL     1       1.089  12.256  19.755  0.00  0.00    +0.000 A 
ATOM     18  C   UNL     1       0.415  11.109  19.296  0.00  0.00    +0.000 A 
BRANCH  16  19
ATOM     19  N   UNL     1       1.259  14.627  20.121  0.00  0.00    +0.000 N 
ATOM     20  C   UNL     1       1.411  14.997  21.449  0.00  0.00    +0.000 C 
ATOM     21  O   UNL     1       0.932  14.379  22.396  0.00  0.00    +0.000 OA
ATOM     22  H   UNL     1       1.804  15.156  19.450  0.00  0.00    +0.000 HD
BRANCH  20  23
ATOM     23  C   UNL     1       2.224  16.180  21.676  0.00  0.00    +0.000 A 
ATOM     24  C   UNL     1       2.822  16.553  22.865  0.00  0.00    +0.000 A 
ATOM     25  N   UNL     1       3.550  17.726  22.836  0.00  0.00    +0.000 NA
ATOM     26  C   UNL     1       3.501  18.232  21.625  0.00  0.00    +0.000 A 
ATOM     27  S   UNL     1       2.588  17.347  20.472  0.00  0.00    +0.000 S 
ENDBRANCH  20  23
ENDBRANCH  16  19
ENDBRANCH   1  18
BRANCH   7  28
ATOM     28  N   UNL     1       4.595   5.506  17.117  0.00  0.00    +0.000 N 
ATOM     29  C   UNL     1       5.478   6.336  16.286  0.00  0.00    +0.000 C 
ATOM     30  C   UNL     1       5.654   5.663  14.904  0.00  0.00    +0.000 C 
ATOM     31  N   UNL     1       6.153   4.272  15.000  0.00  0.00    +0.000 NA
ATOM     32  C   UNL     1       6.247   3.675  13.669  0.00  0.00    +0.000 C 
ATOM     33  C   UNL     1       5.240   3.482  15.862  0.00  0.00    +0.000 C 
ATOM     34  C   UNL     1       5.049   4.113  17.260  0.00  0.00    +0.000 C 
ENDBRANCH   7  28
TORSDOF 4
ENDMDL
MODEL 3
REMARK VINA RESULT:      -7.6      4.558      6.364
REMARK  Name = 
REMARK  6 active torsions:
REMARK  status: ('A' for Active; 'I' for Inactive)
REMARK    1  A    between atoms: C_1  and  C_2
REMARK    2  A    between atoms: C_5  and  N_6
REMARK    3  A    between atoms: C_7  and  C_9
REMARK    4  A    between atoms: C_15  and  N_16
REMARK    5  A    between atoms: C_22  and  N_23
REMARK    6  A    between atoms: N_26  and  C_27
REMARK                            x       y       z     vdW  Elec       q    Type
REMARK                         _______ _______ _______ _____ _____    ______ ____
ROOT
ATOM      1  N   UNL     1       0.226  11.975  20.490  0.00  0.00    +0.000 N 
ATOM      2  C   UNL     1       0.301  12.276  19.147  0.00  0.00    +0.000 A 
ATOM      3  N   UNL     1       0.747  11.485  18.229  0.00  0.00    +0.000 NA
ATOM      4  C   UNL     1       1.192  10.219  18.634  0.00  0.00    +0.000 A 
ATOM      5  C   UNL     1       1.716   9.349  17.684  0.00  0.00    +0.000 A 
ATOM      6  C   UNL     1       2.153   8.070  18.055  0.00  0.00    +0.000 A 
ATOM      7  C   UNL     1       2.073   7.617  19.380  0.00  0.00    +0.000 A 
ATOM      8  C   UNL     1       1.565   8.513  20.327  0.00  0.00    +0.000 A 
ATOM      9  C   UNL     1       1.140   9.794  19.957  0.00  0.00    +0.000 A 
ATOM     10  C   UNL     1       0.628  10.731  20.970  0.00  0.00    +0.000 A 
ATOM     11  O   UNL     1       0.573  10.372  22.146  0.00  0.00    +0.000 OA
ENDROOT
BRANCH   1  18
ATOM     12  C   UNL     1       2.036  14.200  21.269  0.00  0.00    +0.000 C 
ATOM     13  C   UNL     1       0.653  14.007  21.828  0.00  0.00    +0.000 A 
ATOM     14  C   UNL     1       0.157  14.951  22.739  0.00  0.00    +0.000 A 
ATOM     15  C   UNL     1      -1.161  14.887  23.206  0.00  0.00    +0.000 A 
ATOM     16  C   UNL     1      -2.015  13.875  22.776  0.00  0.00    +0.000 A 
ATOM     17  C   UNL     1      -1.523  12.912  21.890  0.00  0.00    +0.000 A 
ATOM     18  C   UNL     1      -0.200  12.969  21.413  0.00  0.00    +0.000 A 
BRANCH  16  19
ATOM     19  N   UNL     1      -3.359  13.755  23.195  0.00  0.00    +0.000 N 
ATOM     20  C   UNL     1      -4.464  14.399  22.657  0.00  0.00    +0.000 C 
ATOM     21  O   UNL     1      -4.418  15.162  21.697  0.00  0.00    +0.000 OA
ATOM     22  H   UNL     1      -3.554  13.063  23.908  0.00  0.00    +0.000 HD
BRANCH  20  23
ATOM     23  C   UNL     1      -5.734  14.087  23.292  0.00  0.00    +0.000 A 
ATOM     24  C   UNL     1      -6.183  12.834  23.661  0.00  0.00    +0.000 A 
ATOM     25  N   UNL     1      -7.431  12.786  24.252  0.00  0.00    +0.000 NA
ATOM     26  C   UNL     1      -7.916  14.005  24.328  0.00  0.00    +0.000 A 
ATOM     27  S   UNL     1      -6.923  15.255  23.700  0.00  0.00    +0.000 S 
ENDBRANCH  20  23
ENDBRANCH  16  19
ENDBRANCH   1  18
BRANCH   7  28
ATOM     28  N   UNL     1       2.405   6.332  19.749  0.00  0.00    +0.000 N 
ATOM     29  C   UNL     1       3.735   5.768  19.487  0.00  0.00    +0.000 C 
ATOM     30  C   UNL     1       3.593   4.264  19.153  0.00  0.00    +0.000 C 
ATOM     31  N   UNL     1       2.884   3.504  20.208  0.00  0.00    +0.000 NA
ATOM     32  C   UNL     1       2.733   2.106  19.810  0.00  0.00    +0.000 C 
ATOM     33  C   UNL     1       1.557   4.122  20.449  0.00  0.00    +0.000 C 
ATOM     34  C   UNL     1       1.656   5.624  20.802  0.00  0.00    +0.000 C 
ENDBRANCH   7  28
TORSDOF 4
ENDMDL
MODEL 4
REMARK VINA RESULT:      -7.6      3.451      5.161
REMARK  Name = 
REMARK  6 active torsions:
REMARK  status: ('A' for Active; 'I' for Inactive)
REMARK    1  A    between atoms: C_1  and  C_2
REMARK    2  A    between atoms: C_5  and  N_6
REMARK    3  A    between atoms: C_7  and  C_9
REMARK    4  A    between atoms: C_15  and  N_16
REMARK    5  A    between atoms: C_22  and  N_23
REMARK    6  A    between atoms: N_26  and  C_27
REMARK                            x       y       z     vdW  Elec       q    Type
REMARK                         _______ _______ _______ _____ _____    ______ ____
ROOT
ATOM      1  N   UNL     1       0.720  10.050  20.179  0.00  0.00    +0.000 N 
ATOM      2  C   UNL     1       0.404   9.246  21.252  0.00  0.00    +0.000 A 
ATOM      3  N   UNL     1       0.805   8.028  21.415  0.00  0.00    +0.000 NA
ATOM      4  C   UNL     1       1.625   7.484  20.416  0.00  0.00    +0.000 A 
ATOM      5  C   UNL     1       2.047   6.164  20.531  0.00  0.00    +0.000 A 
ATOM      6  C   UNL     1       2.881   5.597  19.558  0.00  0.00    +0.000 A 
ATOM      7  C   UNL     1       3.326   6.329  18.448  0.00  0.00    +0.000 A 
ATOM      8  C   UNL     1       2.872   7.648  18.335  0.00  0.00    +0.000 A 
ATOM      9  C   UNL     1       2.030   8.210  19.302  0.00  0.00    +0.000 A 
ATOM     10  C   UNL     1       1.546   9.592  19.156  0.00  0.00    +0.000 A 
ATOM     11  O   UNL     1       1.896  10.250  18.177  0.00  0.00    +0.000 OA
ENDROOT
BRANCH   1  18
ATOM     12  C   UNL     1       2.346  12.491  20.663  0.00  0.00    +0.000 C 
ATOM     13  C   UNL     1       0.877  12.511  20.339  0.00  0.00    +0.000 A 
ATOM     14  C   UNL     1       0.232  13.750  20.209  0.00  0.00    +0.000 A 
ATOM     15  C   UNL     1      -1.103  13.834  19.800  0.00  0.00    +0.000 A 
ATOM     16  C   UNL     1      -1.828  12.681  19.511  0.00  0.00    +0.000 A 
ATOM     17  C   UNL     1      -1.204  11.440  19.663  0.00  0.00    +0.000 A 
ATOM     18  C   UNL     1       0.139  11.344  20.073  0.00  0.00    +0.000 A 
BRANCH  16  19
ATOM     19  N   UNL     1      -3.174  12.691  19.081  0.00  0.00    +0.000 N 
ATOM     20  C   UNL     1      -4.308  12.694  19.881  0.00  0.00    +0.000 C 
ATOM     21  O   UNL     1      -4.285  12.716  21.108  0.00  0.00    +0.000 OA
ATOM     22  H   UNL     1      -3.335  12.791  18.086  0.00  0.00    +0.000 HD
BRANCH  20  23
ATOM     23  C   UNL     1      -5.573  12.701  19.166  0.00  0.00    +0.000 A 
ATOM     24  C   UNL     1      -5.769  12.369  17.838  0.00  0.00    +0.000 A 
ATOM     25  N   UNL     1      -7.069  12.453  17.377  0.00  0.00    +0.000 NA
ATOM     26  C   UNL     1      -7.847  12.845  18.360  0.00  0.00    +0.000 A 
ATOM     27  S   UNL     1      -7.077  13.137  19.866  0.00  0.00    +0.000 S 
ENDBRANCH  20  23
ENDBRANCH  16  19
ENDBRANCH   1  18
BRANCH   7  28
ATOM     28  N   UNL     1       4.223   5.824  17.533  0.00  0.00    +0.000 N 
ATOM     29  C   UNL     1       5.076   6.700  16.718  0.00  0.00    +0.000 C 
ATOM     30  C   UNL     1       5.255   6.072  15.315  0.00  0.00    +0.000 C 
ATOM     31  N   UNL     1       5.791   4.692  15.366  0.00  0.00    +0.000 NA
ATOM     32  C   UNL     1       5.886   4.137  14.018  0.00  0.00    +0.000 C 
ATOM     33  C   UNL     1       4.907   3.854  16.213  0.00  0.00    +0.000 C 
ATOM     34  C   UNL     1       4.714   4.439  17.631  0.00  0.00    +0.000 C 
ENDBRANCH   7  28
TORSDOF 4
ENDMDL
MODEL 5
REMARK VINA RESULT:      -7.5      3.641      5.301
REMARK  Name = 
REMARK  6 active torsions:
REMARK  status: ('A' for Active; 'I' for Inactive)
REMARK    1  A    between atoms: C_1  and  C_2
REMARK    2  A    between atoms: C_5  and  N_6
REMARK    3  A    between atoms: C_7  and  C_9
REMARK    4  A    between atoms: C_15  and  N_16
REMARK    5  A    between atoms: C_22  and  N_23
REMARK    6  A    between atoms: N_26  and  C_27
REMARK                            x       y       z     vdW  Elec       q    Type
REMARK                         _______ _______ _______ _____ _____    ______ ____
ROOT
ATOM      1  N   UNL     1       0.579  10.333  20.426  0.00  0.00    +0.000 N 
ATOM      2  C   UNL     1       0.382   9.586  21.568  0.00  0.00    +0.000 A 
ATOM      3  N   UNL     1       0.783   8.370  21.741  0.00  0.00    +0.000 NA
ATOM      4  C   UNL     1       1.471   7.764  20.681  0.00  0.00    +0.000 A 
ATOM      5  C   UNL     1       1.886   6.443  20.810  0.00  0.00    +0.000 A 
ATOM      6  C   UNL     1       2.592   5.815  19.774  0.00  0.00    +0.000 A 
ATOM      7  C   UNL     1       2.911   6.486  18.585  0.00  0.00    +0.000 A 
ATOM      8  C   UNL     1       2.466   7.806  18.462  0.00  0.00    +0.000 A 
ATOM      9  C   UNL     1       1.751   8.428  19.493  0.00  0.00    +0.000 A 
ATOM     10  C   UNL     1       1.272   9.811  19.337  0.00  0.00    +0.000 A 
ATOM     11  O   UNL     1       1.512  10.416  18.293  0.00  0.00    +0.000 OA
ENDROOT
BRANCH   1  18
ATOM     12  C   UNL     1       2.248  12.763  20.807  0.00  0.00    +0.000 C 
ATOM     13  C   UNL     1       0.767  12.793  20.545  0.00  0.00    +0.000 A 
ATOM     14  C   UNL     1       0.130  14.037  20.425  0.00  0.00    +0.000 A 
ATOM     15  C   UNL     1      -1.220  14.130  20.070  0.00  0.00    +0.000 A 
ATOM     16  C   UNL     1      -1.969  12.981  19.829  0.00  0.00    +0.000 A 
ATOM     17  C   UNL     1      -1.351  11.735  19.973  0.00  0.00    +0.000 A 
ATOM     18  C   UNL     1       0.007  11.631  20.327  0.00  0.00    +0.000 A 
BRANCH  16  19
ATOM     19  N   UNL     1      -3.331  12.998  19.456  0.00  0.00    +0.000 N 
ATOM     20  C   UNL     1      -4.431  12.922  20.299  0.00  0.00    +0.000 C 
ATOM     21  O   UNL     1      -4.357  12.853  21.523  0.00  0.00    +0.000 OA
ATOM     22  H   UNL     1      -3.535  13.170  18.479  0.00  0.00    +0.000 HD
BRANCH  20  23
ATOM     23  C   UNL     1      -5.724  12.960  19.638  0.00  0.00    +0.000 A 
ATOM     24  C   UNL     1      -6.780  13.797  19.945  0.00  0.00    +0.000 A 
ATOM     25  N   UNL     1      -7.917  13.649  19.173  0.00  0.00    +0.000 NA
ATOM     26  C   UNL     1      -7.711  12.701  18.286  0.00  0.00    +0.000 A 
ATOM     27  S   UNL     1      -6.172  11.943  18.332  0.00  0.00    +0.000 S 
ENDBRANCH  20  23
ENDBRANCH  16  19
ENDBRANCH   1  18
BRANCH   7  28
ATOM     28  N   UNL     1       3.687   5.921  17.596  0.00  0.00    +0.000 N 
ATOM     29  C   UNL     1       3.492   4.535  17.154  0.00  0.00    +0.000 C 
ATOM     30  C   UNL     1       4.866   3.915  16.804  0.00  0.00    +0.000 C 
ATOM     31  N   UNL     1       5.613   4.702  15.796  0.00  0.00    +0.000 NA
ATOM     32  C   UNL     1       6.920   4.098  15.549  0.00  0.00    +0.000 C 
ATOM     33  C   UNL     1       5.767   6.096  16.279  0.00  0.00    +0.000 C 
ATOM     34  C   UNL     1       4.414   6.758  16.626  0.00  0.00    +0.000 C 
ENDBRANCH   7  28
TORSDOF 4
ENDMDL
MODEL 6
REMARK VINA RESULT:      -7.4      3.180      5.172
REMARK  Name = 
REMARK  6 active torsions:
REMARK  status: ('A' for Active; 'I' for Inactive)
REMARK    1  A    between atoms: C_1  and  C_2
REMARK    2  A    between atoms: C_5  and  N_6
REMARK    3  A    between atoms: C_7  and  C_9
REMARK    4  A    between atoms: C_15  and  N_16
REMARK    5  A    between atoms: C_22  and  N_23
REMARK    6  A    between atoms: N_26  and  C_27
REMARK                            x       y       z     vdW  Elec       q    Type
REMARK                         _______ _______ _______ _____ _____    ______ ____
ROOT
ATOM      1  N   UNL     1       1.161   9.742  19.298  0.00  0.00    +0.000 N 
ATOM      2  C   UNL     1       0.915   9.121  20.504  0.00  0.00    +0.000 A 
ATOM      3  N   UNL     1       1.366   7.961  20.851  0.00  0.00    +0.000 NA
ATOM      4  C   UNL     1       2.168   7.282  19.924  0.00  0.00    +0.000 A 
ATOM      5  C   UNL     1       2.643   6.013  20.241  0.00  0.00    +0.000 A 
ATOM      6  C   UNL     1       3.461   5.316  19.341  0.00  0.00    +0.000 A 
ATOM      7  C   UNL     1       3.837   5.863  18.107  0.00  0.00    +0.000 A 
ATOM      8  C   UNL     1       3.332   7.130  17.794  0.00  0.00    +0.000 A 
ATOM      9  C   UNL     1       2.505   7.820  18.688  0.00  0.00    +0.000 A 
ATOM     10  C   UNL     1       1.965   9.143  18.333  0.00  0.00    +0.000 A 
ATOM     11  O   UNL     1       2.255   9.637  17.244  0.00  0.00    +0.000 OA
ENDROOT
BRANCH   1  18
ATOM     12  C   UNL     1       2.769  12.132  18.565  0.00  0.00    +0.000 C 
ATOM     13  C   UNL     1       1.270  12.135  18.695  0.00  0.00    +0.000 A 
ATOM     14  C   UNL     1       0.572  13.318  18.411  0.00  0.00    +0.000 A 
ATOM     15  C   UNL     1      -0.826  13.353  18.405  0.00  0.00    +0.000 A 
ATOM     16  C   UNL     1      -1.563  12.205  18.684  0.00  0.00    +0.000 A 
ATOM     17  C   UNL     1      -0.878  11.026  18.995  0.00  0.00    +0.000 A 
ATOM     18  C   UNL     1       0.529  10.981  19.003  0.00  0.00    +0.000 A 
BRANCH  16  19
ATOM     19  N   UNL     1      -2.975  12.162  18.684  0.00  0.00    +0.000 N 
ATOM     20  C   UNL     1      -3.793  11.539  17.752  0.00  0.00    +0.000 C 
ATOM     21  O   UNL     1      -3.380  10.901  16.789  0.00  0.00    +0.000 OA
ATOM     22  H   UNL     1      -3.444  12.553  19.492  0.00  0.00    +0.000 HD
BRANCH  20  23
ATOM     23  C   UNL     1      -5.220  11.659  18.001  0.00  0.00    +0.000 A 
ATOM     24  C   UNL     1      -5.999  10.800  18.753  0.00  0.00    +0.000 A 
ATOM     25  N   UNL     1      -7.339  11.120  18.848  0.00  0.00    +0.000 NA
ATOM     26  C   UNL     1      -7.565  12.222  18.168  0.00  0.00    +0.000 A 
ATOM     27  S   UNL     1      -6.207  12.920  17.385  0.00  0.00    +0.000 S 
ENDBRANCH  20  23
ENDBRANCH  16  19
ENDBRANCH   1  18
BRANCH   7  28
ATOM     28  N   UNL     1       4.719   5.238  17.252  0.00  0.00    +0.000 N 
ATOM     29  C   UNL     1       6.172   5.314  17.445  0.00  0.00    +0.000 C 
ATOM     30  C   UNL     1       6.867   5.364  16.063  0.00  0.00    +0.000 C 
ATOM     31  N   UNL     1       6.498   4.226  15.191  0.00  0.00    +0.000 NA
ATOM     32  C   UNL     1       7.141   4.359  13.886  0.00  0.00    +0.000 C 
ATOM     33  C   UNL     1       5.022   4.181  15.042  0.00  0.00    +0.000 C 
ATOM     34  C   UNL     1       4.289   4.114  16.402  0.00  0.00    +0.000 C 
ENDBRANCH   7  28
TORSDOF 4
ENDMDL
MODEL 7
REMARK VINA RESULT:      -7.3      3.117      3.474
REMARK  Name = 
REMARK  6 active torsions:
REMARK  status: ('A' for Active; 'I' for Inactive)
REMARK    1  A    between atoms: C_1  and  C_2
REMARK    2  A    between atoms: C_5  and  N_6
REMARK    3  A    between atoms: C_7  and  C_9
REMARK    4  A    between atoms: C_15  and  N_16
REMARK    5  A    between atoms: C_22  and  N_23
REMARK    6  A    between atoms: N_26  and  C_27
REMARK                            x       y       z     vdW  Elec       q    Type
REMARK                         _______ _______ _______ _____ _____    ______ ____
ROOT
ATOM      1  N   UNL     1       0.204   9.682  20.211  0.00  0.00    +0.000 N 
ATOM      2  C   UNL     1      -0.036   8.763  21.210  0.00  0.00    +0.000 A 
ATOM      3  N   UNL     1       0.562   7.624  21.335  0.00  0.00    +0.000 NA
ATOM      4  C   UNL     1       1.530   7.299  20.375  0.00  0.00    +0.000 A 
ATOM      5  C   UNL     1       2.171   6.067  20.449  0.00  0.00    +0.000 A 
ATOM      6  C   UNL     1       3.156   5.721  19.514  0.00  0.00    +0.000 A 
ATOM      7  C   UNL     1       3.538   6.593  18.485  0.00  0.00    +0.000 A 
ATOM      8  C   UNL     1       2.867   7.819  18.411  0.00  0.00    +0.000 A 
ATOM      9  C   UNL     1       1.875   8.159  19.338  0.00  0.00    +0.000 A 
ATOM     10  C   UNL     1       1.165   9.444  19.232  0.00  0.00    +0.000 A 
ATOM     11  O   UNL     1       1.459  10.218  18.322  0.00  0.00    +0.000 OA
ENDROOT
BRANCH   1  18
ATOM     12  C   UNL     1      -1.874   9.979  18.108  0.00  0.00    +0.000 C 
ATOM     13  C   UNL     1      -1.547  11.041  19.122  0.00  0.00    +0.000 A 
ATOM     14  C   UNL     1      -2.291  12.230  19.115  0.00  0.00    +0.000 A 
ATOM     15  C   UNL     1      -2.110  13.205  20.101  0.00  0.00    +0.000 A 
ATOM     16  C   UNL     1      -1.179  13.017  21.119  0.00  0.00    +0.000 A 
ATOM     17  C   UNL     1      -0.412  11.848  21.120  0.00  0.00    +0.000 A 
ATOM     18  C   UNL     1      -0.588  10.860  20.133  0.00  0.00    +0.000 A 
BRANCH  16  19
ATOM     19  N   UNL     1      -0.950  13.951  22.154  0.00  0.00    +0.000 N 
ATOM     20  C   UNL     1      -1.662  14.079  23.338  0.00  0.00    +0.000 C 
ATOM     21  O   UNL     1      -2.598  13.354  23.661  0.00  0.00    +0.000 OA
ATOM     22  H   UNL     1      -0.129  14.538  22.066  0.00  0.00    +0.000 HD
BRANCH  20  23
ATOM     23  C   UNL     1      -1.207  15.136  24.225  0.00  0.00    +0.000 A 
ATOM     24  C   UNL     1      -1.539  15.293  25.557  0.00  0.00    +0.000 A 
ATOM     25  N   UNL     1      -0.980  16.381  26.199  0.00  0.00    +0.000 NA
ATOM     26  C   UNL     1      -0.227  17.040  25.348  0.00  0.00    +0.000 A 
ATOM     27  S   UNL     1      -0.153  16.406  23.755  0.00  0.00    +0.000 S 
ENDBRANCH  20  23
ENDBRANCH  16  19
ENDBRANCH   1  18
BRANCH   7  28
ATOM     28  N   UNL     1       4.570   6.314  17.616  0.00  0.00    +0.000 N 
ATOM     29  C   UNL     1       4.735   7.040  16.350  0.00  0.00    +0.000 C 
ATOM     30  C   UNL     1       5.273   6.067  15.273  0.00  0.00    +0.000 C 
ATOM     31  N   UNL     1       6.531   5.397  15.679  0.00  0.00    +0.000 NA
ATOM     32  C   UNL     1       6.958   4.455  14.648  0.00  0.00    +0.000 C 
ATOM     33  C   UNL     1       6.318   4.696  16.969  0.00  0.00    +0.000 C 
ATOM     34  C   UNL     1       5.794   5.638  18.078  0.00  0.00    +0.000 C 
ENDBRANCH   7  28
TORSDOF 4
ENDMDL
MODEL 8
REMARK VINA RESULT:      -7.3      2.222      2.386
REMARK  Name = 
REMARK  6 active torsions:
REMARK  status: ('A' for Active; 'I' for Inactive)
REMARK    1  A    between atoms: C_1  and  C_2
REMARK    2  A    between atoms: C_5  and  N_6
REMARK    3  A    between atoms: C_7  and  C_9
REMARK    4  A    between atoms: C_15  and  N_16
REMARK    5  A    between atoms: C_22  and  N_23
REMARK    6  A    between atoms: N_26  and  C_27
REMARK                            x       y       z     vdW  Elec       q    Type
REMARK                         _______ _______ _______ _____ _____    ______ ____
ROOT
ATOM      1  N   UNL     1       0.804   9.566  19.828  0.00  0.00    +0.000 N 
ATOM      2  C   UNL     1       0.423   8.788  20.900  0.00  0.00    +0.000 A 
ATOM      3  N   UNL     1       0.849   7.592  21.143  0.00  0.00    +0.000 NA
ATOM      4  C   UNL     1       1.770   7.044  20.239  0.00  0.00    +0.000 A 
ATOM      5  C   UNL     1       2.224   5.745  20.440  0.00  0.00    +0.000 A 
ATOM      6  C   UNL     1       3.158   5.175  19.564  0.00  0.00    +0.000 A 
ATOM      7  C   UNL     1       3.673   5.884  18.469  0.00  0.00    +0.000 A 
ATOM      8  C   UNL     1       3.187   7.181  18.268  0.00  0.00    +0.000 A 
ATOM      9  C   UNL     1       2.246   7.744  19.137  0.00  0.00    +0.000 A 
ATOM     10  C   UNL     1       1.731   9.102  18.898  0.00  0.00    +0.000 A 
ATOM     11  O   UNL     1       2.142   9.738  17.928  0.00  0.00    +0.000 OA
ENDROOT
BRANCH   1  18
ATOM     12  C   UNL     1      -1.260   9.934  17.722  0.00  0.00    +0.000 C 
ATOM     13  C   UNL     1      -0.756  11.041  18.607  0.00  0.00    +0.000 A 
ATOM     14  C   UNL     1      -1.317  12.320  18.473  0.00  0.00    +0.000 A 
ATOM     15  C   UNL     1      -0.971  13.360  19.342  0.00  0.00    +0.000 A 
ATOM     16  C   UNL     1      -0.052  13.148  20.366  0.00  0.00    +0.000 A 
ATOM     17  C   UNL     1       0.535  11.886  20.492  0.00  0.00    +0.000 A 
ATOM     18  C   UNL     1       0.191  10.833  19.624  0.00  0.00    +0.000 A 
BRANCH  16  19
ATOM     19  N   UNL     1       0.337  14.147  21.287  0.00  0.00    +0.000 N 
ATOM     20  C   UNL     1      -0.480  14.824  22.181  0.00  0.00    +0.000 C 
ATOM     21  O   UNL     1      -1.683  14.616  22.310  0.00  0.00    +0.000 OA
ATOM     22  H   UNL     1       1.329  14.333  21.367  0.00  0.00    +0.000 HD
BRANCH  20  23
ATOM     23  C   UNL     1       0.192  15.809  23.013  0.00  0.00    +0.000 A 
ATOM     24  C   UNL     1      -0.173  16.195  24.289  0.00  0.00    +0.000 A 
ATOM     25  N   UNL     1       0.624  17.154  24.884  0.00  0.00    +0.000 NA
ATOM     26  C   UNL     1       1.588  17.485  24.055  0.00  0.00    +0.000 A 
ATOM     27  S   UNL     1       1.590  16.683  22.538  0.00  0.00    +0.000 S 
ENDBRANCH  20  23
ENDBRANCH  16  19
ENDBRANCH   1  18
BRANCH   7  28
ATOM     28  N   UNL     1       4.662   5.380  17.654  0.00  0.00    +0.000 N 
ATOM     29  C   UNL     1       6.067   5.785  17.798  0.00  0.00    +0.000 C 
ATOM     30  C   UNL     1       6.725   5.845  16.399  0.00  0.00    +0.000 C 
ATOM     31  N   UNL     1       6.605   4.572  15.650  0.00  0.00    +0.000 NA
ATOM     32  C   UNL     1       7.195   4.709  14.321  0.00  0.00    +0.000 C 
ATOM     33  C   UNL     1       5.173   4.198  15.548  0.00  0.00    +0.000 C 
ATOM     34  C   UNL     1       4.481   4.111  16.928  0.00  0.00    +0.000 C 
ENDBRANCH   7  28
TORSDOF 4
ENDMDL
MODEL 9
REMARK VINA RESULT:      -7.1      4.433      6.275
REMARK  Name = 
REMARK  6 active torsions:
REMARK  status: ('A' for Active; 'I' for Inactive)
REMARK    1  A    between atoms: C_1  and  C_2
REMARK    2  A    between atoms: C_5  and  N_6
REMARK    3  A    between atoms: C_7  and  C_9
REMARK    4  A    between atoms: C_15  and  N_16
REMARK    5  A    between atoms: C_22  and  N_23
REMARK    6  A    between atoms: N_26  and  C_27
REMARK                            x       y       z     vdW  Elec       q    Type
REMARK                         _______ _______ _______ _____ _____    ______ ____
ROOT
ATOM      1  N   UNL     1       0.590  11.113  20.110  0.00  0.00    +0.000 N 
ATOM      2  C   UNL     1       1.016  11.462  18.847  0.00  0.00    +0.000 A 
ATOM      3  N   UNL     1       1.619  10.675  18.019  0.00  0.00    +0.000 NA
ATOM      4  C   UNL     1       1.860   9.361  18.443  0.00  0.00    +0.000 A 
ATOM      5  C   UNL     1       2.542   8.490  17.599  0.00  0.00    +0.000 A 
ATOM      6  C   UNL     1       2.783   7.166  17.989  0.00  0.00    +0.000 A 
ATOM      7  C   UNL     1       2.346   6.667  19.224  0.00  0.00    +0.000 A 
ATOM      8  C   UNL     1       1.683   7.563  20.071  0.00  0.00    +0.000 A 
ATOM      9  C   UNL     1       1.453   8.889  19.686  0.00  0.00    +0.000 A 
ATOM     10  C   UNL     1       0.773   9.822  20.598  0.00  0.00    +0.000 A 
ATOM     11  O   UNL     1       0.404   9.421  21.701  0.00  0.00    +0.000 OA
ENDROOT
BRANCH   1  18
ATOM     12  C   UNL     1       2.145  13.519  20.901  0.00  0.00    +0.000 C 
ATOM     13  C   UNL     1       0.750  13.226  21.381  0.00  0.00    +0.000 A 
ATOM     14  C   UNL     1       0.115  14.157  22.215  0.00  0.00    +0.000 A 
ATOM     15  C   UNL     1      -1.220  13.994  22.601  0.00  0.00    +0.000 A 
ATOM     16  C   UNL     1      -1.953  12.894  22.164  0.00  0.00    +0.000 A 
ATOM     17  C   UNL     1      -1.322  11.945  21.354  0.00  0.00    +0.000 A 
ATOM     18  C   UNL     1       0.020  12.101  20.959  0.00  0.00    +0.000 A 
BRANCH  16  19
ATOM     19  N   UNL     1      -3.306  12.671  22.503  0.00  0.00    +0.000 N 
ATOM     20  C   UNL     1      -4.410  13.382  22.055  0.00  0.00    +0.000 C 
ATOM     21  O   UNL     1      -4.352  14.314  21.258  0.00  0.00    +0.000 OA
ATOM     22  H   UNL     1      -3.507  11.853  23.066  0.00  0.00    +0.000 HD
BRANCH  20  23
ATOM     23  C   UNL     1      -5.691  12.932  22.573  0.00  0.00    +0.000 A 
ATOM     24  C   UNL     1      -6.095  12.947  23.895  0.00  0.00    +0.000 A 
ATOM     25  N   UNL     1      -7.365  12.465  24.147  0.00  0.00    +0.000 NA
ATOM     26  C   UNL     1      -7.914  12.091  23.014  0.00  0.00    +0.000 A 
ATOM     27  S   UNL     1      -6.952  12.287  21.606  0.00  0.00    +0.000 S 
ENDBRANCH  20  23
ENDBRANCH  16  19
ENDBRANCH   1  18
BRANCH   7  28
ATOM     28  N   UNL     1       2.485   5.346  19.586  0.00  0.00    +0.000 N 
ATOM     29  C   UNL     1       1.628   4.726  20.605  0.00  0.00    +0.000 C 
ATOM     30  C   UNL     1       2.459   3.702  21.414  0.00  0.00    +0.000 C 
ATOM     31  N   UNL     1       3.105   2.680  20.558  0.00  0.00    +0.000 NA
ATOM     32  C   UNL     1       3.917   1.778  21.372  0.00  0.00    +0.000 C 
ATOM     33  C   UNL     1       3.943   3.354  19.536  0.00  0.00    +0.000 C 
ATOM     34  C   UNL     1       3.144   4.376  18.694  0.00  0.00    +0.000 C 
ENDBRANCH   7  28
TORSDOF 4
ENDMDL
