MODEL 1
REMARK VINA RESULT:      -8.0      0.000      0.000
REMARK  Name = 
REMARK  8 active torsions:
REMARK  status: ('A' for Active; 'I' for Inactive)
REMARK    1  A    between atoms: C_1  and  C_2
REMARK    2  A    between atoms: C_2  and  C_3
REMARK    3  A    between atoms: C_2  and  N_4
REMARK    4  A    between atoms: C_7  and  C_8
REMARK    5  A    between atoms: C_10  and  C_11
REMARK    6  A    between atoms: C_11  and  C_12
REMARK    7  A    between atoms: N_16  and  C_17
REMARK    8  A    between atoms: C_17  and  C_18
REMARK                            x       y       z     vdW  Elec       q    Type
REMARK                         _______ _______ _______ _____ _____    ______ ____
ROOT
ATOM      1  C   UNL     1       5.430   4.200  16.330  0.00  0.00    +0.000 A 
ATOM      2  N   UNL     1       5.214   3.994  15.042  0.00  0.00    +0.000 NA
ATOM      3  C   UNL     1       6.402   4.347  14.446  0.00  0.00    +0.000 A 
ATOM      4  N   UNL     1       7.341   4.767  15.303  0.00  0.00    +0.000 NA
ATOM      5  N   UNL     1       6.714   4.657  16.496  0.00  0.00    +0.000 N 
ENDROOT
BRANCH   1   9
ATOM      6  N   UNL     1       3.136   4.211  19.056  0.00  0.00    +0.000 N 
ATOM      7  C   UNL     1       3.110   2.863  18.832  0.00  0.00    +0.000 A 
ATOM      8  C   UNL     1       3.954   2.637  17.769  0.00  0.00    +0.000 A 
ATOM      9  C   UNL     1       4.448   3.911  17.417  0.00  0.00    +0.000 A 
ATOM     10  N   UNL     1       3.949   4.870  18.205  0.00  0.00    +0.000 NA
BRANCH   6  12
ATOM     11  C   UNL     1       2.328   6.413  19.825  0.00  0.00    +0.000 C 
ATOM     12  C   UNL     1       2.468   4.924  20.142  0.00  0.00    +0.000 C 
ATOM     13  C   UNL     1       1.116   4.304  20.490  0.00  0.00    +0.000 C 
ENDBRANCH   6  12
ENDBRANCH   1   9
BRANCH   3  14
ATOM     14  C   UNL     1       6.712   4.144  13.003  0.00  0.00    +0.000 C 
BRANCH  14  15
ATOM     15  C   UNL     1       5.820   3.209  12.214  0.00  0.00    +0.000 C 
ATOM     16  N   UNL     1       6.299   1.998  11.828  0.00  0.00    +0.000 N 
ATOM     17  O   UNL     1       4.677   3.535  11.884  0.00  0.00    +0.000 OA
ATOM     18  H   UNL     1       7.274   1.748  11.974  0.00  0.00    +0.000 HD
ATOM     19  H   UNL     1       5.716   1.407  11.253  0.00  0.00    +0.000 HD
ENDBRANCH  14  15
ENDBRANCH   3  14
BRANCH   5  20
ATOM     20  C   UNL     1       7.500   4.691  17.705  0.00  0.00    +0.000 C 
BRANCH  20  21
ATOM     21  C   UNL     1       7.322   5.933  18.543  0.00  0.00    +0.000 C 
ATOM     22  F   UNL     1       8.472   6.535  18.904  0.00  0.00    +0.000 F 
ATOM     23  F   UNL     1       6.559   6.847  17.892  0.00  0.00    +0.000 F 
ATOM     24  F   UNL     1       6.656   5.636  19.688  0.00  0.00    +0.000 F 
ENDBRANCH  20  21
ENDBRANCH   5  20
TORSDOF 6
ENDMDL
MODEL 2
REMARK VINA RESULT:      -8.0      1.172      1.787
REMARK  Name = 
REMARK  8 active torsions:
REMARK  status: ('A' for Active; 'I' for Inactive)
REMARK    1  A    between atoms: C_1  and  C_2
REMARK    2  A    between atoms: C_2  and  C_3
REMARK    3  A    between atoms: C_2  and  N_4
REMARK    4  A    between atoms: C_7  and  C_8
REMARK    5  A    between atoms: C_10  and  C_11
REMARK    6  A    between atoms: C_11  and  C_12
REMARK    7  A    between atoms: N_16  and  C_17
REMARK    8  A    between atoms: C_17  and  C_18
REMARK                            x       y       z     vdW  Elec       q    Type
REMARK                         _______ _______ _______ _____ _____    ______ ____
ROOT
ATOM      1  C   UNL     1       5.430   4.578  16.165  0.00  0.00    +0.000 A 
ATOM      2  N   UNL     1       5.251   4.423  14.865  0.00  0.00    +0.000 NA
ATOM      3  C   UNL     1       6.515   4.550  14.339  0.00  0.00    +0.000 A 
ATOM      4  N   UNL     1       7.467   4.780  15.252  0.00  0.00    +0.000 NA
ATOM      5  N   UNL     1       6.766   4.784  16.407  0.00  0.00    +0.000 N 
ENDROOT
BRANCH   1   9
ATOM      6  N   UNL     1       2.999   3.628  18.591  0.00  0.00    +0.000 N 
ATOM      7  C   UNL     1       2.697   4.961  18.577  0.00  0.00    +0.000 A 
ATOM      8  C   UNL     1       3.563   5.539  17.677  0.00  0.00    +0.000 A 
ATOM      9  C   UNL     1       4.352   4.473  17.193  0.00  0.00    +0.000 A 
ATOM     10  N   UNL     1       4.005   3.307  17.751  0.00  0.00    +0.000 NA
BRANCH   6  12
ATOM     11  C   UNL     1       2.240   2.897  20.823  0.00  0.00    +0.000 C 
ATOM     12  C   UNL     1       2.289   2.585  19.327  0.00  0.00    +0.000 C 
ATOM     13  C   UNL     1       0.889   2.340  18.768  0.00  0.00    +0.000 C 
ENDBRANCH   6  12
ENDBRANCH   1   9
BRANCH   3  14
ATOM     14  C   UNL     1       6.861   4.300  12.911  0.00  0.00    +0.000 C 
BRANCH  14  15
ATOM     15  C   UNL     1       6.053   3.263  12.160  0.00  0.00    +0.000 C 
ATOM     16  N   UNL     1       4.711   3.429  12.031  0.00  0.00    +0.000 N 
ATOM     17  O   UNL     1       6.580   2.253  11.689  0.00  0.00    +0.000 OA
ATOM     18  H   UNL     1       4.226   4.183  12.511  0.00  0.00    +0.000 HD
ATOM     19  H   UNL     1       4.175   2.703  11.579  0.00  0.00    +0.000 HD
ENDBRANCH  14  15
ENDBRANCH   3  14
BRANCH   5  20
ATOM     20  C   UNL     1       7.476   4.663  17.658  0.00  0.00    +0.000 C 
BRANCH  20  21
ATOM     21  C   UNL     1       7.307   5.830  18.599  0.00  0.00    +0.000 C 
ATOM     22  F   UNL     1       6.378   5.646  19.557  0.00  0.00    +0.000 F 
ATOM     23  F   UNL     1       8.482   6.129  19.208  0.00  0.00    +0.000 F 
ATOM     24  F   UNL     1       6.948   6.942  17.909  0.00  0.00    +0.000 F 
ENDBRANCH  20  21
ENDBRANCH   5  20
TORSDOF 6
ENDMDL
MODEL 3
REMARK VINA RESULT:      -7.9      0.927      1.507
REMARK  Name = 
REMARK  8 active torsions:
REMARK  status: ('A' for Active; 'I' for Inactive)
REMARK    1  A    between atoms: C_1  and  C_2
REMARK    2  A    between atoms: C_2  and  C_3
REMARK    3  A    between atoms: C_2  and  N_4
REMARK    4  A    between atoms: C_7  and  C_8
REMARK    5  A    between atoms: C_10  and  C_11
REMARK    6  A    between atoms: C_11  and  C_12
REMARK    7  A    between atoms: N_16  and  C_17
REMARK    8  A    between atoms: C_17  and  C_18
REMARK                            x       y       z     vdW  Elec       q    Type
REMARK                         _______ _______ _______ _____ _____    ______ ____
ROOT
ATOM      1  C   UNL     1       5.394   4.617  16.250  0.00  0.00    +0.000 A 
ATOM      2  N   UNL     1       5.194   4.463  14.953  0.00  0.00    +0.000 NA
ATOM      3  C   UNL     1       6.459   4.516  14.414  0.00  0.00    +0.000 A 
ATOM      4  N   UNL     1       7.431   4.701  15.316  0.00  0.00    +0.000 NA
ATOM      5  N   UNL     1       6.742   4.751  16.478  0.00  0.00    +0.000 N 
ENDROOT
BRANCH   1   9
ATOM      6  N   UNL     1       2.999   3.831  18.768  0.00  0.00    +0.000 N 
ATOM      7  C   UNL     1       2.656   5.147  18.628  0.00  0.00    +0.000 A 
ATOM      8  C   UNL     1       3.502   5.661  17.672  0.00  0.00    +0.000 A 
ATOM      9  C   UNL     1       4.322   4.579  17.289  0.00  0.00    +0.000 A 
ATOM     10  N   UNL     1       4.012   3.462  17.958  0.00  0.00    +0.000 NA
BRANCH   6  12
ATOM     11  C   UNL     1       3.029   2.678  20.950  0.00  0.00    +0.000 C 
ATOM     12  C   UNL     1       2.323   2.842  19.604  0.00  0.00    +0.000 C 
ATOM     13  C   UNL     1       0.842   3.167  19.793  0.00  0.00    +0.000 C 
ENDBRANCH   6  12
ENDBRANCH   1   9
BRANCH   3  14
ATOM     14  C   UNL     1       6.777   4.237  12.985  0.00  0.00    +0.000 C 
BRANCH  14  15
ATOM     15  C   UNL     1       5.893   3.257  12.244  0.00  0.00    +0.000 C 
ATOM     16  N   UNL     1       6.412   2.071  11.833  0.00  0.00    +0.000 N 
ATOM     17  O   UNL     1       4.720   3.524  11.974  0.00  0.00    +0.000 OA
ATOM     18  H   UNL     1       7.404   1.870  11.927  0.00  0.00    +0.000 HD
ATOM     19  H   UNL     1       5.829   1.450  11.288  0.00  0.00    +0.000 HD
ENDBRANCH  14  15
ENDBRANCH   3  14
BRANCH   5  20
ATOM     20  C   UNL     1       7.456   4.600  17.723  0.00  0.00    +0.000 C 
BRANCH  20  21
ATOM     21  C   UNL     1       7.416   5.807  18.627  0.00  0.00    +0.000 C 
ATOM     22  F   UNL     1       7.365   6.989  17.982  0.00  0.00    +0.000 F 
ATOM     23  F   UNL     1       6.352   5.743  19.466  0.00  0.00    +0.000 F 
ATOM     24  F   UNL     1       8.517   5.837  19.420  0.00  0.00    +0.000 F 
ENDBRANCH  20  21
ENDBRANCH   5  20
TORSDOF 6
ENDMDL
MODEL 4
REMARK VINA RESULT:      -7.9      1.201      1.720
REMARK  Name = 
REMARK  8 active torsions:
REMARK  status: ('A' for Active; 'I' for Inactive)
REMARK    1  A    between atoms: C_1  and  C_2
REMARK    2  A    between atoms: C_2  and  C_3
REMARK    3  A    between atoms: C_2  and  N_4
REMARK    4  A    between atoms: C_7  and  C_8
REMARK    5  A    between atoms: C_10  and  C_11
REMARK    6  A    between atoms: C_11  and  C_12
REMARK    7  A    between atoms: N_16  and  C_17
REMARK    8  A    between atoms: C_17  and  C_18
REMARK                            x       y       z     vdW  Elec       q    Type
REMARK                         _______ _______ _______ _____ _____    ______ ____
ROOT
ATOM      1  C   UNL     1       5.442   4.962  16.108  0.00  0.00    +0.000 A 
ATOM      2  N   UNL     1       5.353   4.886  14.792  0.00  0.00    +0.000 NA
ATOM      3  C   UNL     1       6.660   4.783  14.377  0.00  0.00    +0.000 A 
ATOM      4  N   UNL     1       7.554   4.796  15.374  0.00  0.00    +0.000 NA
ATOM      5  N   UNL     1       6.765   4.899  16.468  0.00  0.00    +0.000 N 
ENDROOT
BRANCH   1   9
ATOM      6  N   UNL     1       2.589   4.441  18.179  0.00  0.00    +0.000 N 
ATOM      7  C   UNL     1       2.702   5.786  18.400  0.00  0.00    +0.000 A 
ATOM      8  C   UNL     1       3.794   6.201  17.672  0.00  0.00    +0.000 A 
ATOM      9  C   UNL     1       4.277   5.035  17.039  0.00  0.00    +0.000 A 
ATOM     10  N   UNL     1       3.538   3.963  17.348  0.00  0.00    +0.000 NA
BRANCH   6  12
ATOM     11  C   UNL     1       1.957   2.103  18.649  0.00  0.00    +0.000 C 
ATOM     12  C   UNL     1       1.524   3.568  18.666  0.00  0.00    +0.000 C 
ATOM     13  C   UNL     1       1.031   3.983  20.051  0.00  0.00    +0.000 C 
ENDBRANCH   6  12
ENDBRANCH   1   9
BRANCH   3  14
ATOM     14  C   UNL     1       7.078   4.516  12.972  0.00  0.00    +0.000 C 
BRANCH  14  15
ATOM     15  C   UNL     1       6.344   3.433  12.210  0.00  0.00    +0.000 C 
ATOM     16  N   UNL     1       4.986   3.434  12.193  0.00  0.00    +0.000 N 
ATOM     17  O   UNL     1       6.950   2.529  11.631  0.00  0.00    +0.000 OA
ATOM     18  H   UNL     1       4.454   4.088  12.761  0.00  0.00    +0.000 HD
ATOM     19  H   UNL     1       4.507   2.674  11.731  0.00  0.00    +0.000 HD
ENDBRANCH  14  15
ENDBRANCH   3  14
BRANCH   5  20
ATOM     20  C   UNL     1       7.325   4.603  17.764  0.00  0.00    +0.000 C 
BRANCH  20  21
ATOM     21  C   UNL     1       7.393   5.777  18.709  0.00  0.00    +0.000 C 
ATOM     22  F   UNL     1       8.560   5.894  19.374  0.00  0.00    +0.000 F 
ATOM     23  F   UNL     1       7.173   6.940  18.046  0.00  0.00    +0.000 F 
ATOM     24  F   UNL     1       6.413   5.687  19.644  0.00  0.00    +0.000 F 
ENDBRANCH  20  21
ENDBRANCH   5  20
TORSDOF 6
ENDMDL
MODEL 5
REMARK VINA RESULT:      -7.9      0.405      1.145
REMARK  Name = 
REMARK  8 active torsions:
REMARK  status: ('A' for Active; 'I' for Inactive)
REMARK    1  A    between atoms: C_1  and  C_2
REMARK    2  A    between atoms: C_2  and  C_3
REMARK    3  A    between atoms: C_2  and  N_4
REMARK    4  A    between atoms: C_7  and  C_8
REMARK    5  A    between atoms: C_10  and  C_11
REMARK    6  A    between atoms: C_11  and  C_12
REMARK    7  A    between atoms: N_16  and  C_17
REMARK    8  A    between atoms: C_17  and  C_18
REMARK                            x       y       z     vdW  Elec       q    Type
REMARK                         _______ _______ _______ _____ _____    ______ ____
ROOT
ATOM      1  C   UNL     1       5.395   4.291  16.121  0.00  0.00    +0.000 A 
ATOM      2  N   UNL     1       5.186   4.039  14.841  0.00  0.00    +0.000 NA
ATOM      3  C   UNL     1       6.400   4.305  14.249  0.00  0.00    +0.000 A 
ATOM      4  N   UNL     1       7.347   4.714  15.103  0.00  0.00    +0.000 NA
ATOM      5  N   UNL     1       6.698   4.689  16.288  0.00  0.00    +0.000 N 
ENDROOT
BRANCH   1   9
ATOM      6  N   UNL     1       2.896   4.544  18.649  0.00  0.00    +0.000 N 
ATOM      7  C   UNL     1       3.127   3.203  18.788  0.00  0.00    +0.000 A 
ATOM      8  C   UNL     1       4.091   2.885  17.859  0.00  0.00    +0.000 A 
ATOM      9  C   UNL     1       4.384   4.100  17.203  0.00  0.00    +0.000 A 
ATOM     10  N   UNL     1       3.655   5.112  17.689  0.00  0.00    +0.000 NA
BRANCH   6  12
ATOM     11  C   UNL     1       1.827   4.744  20.864  0.00  0.00    +0.000 C 
ATOM     12  C   UNL     1       2.018   5.363  19.479  0.00  0.00    +0.000 C 
ATOM     13  C   UNL     1       2.508   6.807  19.582  0.00  0.00    +0.000 C 
ENDBRANCH   6  12
ENDBRANCH   1   9
BRANCH   3  14
ATOM     14  C   UNL     1       6.719   4.023  12.821  0.00  0.00    +0.000 C 
BRANCH  14  15
ATOM     15  C   UNL     1       5.793   3.098  12.060  0.00  0.00    +0.000 C 
ATOM     16  N   UNL     1       6.200   1.834  11.774  0.00  0.00    +0.000 N 
ATOM     17  O   UNL     1       4.688   3.477  11.664  0.00  0.00    +0.000 OA
ATOM     18  H   UNL     1       7.150   1.530  11.975  0.00  0.00    +0.000 HD
ATOM     19  H   UNL     1       5.598   1.246  11.216  0.00  0.00    +0.000 HD
ENDBRANCH  14  15
ENDBRANCH   3  14
BRANCH   5  20
ATOM     20  C   UNL     1       7.468   4.736  17.508  0.00  0.00    +0.000 C 
BRANCH  20  21
ATOM     21  C   UNL     1       7.185   5.926  18.391  0.00  0.00    +0.000 C 
ATOM     22  F   UNL     1       6.558   6.946  17.772  0.00  0.00    +0.000 F 
ATOM     23  F   UNL     1       6.434   5.563  19.461  0.00  0.00    +0.000 F 
ATOM     24  F   UNL     1       8.343   6.423  18.896  0.00  0.00    +0.000 F 
ENDBRANCH  20  21
ENDBRANCH   5  20
TORSDOF 6
ENDMDL
MODEL 6
REMARK VINA RESULT:      -7.8      3.499      5.251
REMARK  Name = 
REMARK  8 active torsions:
REMARK  status: ('A' for Active; 'I' for Inactive)
REMARK    1  A    between atoms: C_1  and  C_2
REMARK    2  A    between atoms: C_2  and  C_3
REMARK    3  A    between atoms: C_2  and  N_4
REMARK    4  A    between atoms: C_7  and  C_8
REMARK    5  A    between atoms: C_10  and  C_11
REMARK    6  A    between atoms: C_11  and  C_12
REMARK    7  A    between atoms: N_16  and  C_17
REMARK    8  A    between atoms: C_17  and  C_18
REMARK                            x       y       z     vdW  Elec       q    Type
REMARK                         _______ _______ _______ _____ _____    ______ ____
ROOT
ATOM      1  C   UNL     1       3.245   6.067  18.037  0.00  0.00    +0.000 A 
ATOM      2  N   UNL     1       4.424   6.101  17.440  0.00  0.00    +0.000 NA
ATOM      3  C   UNL     1       4.651   4.793  17.081  0.00  0.00    +0.000 A 
ATOM      4  N   UNL     1       3.670   3.950  17.431  0.00  0.00    +0.000 NA
ATOM      5  N   UNL     1       2.780   4.775  18.027  0.00  0.00    +0.000 N 
ENDROOT
BRANCH   1   9
ATOM      6  N   UNL     1       1.562   8.574  19.928  0.00  0.00    +0.000 N 
ATOM      7  C   UNL     1       1.433   9.181  18.710  0.00  0.00    +0.000 A 
ATOM      8  C   UNL     1       2.051   8.350  17.803  0.00  0.00    +0.000 A 
ATOM      9  C   UNL     1       2.523   7.261  18.567  0.00  0.00    +0.000 A 
ATOM     10  N   UNL     1       2.221   7.399  19.863  0.00  0.00    +0.000 NA
BRANCH   6  12
ATOM     11  C   UNL     1       0.781  10.546  21.190  0.00  0.00    +0.000 C 
ATOM     12  C   UNL     1       0.986   9.031  21.190  0.00  0.00    +0.000 C 
ATOM     13  C   UNL     1      -0.312   8.298  21.527  0.00  0.00    +0.000 C 
ENDBRANCH   6  12
ENDBRANCH   1   9
BRANCH   3  14
ATOM     14  C   UNL     1       5.792   4.338  16.237  0.00  0.00    +0.000 C 
BRANCH  14  15
ATOM     15  C   UNL     1       7.162   4.907  16.536  0.00  0.00    +0.000 C 
ATOM     16  N   UNL     1       7.420   6.210  16.251  0.00  0.00    +0.000 N 
ATOM     17  O   UNL     1       8.063   4.206  17.004  0.00  0.00    +0.000 OA
ATOM     18  H   UNL     1       6.744   6.782  15.752  0.00  0.00    +0.000 HD
ATOM     19  H   UNL     1       8.354   6.562  16.401  0.00  0.00    +0.000 HD
ENDBRANCH  14  15
ENDBRANCH   3  14
BRANCH   5  20
ATOM     20  C   UNL     1       1.431   4.310  18.241  0.00  0.00    +0.000 C 
BRANCH  20  21
ATOM     21  C   UNL     1       1.177   3.707  19.600  0.00  0.00    +0.000 C 
ATOM     22  F   UNL     1       0.289   2.692  19.605  0.00  0.00    +0.000 F 
ATOM     23  F   UNL     1       2.332   3.253  20.148  0.00  0.00    +0.000 F 
ATOM     24  F   UNL     1       0.702   4.650  20.453  0.00  0.00    +0.000 F 
ENDBRANCH  20  21
ENDBRANCH   5  20
TORSDOF 6
ENDMDL
MODEL 7
REMARK VINA RESULT:      -7.8      1.203      1.547
REMARK  Name = 
REMARK  8 active torsions:
REMARK  status: ('A' for Active; 'I' for Inactive)
REMARK    1  A    between atoms: C_1  and  C_2
REMARK    2  A    between atoms: C_2  and  C_3
REMARK    3  A    between atoms: C_2  and  N_4
REMARK    4  A    between atoms: C_7  and  C_8
REMARK    5  A    between atoms: C_10  and  C_11
REMARK    6  A    between atoms: C_11  and  C_12
REMARK    7  A    between atoms: N_16  and  C_17
REMARK    8  A    between atoms: C_17  and  C_18
REMARK                            x       y       z     vdW  Elec       q    Type
REMARK                         _______ _______ _______ _____ _____    ______ ____
ROOT
ATOM      1  C   UNL     1       5.112   4.503  16.452  0.00  0.00    +0.000 A 
ATOM      2  N   UNL     1       5.308   3.779  15.364  0.00  0.00    +0.000 NA
ATOM      3  C   UNL     1       6.085   4.585  14.565  0.00  0.00    +0.000 A 
ATOM      4  N   UNL     1       6.374   5.776  15.105  0.00  0.00    +0.000 NA
ATOM      5  N   UNL     1       5.760   5.705  16.307  0.00  0.00    +0.000 N 
ENDROOT
BRANCH   1   9
ATOM      6  N   UNL     1       2.745   3.605  18.959  0.00  0.00    +0.000 N 
ATOM      7  C   UNL     1       3.865   3.300  19.682  0.00  0.00    +0.000 A 
ATOM      8  C   UNL     1       4.934   3.574  18.860  0.00  0.00    +0.000 A 
ATOM      9  C   UNL     1       4.362   4.044  17.659  0.00  0.00    +0.000 A 
ATOM     10  N   UNL     1       3.025   4.064  17.723  0.00  0.00    +0.000 NA
BRANCH   6  12
ATOM     11  C   UNL     1       0.593   2.407  18.809  0.00  0.00    +0.000 C 
ATOM     12  C   UNL     1       1.366   3.566  19.439  0.00  0.00    +0.000 C 
ATOM     13  C   UNL     1       1.290   3.516  20.964  0.00  0.00    +0.000 C 
ENDBRANCH   6  12
ENDBRANCH   1   9
BRANCH   3  14
ATOM     14  C   UNL     1       6.703   4.151  13.280  0.00  0.00    +0.000 C 
BRANCH  14  15
ATOM     15  C   UNL     1       5.881   3.272  12.362  0.00  0.00    +0.000 C 
ATOM     16  N   UNL     1       6.434   2.143  11.849  0.00  0.00    +0.000 N 
ATOM     17  O   UNL     1       4.729   3.575  12.043  0.00  0.00    +0.000 OA
ATOM     18  H   UNL     1       7.418   1.929  11.990  0.00  0.00    +0.000 HD
ATOM     19  H   UNL     1       5.896   1.596  11.192  0.00  0.00    +0.000 HD
ENDBRANCH  14  15
ENDBRANCH   3  14
BRANCH   5  20
ATOM     20  C   UNL     1       6.116   6.656  17.332  0.00  0.00    +0.000 C 
BRANCH  20  21
ATOM     21  C   UNL     1       7.325   6.282  18.153  0.00  0.00    +0.000 C 
ATOM     22  F   UNL     1       8.269   7.240  18.228  0.00  0.00    +0.000 F 
ATOM     23  F   UNL     1       6.963   5.953  19.419  0.00  0.00    +0.000 F 
ATOM     24  F   UNL     1       7.922   5.179  17.635  0.00  0.00    +0.000 F 
ENDBRANCH  20  21
ENDBRANCH   5  20
TORSDOF 6
ENDMDL
MODEL 8
REMARK VINA RESULT:      -7.8      1.125      1.748
REMARK  Name = 
REMARK  8 active torsions:
REMARK  status: ('A' for Active; 'I' for Inactive)
REMARK    1  A    between atoms: C_1  and  C_2
REMARK    2  A    between atoms: C_2  and  C_3
REMARK    3  A    between atoms: C_2  and  N_4
REMARK    4  A    between atoms: C_7  and  C_8
REMARK    5  A    between atoms: C_10  and  C_11
REMARK    6  A    between atoms: C_11  and  C_12
REMARK    7  A    between atoms: N_16  and  C_17
REMARK    8  A    between atoms: C_17  and  C_18
REMARK                            x       y       z     vdW  Elec       q    Type
REMARK                         _______ _______ _______ _____ _____    ______ ____
ROOT
ATOM      1  C   UNL     1       5.216   5.091  16.224  0.00  0.00    +0.000 A 
ATOM      2  N   UNL     1       5.178   4.385  15.108  0.00  0.00    +0.000 NA
ATOM      3  C   UNL     1       6.363   4.691  14.480  0.00  0.00    +0.000 A 
ATOM      4  N   UNL     1       7.130   5.558  15.154  0.00  0.00    +0.000 NA
ATOM      5  N   UNL     1       6.395   5.794  16.264  0.00  0.00    +0.000 N 
ENDROOT
BRANCH   1   9
ATOM      6  N   UNL     1       2.813   4.314  18.738  0.00  0.00    +0.000 N 
ATOM      7  C   UNL     1       2.594   5.663  18.721  0.00  0.00    +0.000 A 
ATOM      8  C   UNL     1       3.464   6.179  17.787  0.00  0.00    +0.000 A 
ATOM      9  C   UNL     1       4.169   5.062  17.288  0.00  0.00    +0.000 A 
ATOM     10  N   UNL     1       3.768   3.925  17.868  0.00  0.00    +0.000 NA
BRANCH   6  12
ATOM     11  C   UNL     1       1.104   3.994  20.489  0.00  0.00    +0.000 C 
ATOM     12  C   UNL     1       2.065   3.323  19.507  0.00  0.00    +0.000 C 
ATOM     13  C   UNL     1       1.329   2.333  18.605  0.00  0.00    +0.000 C 
ENDBRANCH   6  12
ENDBRANCH   1   9
BRANCH   3  14
ATOM     14  C   UNL     1       6.859   4.022  13.245  0.00  0.00    +0.000 C 
BRANCH  14  15
ATOM     15  C   UNL     1       5.854   3.277  12.393  0.00  0.00    +0.000 C 
ATOM     16  N   UNL     1       6.174   2.053  11.901  0.00  0.00    +0.000 N 
ATOM     17  O   UNL     1       4.761   3.771  12.108  0.00  0.00    +0.000 OA
ATOM     18  H   UNL     1       7.110   1.670  12.012  0.00  0.00    +0.000 HD
ATOM     19  H   UNL     1       5.519   1.591  11.286  0.00  0.00    +0.000 HD
ENDBRANCH  14  15
ENDBRANCH   3  14
BRANCH   5  20
ATOM     20  C   UNL     1       7.027   6.414  17.403  0.00  0.00    +0.000 C 
BRANCH  20  21
ATOM     21  C   UNL     1       7.483   5.455  18.475  0.00  0.00    +0.000 C 
ATOM     22  F   UNL     1       6.546   5.161  19.398  0.00  0.00    +0.000 F 
ATOM     23  F   UNL     1       7.909   4.290  17.927  0.00  0.00    +0.000 F 
ATOM     24  F   UNL     1       8.547   5.968  19.143  0.00  0.00    +0.000 F 
ENDBRANCH  20  21
ENDBRANCH   5  20
TORSDOF 6
ENDMDL
MODEL 9
REMARK VINA RESULT:      -7.8      0.979      1.378
REMARK  Name = 
REMARK  8 active torsions:
REMARK  status: ('A' for Active; 'I' for Inactive)
REMARK    1  A    between atoms: C_1  and  C_2
REMARK    2  A    between atoms: C_2  and  C_3
REMARK    3  A    between atoms: C_2  and  N_4
REMARK    4  A    between atoms: C_7  and  C_8
REMARK    5  A    between atoms: C_10  and  C_11
REMARK    6  A    between atoms: C_11  and  C_12
REMARK    7  A    between atoms: N_16  and  C_17
REMARK    8  A    between atoms: C_17  and  C_18
REMARK                            x       y       z     vdW  Elec       q    Type
REMARK                         _______ _______ _______ _____ _____    ______ ____
ROOT
ATOM      1  C   UNL     1       5.517   4.320  16.192  0.00  0.00    +0.000 A 
ATOM      2  N   UNL     1       5.266   3.931  14.955  0.00  0.00    +0.000 NA
ATOM      3  C   UNL     1       6.363   4.359  14.244  0.00  0.00    +0.000 A 
ATOM      4  N   UNL     1       7.278   4.999  14.983  0.00  0.00    +0.000 NA
ATOM      5  N   UNL     1       6.733   4.957  16.219  0.00  0.00    +0.000 N 
ENDROOT
BRANCH   1   9
ATOM      6  N   UNL     1       2.890   3.780  18.539  0.00  0.00    +0.000 N 
ATOM      7  C   UNL     1       3.925   3.620  19.419  0.00  0.00    +0.000 A 
ATOM      8  C   UNL     1       5.077   3.784  18.685  0.00  0.00    +0.000 A 
ATOM      9  C   UNL     1       4.640   4.043  17.369  0.00  0.00    +0.000 A 
ATOM     10  N   UNL     1       3.304   4.042  17.283  0.00  0.00    +0.000 NA
BRANCH   6  12
ATOM     11  C   UNL     1       0.858   2.392  18.716  0.00  0.00    +0.000 C 
ATOM     12  C   UNL     1       1.467   3.786  18.866  0.00  0.00    +0.000 C 
ATOM     13  C   UNL     1       1.199   4.359  20.257  0.00  0.00    +0.000 C 
ENDBRANCH   6  12
ENDBRANCH   1   9
BRANCH   3  14
ATOM     14  C   UNL     1       6.624   4.021  12.816  0.00  0.00    +0.000 C 
BRANCH  14  15
ATOM     15  C   UNL     1       5.641   3.107  12.116  0.00  0.00    +0.000 C 
ATOM     16  N   UNL     1       6.033   1.858  11.755  0.00  0.00    +0.000 N 
ATOM     17  O   UNL     1       4.501   3.483  11.834  0.00  0.00    +0.000 OA
ATOM     18  H   UNL     1       7.000   1.560  11.859  0.00  0.00    +0.000 HD
ATOM     19  H   UNL     1       5.388   1.279  11.237  0.00  0.00    +0.000 HD
ENDBRANCH  14  15
ENDBRANCH   3  14
BRANCH   5  20
ATOM     20  C   UNL     1       7.567   5.241  17.361  0.00  0.00    +0.000 C 
BRANCH  20  21
ATOM     21  C   UNL     1       7.494   6.662  17.862  0.00  0.00    +0.000 C 
ATOM     22  F   UNL     1       8.127   6.876  19.033  0.00  0.00    +0.000 F 
ATOM     23  F   UNL     1       8.008   7.522  16.947  0.00  0.00    +0.000 F 
ATOM     24  F   UNL     1       6.201   7.033  18.040  0.00  0.00    +0.000 F 
ENDBRANCH  20  21
ENDBRANCH   5  20
TORSDOF 6
ENDMDL
