MODEL 1
REMARK VINA RESULT:      -6.4      0.000      0.000
REMARK  Name = 
REMARK  14 active torsions:
REMARK  status: ('A' for Active; 'I' for Inactive)
REMARK    1  A    between atoms: O_1  and  C_2
REMARK    2  A    between atoms: C_2  and  C_3
REMARK    3  A    between atoms: C_4  and  O_5
REMARK    4  A    between atoms: C_6  and  O_7
REMARK    5  A    between atoms: C_8  and  O_9
REMARK    6  A    between atoms: N_11  and  C_12
REMARK    7  A    between atoms: C_12  and  C_13
REMARK    8  A    between atoms: C_13  and  C_14
REMARK    9  A    between atoms: C_14  and  C_15
REMARK   10  A    between atoms: C_15  and  C_16
REMARK   11  A    between atoms: C_16  and  C_17
REMARK   12  A    between atoms: C_17  and  C_18
REMARK   13  A    between atoms: C_18  and  C_19
REMARK   14  A    between atoms: C_19  and  C_20
REMARK                            x       y       z     vdW  Elec       q    Type
REMARK                         _______ _______ _______ _____ _____    ______ ____
ROOT
ATOM      1  C   UNL     1       5.749   5.800  16.374  0.00  0.00    +0.000 C 
ATOM      2  C   UNL     1       6.874   4.741  16.530  0.00  0.00    +0.000 C 
ATOM      3  C   UNL     1       7.663   4.936  17.838  0.00  0.00    +0.000 C 
ATOM      4  C   UNL     1       6.714   4.969  19.032  0.00  0.00    +0.000 C 
ATOM      5  C   UNL     1       5.664   6.058  18.817  0.00  0.00    +0.000 C 
ATOM      6  N   UNL     1       4.875   5.872  17.580  0.00  0.00    +0.000 NA
ENDROOT
BRANCH   2   7
ATOM      7  O   UNL     1       7.773   4.843  15.406  0.00  0.00    +0.000 OA
ATOM      8  H   UNL     1       8.658   4.557  15.695  0.00  0.00    +0.000 HD
ENDBRANCH   2   7
BRANCH   3   9
ATOM      9  O   UNL     1       8.649   3.906  17.980  0.00  0.00    +0.000 OA
ATOM     10  H   UNL     1       9.156   4.102  18.792  0.00  0.00    +0.000 HD
ENDBRANCH   3   9
BRANCH   4  11
ATOM     11  O   UNL     1       7.421   5.220  20.254  0.00  0.00    +0.000 OA
ATOM     12  H   UNL     1       6.771   5.379  20.958  0.00  0.00    +0.000 HD
ENDBRANCH   4  11
BRANCH   1  13
ATOM     13  C   UNL     1       4.989   5.493  15.051  0.00  0.00    +0.000 C 
BRANCH  13  14
ATOM     14  O   UNL     1       5.270   4.177  14.577  0.00  0.00    +0.000 OA
ATOM     15  H   UNL     1       4.499   3.629  14.799  0.00  0.00    +0.000 HD
ENDBRANCH  13  14
ENDBRANCH   1  13
BRANCH   6  16
ATOM     16  C   UNL     1       3.830   6.910  17.440  0.00  0.00    +0.000 C 
BRANCH  16  17
ATOM     17  C   UNL     1       2.580   6.601  18.263  0.00  0.00    +0.000 C 
BRANCH  17  18
ATOM     18  C   UNL     1       2.351   7.589  19.408  0.00  0.00    +0.000 C 
BRANCH  18  19
ATOM     19  C   UNL     1       1.735   6.899  20.634  0.00  0.00    +0.000 C 
BRANCH  19  20
ATOM     20  C   UNL     1       1.471   5.414  20.386  0.00  0.00    +0.000 C 
BRANCH  20  21
ATOM     21  C   UNL     1       2.199   4.502  21.365  0.00  0.00    +0.000 C 
BRANCH  21  22
ATOM     22  C   UNL     1       1.682   3.072  21.190  0.00  0.00    +0.000 C 
BRANCH  22  23
ATOM     23  C   UNL     1       0.752   2.952  19.993  0.00  0.00    +0.000 C 
BRANCH  23  24
ATOM     24  C   UNL     1       1.416   2.249  18.813  0.00  0.00    +0.000 C 
ATOM     25  C   UNL     1       2.858   1.825  19.062  0.00  0.00    +0.000 C 
ATOM     26  C   UNL     1       3.463   1.939  17.685  0.00  0.00    +0.000 C 
ATOM     27  C   UNL     1       2.767   3.171  17.152  0.00  0.00    +0.000 C 
ATOM     28  O   UNL     1       1.440   3.152  17.691  0.00  0.00    +0.000 OA
ENDBRANCH  23  24
ENDBRANCH  22  23
ENDBRANCH  21  22
ENDBRANCH  20  21
ENDBRANCH  19  20
ENDBRANCH  18  19
ENDBRANCH  17  18
ENDBRANCH  16  17
ENDBRANCH   6  16
TORSDOF 14
ENDMDL
MODEL 2
REMARK VINA RESULT:      -6.2      1.980      4.535
REMARK  Name = 
REMARK  14 active torsions:
REMARK  status: ('A' for Active; 'I' for Inactive)
REMARK    1  A    between atoms: O_1  and  C_2
REMARK    2  A    between atoms: C_2  and  C_3
REMARK    3  A    between atoms: C_4  and  O_5
REMARK    4  A    between atoms: C_6  and  O_7
REMARK    5  A    between atoms: C_8  and  O_9
REMARK    6  A    between atoms: N_11  and  C_12
REMARK    7  A    between atoms: C_12  and  C_13
REMARK    8  A    between atoms: C_13  and  C_14
REMARK    9  A    between atoms: C_14  and  C_15
REMARK   10  A    between atoms: C_15  and  C_16
REMARK   11  A    between atoms: C_16  and  C_17
REMARK   12  A    between atoms: C_17  and  C_18
REMARK   13  A    between atoms: C_18  and  C_19
REMARK   14  A    between atoms: C_19  and  C_20
REMARK                            x       y       z     vdW  Elec       q    Type
REMARK                         _______ _______ _______ _____ _____    ______ ____
ROOT
ATOM      1  C   UNL     1       5.857   4.976  17.263  0.00  0.00    +0.000 C 
ATOM      2  C   UNL     1       6.587   5.762  16.140  0.00  0.00    +0.000 C 
ATOM      3  C   UNL     1       7.076   4.829  15.018  0.00  0.00    +0.000 C 
ATOM      4  C   UNL     1       5.925   3.978  14.491  0.00  0.00    +0.000 C 
ATOM      5  C   UNL     1       5.287   3.212  15.650  0.00  0.00    +0.000 C 
ATOM      6  N   UNL     1       4.782   4.094  16.725  0.00  0.00    +0.000 NA
ENDROOT
BRANCH   2   7
ATOM      7  O   UNL     1       7.713   6.460  16.711  0.00  0.00    +0.000 OA
ATOM      8  H   UNL     1       7.987   5.990  17.518  0.00  0.00    +0.000 HD
ENDBRANCH   2   7
BRANCH   3   9
ATOM      9  O   UNL     1       7.687   5.591  13.970  0.00  0.00    +0.000 OA
ATOM     10  H   UNL     1       7.453   5.160  13.124  0.00  0.00    +0.000 HD
ENDBRANCH   3   9
BRANCH   4  11
ATOM     11  O   UNL     1       6.372   3.051  13.494  0.00  0.00    +0.000 OA
ATOM     12  H   UNL     1       7.344   3.064  13.475  0.00  0.00    +0.000 HD
ENDBRANCH   4  11
BRANCH   1  13
ATOM     13  C   UNL     1       5.367   6.007  18.322  0.00  0.00    +0.000 C 
BRANCH  13  14
ATOM     14  O   UNL     1       4.753   7.139  17.707  0.00  0.00    +0.000 OA
ATOM     15  H   UNL     1       4.122   6.794  17.053  0.00  0.00    +0.000 HD
ENDBRANCH  13  14
ENDBRANCH   1  13
BRANCH   6  16
ATOM     16  C   UNL     1       4.119   3.320  17.797  0.00  0.00    +0.000 C 
BRANCH  16  17
ATOM     17  C   UNL     1       2.696   2.903  17.427  0.00  0.00    +0.000 C 
BRANCH  17  18
ATOM     18  C   UNL     1       1.953   2.208  18.569  0.00  0.00    +0.000 C 
BRANCH  18  19
ATOM     19  C   UNL     1       0.906   3.132  19.207  0.00  0.00    +0.000 C 
BRANCH  19  20
ATOM     20  C   UNL     1       1.186   3.381  20.690  0.00  0.00    +0.000 C 
BRANCH  20  21
ATOM     21  C   UNL     1       2.178   4.511  20.932  0.00  0.00    +0.000 C 
BRANCH  21  22
ATOM     22  C   UNL     1       1.789   5.709  20.061  0.00  0.00    +0.000 C 
BRANCH  22  23
ATOM     23  C   UNL     1       1.451   6.930  20.902  0.00  0.00    +0.000 C 
BRANCH  23  24
ATOM     24  C   UNL     1       1.875   8.231  20.229  0.00  0.00    +0.000 C 
ATOM     25  C   UNL     1       0.755   9.252  20.069  0.00  0.00    +0.000 C 
ATOM     26  C   UNL     1       1.151   9.960  18.798  0.00  0.00    +0.000 C 
ATOM     27  C   UNL     1       1.707   8.818  17.978  0.00  0.00    +0.000 C 
ATOM     28  O   UNL     1       2.350   7.931  18.902  0.00  0.00    +0.000 OA
ENDBRANCH  23  24
ENDBRANCH  22  23
ENDBRANCH  21  22
ENDBRANCH  20  21
ENDBRANCH  19  20
ENDBRANCH  18  19
ENDBRANCH  17  18
ENDBRANCH  16  17
ENDBRANCH   6  16
TORSDOF 14
ENDMDL
MODEL 3
REMARK VINA RESULT:      -6.1      4.099      6.732
REMARK  Name = 
REMARK  14 active torsions:
REMARK  status: ('A' for Active; 'I' for Inactive)
REMARK    1  A    between atoms: O_1  and  C_2
REMARK    2  A    between atoms: C_2  and  C_3
REMARK    3  A    between atoms: C_4  and  O_5
REMARK    4  A    between atoms: C_6  and  O_7
REMARK    5  A    between atoms: C_8  and  O_9
REMARK    6  A    between atoms: N_11  and  C_12
REMARK    7  A    between atoms: C_12  and  C_13
REMARK    8  A    between atoms: C_13  and  C_14
REMARK    9  A    between atoms: C_14  and  C_15
REMARK   10  A    between atoms: C_15  and  C_16
REMARK   11  A    between atoms: C_16  and  C_17
REMARK   12  A    between atoms: C_17  and  C_18
REMARK   13  A    between atoms: C_18  and  C_19
REMARK   14  A    between atoms: C_19  and  C_20
REMARK                            x       y       z     vdW  Elec       q    Type
REMARK                         _______ _______ _______ _____ _____    ______ ____
ROOT
ATOM      1  C   UNL     1       0.793   9.453  21.224  0.00  0.00    +0.000 C 
ATOM      2  C   UNL     1       0.197  10.637  20.416  0.00  0.00    +0.000 C 
ATOM      3  C   UNL     1       1.049  10.967  19.176  0.00  0.00    +0.000 C 
ATOM      4  C   UNL     1       1.259   9.717  18.326  0.00  0.00    +0.000 C 
ATOM      5  C   UNL     1       1.880   8.616  19.185  0.00  0.00    +0.000 C 
ATOM      6  N   UNL     1       1.061   8.264  20.365  0.00  0.00    +0.000 NA
ENDROOT
BRANCH   2   7
ATOM      7  O   UNL     1       0.120  11.797  21.269  0.00  0.00    +0.000 OA
ATOM      8  H   UNL     1       0.556  12.540  20.815  0.00  0.00    +0.000 HD
ENDBRANCH   2   7
BRANCH   3   9
ATOM      9  O   UNL     1       0.438  12.019  18.420  0.00  0.00    +0.000 OA
ATOM     10  H   UNL     1      -0.135  12.521  19.033  0.00  0.00    +0.000 HD
ENDBRANCH   3   9
BRANCH   4  11
ATOM     11  O   UNL     1       2.110   9.986  17.204  0.00  0.00    +0.000 OA
ATOM     12  H   UNL     1       3.005   9.672  17.414  0.00  0.00    +0.000 HD
ENDBRANCH   4  11
BRANCH   1  13
ATOM     13  C   UNL     1      -0.158   9.173  22.425  0.00  0.00    +0.000 C 
BRANCH  13  14
ATOM     14  O   UNL     1       0.283   9.836  23.609  0.00  0.00    +0.000 OA
ATOM     15  H   UNL     1       1.130  10.260  23.393  0.00  0.00    +0.000 HD
ENDBRANCH  13  14
ENDBRANCH   1  13
BRANCH   6  16
ATOM     16  C   UNL     1       1.665   7.155  21.136  0.00  0.00    +0.000 C 
BRANCH  16  17
ATOM     17  C   UNL     1       1.612   5.822  20.389  0.00  0.00    +0.000 C 
BRANCH  17  18
ATOM     18  C   UNL     1       2.103   4.640  21.225  0.00  0.00    +0.000 C 
BRANCH  18  19
ATOM     19  C   UNL     1       1.317   3.359  20.908  0.00  0.00    +0.000 C 
BRANCH  19  20
ATOM     20  C   UNL     1       0.816   3.335  19.464  0.00  0.00    +0.000 C 
BRANCH  20  21
ATOM     21  C   UNL     1       1.428   2.215  18.634  0.00  0.00    +0.000 C 
BRANCH  21  22
ATOM     22  C   UNL     1       2.494   2.808  17.709  0.00  0.00    +0.000 C 
BRANCH  22  23
ATOM     23  C   UNL     1       3.878   2.755  18.338  0.00  0.00    +0.000 C 
BRANCH  23  24
ATOM     24  C   UNL     1       4.446   4.146  18.603  0.00  0.00    +0.000 C 
ATOM     25  C   UNL     1       4.031   5.201  17.586  0.00  0.00    +0.000 C 
ATOM     26  C   UNL     1       5.231   6.113  17.568  0.00  0.00    +0.000 C 
ATOM     27  C   UNL     1       6.364   5.121  17.706  0.00  0.00    +0.000 C 
ATOM     28  O   UNL     1       5.884   4.074  18.558  0.00  0.00    +0.000 OA
ENDBRANCH  23  24
ENDBRANCH  22  23
ENDBRANCH  21  22
ENDBRANCH  20  21
ENDBRANCH  19  20
ENDBRANCH  18  19
ENDBRANCH  17  18
ENDBRANCH  16  17
ENDBRANCH   6  16
TORSDOF 14
ENDMDL
MODEL 4
REMARK VINA RESULT:      -6.0      5.076      8.764
REMARK  Name = 
REMARK  14 active torsions:
REMARK  status: ('A' for Active; 'I' for Inactive)
REMARK    1  A    between atoms: O_1  and  C_2
REMARK    2  A    between atoms: C_2  and  C_3
REMARK    3  A    between atoms: C_4  and  O_5
REMARK    4  A    between atoms: C_6  and  O_7
REMARK    5  A    between atoms: C_8  and  O_9
REMARK    6  A    between atoms: N_11  and  C_12
REMARK    7  A    between atoms: C_12  and  C_13
REMARK    8  A    between atoms: C_13  and  C_14
REMARK    9  A    between atoms: C_14  and  C_15
REMARK   10  A    between atoms: C_15  and  C_16
REMARK   11  A    between atoms: C_16  and  C_17
REMARK   12  A    between atoms: C_17  and  C_18
REMARK   13  A    between atoms: C_18  and  C_19
REMARK   14  A    between atoms: C_19  and  C_20
REMARK                            x       y       z     vdW  Elec       q    Type
REMARK                         _______ _______ _______ _____ _____    ______ ____
ROOT
ATOM      1  C   UNL     1       3.352   4.982  18.120  0.00  0.00    +0.000 C 
ATOM      2  C   UNL     1       2.168   3.998  18.322  0.00  0.00    +0.000 C 
ATOM      3  C   UNL     1       2.587   2.541  18.055  0.00  0.00    +0.000 C 
ATOM      4  C   UNL     1       3.809   2.175  18.891  0.00  0.00    +0.000 C 
ATOM      5  C   UNL     1       4.936   3.167  18.607  0.00  0.00    +0.000 C 
ATOM      6  N   UNL     1       4.563   4.570  18.887  0.00  0.00    +0.000 NA
ENDROOT
BRANCH   2   7
ATOM      7  O   UNL     1       1.096   4.363  17.428  0.00  0.00    +0.000 OA
ATOM      8  H   UNL     1       1.445   4.367  16.519  0.00  0.00    +0.000 HD
ENDBRANCH   2   7
BRANCH   3   9
ATOM      9  O   UNL     1       1.491   1.655  18.312  0.00  0.00    +0.000 OA
ATOM     10  H   UNL     1       1.785   1.021  18.995  0.00  0.00    +0.000 HD
ENDBRANCH   3   9
BRANCH   4  11
ATOM     11  O   UNL     1       4.260   0.844  18.605  0.00  0.00    +0.000 OA
ATOM     12  H   UNL     1       3.851   0.553  17.773  0.00  0.00    +0.000 HD
ENDBRANCH   4  11
BRANCH   1  13
ATOM     13  C   UNL     1       2.841   6.414  18.454  0.00  0.00    +0.000 C 
BRANCH  13  14
ATOM     14  O   UNL     1       2.123   6.441  19.686  0.00  0.00    +0.000 OA
ATOM     15  H   UNL     1       2.470   5.713  20.228  0.00  0.00    +0.000 HD
ENDBRANCH  13  14
ENDBRANCH   1  13
BRANCH   6  16
ATOM     16  C   UNL     1       5.698   5.491  18.657  0.00  0.00    +0.000 C 
BRANCH  16  17
ATOM     17  C   UNL     1       6.326   5.317  17.275  0.00  0.00    +0.000 C 
BRANCH  17  18
ATOM     18  C   UNL     1       7.300   6.438  16.908  0.00  0.00    +0.000 C 
BRANCH  18  19
ATOM     19  C   UNL     1       7.727   7.242  18.144  0.00  0.00    +0.000 C 
BRANCH  19  20
ATOM     20  C   UNL     1       8.075   8.690  17.797  0.00  0.00    +0.000 C 
BRANCH  20  21
ATOM     21  C   UNL     1       8.933   9.372  18.854  0.00  0.00    +0.000 C 
BRANCH  21  22
ATOM     22  C   UNL     1       9.006  10.870  18.544  0.00  0.00    +0.000 C 
BRANCH  22  23
ATOM     23  C   UNL     1      10.293  11.232  17.819  0.00  0.00    +0.000 C 
BRANCH  23  24
ATOM     24  C   UNL     1      10.543  12.737  17.801  0.00  0.00    +0.000 C 
ATOM     25  C   UNL     1      11.792  13.159  17.037  0.00  0.00    +0.000 C 
ATOM     26  C   UNL     1      12.224  14.389  17.794  0.00  0.00    +0.000 C 
ATOM     27  C   UNL     1      11.900  13.996  19.217  0.00  0.00    +0.000 C 
ATOM     28  O   UNL     1      10.716  13.193  19.156  0.00  0.00    +0.000 OA
ENDBRANCH  23  24
ENDBRANCH  22  23
ENDBRANCH  21  22
ENDBRANCH  20  21
ENDBRANCH  19  20
ENDBRANCH  18  19
ENDBRANCH  17  18
ENDBRANCH  16  17
ENDBRANCH   6  16
TORSDOF 14
ENDMDL
MODEL 5
REMARK VINA RESULT:      -6.0      4.260      7.300
REMARK  Name = 
REMARK  14 active torsions:
REMARK  status: ('A' for Active; 'I' for Inactive)
REMARK    1  A    between atoms: O_1  and  C_2
REMARK    2  A    between atoms: C_2  and  C_3
REMARK    3  A    between atoms: C_4  and  O_5
REMARK    4  A    between atoms: C_6  and  O_7
REMARK    5  A    between atoms: C_8  and  O_9
REMARK    6  A    between atoms: N_11  and  C_12
REMARK    7  A    between atoms: C_12  and  C_13
REMARK    8  A    between atoms: C_13  and  C_14
REMARK    9  A    between atoms: C_14  and  C_15
REMARK   10  A    between atoms: C_15  and  C_16
REMARK   11  A    between atoms: C_16  and  C_17
REMARK   12  A    between atoms: C_17  and  C_18
REMARK   13  A    between atoms: C_18  and  C_19
REMARK   14  A    between atoms: C_19  and  C_20
REMARK                            x       y       z     vdW  Elec       q    Type
REMARK                         _______ _______ _______ _____ _____    ______ ____
ROOT
ATOM      1  C   UNL     1       0.819   9.552  21.406  0.00  0.00    +0.000 C 
ATOM      2  C   UNL     1       0.239  10.826  20.733  0.00  0.00    +0.000 C 
ATOM      3  C   UNL     1       1.052  11.234  19.491  0.00  0.00    +0.000 C 
ATOM      4  C   UNL     1       1.176  10.060  18.524  0.00  0.00    +0.000 C 
ATOM      5  C   UNL     1       1.787   8.864  19.254  0.00  0.00    +0.000 C 
ATOM      6  N   UNL     1       1.003   8.437  20.433  0.00  0.00    +0.000 NA
ENDROOT
BRANCH   2   7
ATOM      7  O   UNL     1       0.245  11.906  21.689  0.00  0.00    +0.000 OA
ATOM      8  H   UNL     1       1.170  12.118  21.905  0.00  0.00    +0.000 HD
ENDBRANCH   2   7
BRANCH   3   9
ATOM      9  O   UNL     1       0.453  12.372  18.859  0.00  0.00    +0.000 OA
ATOM     10  H   UNL     1       0.428  12.190  17.899  0.00  0.00    +0.000 HD
ENDBRANCH   3   9
BRANCH   4  11
ATOM     11  O   UNL     1       1.989  10.397  17.393  0.00  0.00    +0.000 OA
ATOM     12  H   UNL     1       1.560  10.053  16.592  0.00  0.00    +0.000 HD
ENDBRANCH   4  11
BRANCH   1  13
ATOM     13  C   UNL     1      -0.092   9.199  22.618  0.00  0.00    +0.000 C 
BRANCH  13  14
ATOM     14  O   UNL     1       0.312   9.894  23.797  0.00  0.00    +0.000 OA
ATOM     15  H   UNL     1       0.088   9.322  24.550  0.00  0.00    +0.000 HD
ENDBRANCH  13  14
ENDBRANCH   1  13
BRANCH   6  16
ATOM     16  C   UNL     1       1.593   7.241  21.074  0.00  0.00    +0.000 C 
BRANCH  16  17
ATOM     17  C   UNL     1       2.090   6.213  20.058  0.00  0.00    +0.000 C 
BRANCH  17  18
ATOM     18  C   UNL     1       1.427   4.843  20.211  0.00  0.00    +0.000 C 
BRANCH  18  19
ATOM     19  C   UNL     1       1.557   4.007  18.929  0.00  0.00    +0.000 C 
BRANCH  19  20
ATOM     20  C   UNL     1       2.368   4.728  17.852  0.00  0.00    +0.000 C 
BRANCH  20  21
ATOM     21  C   UNL     1       3.611   3.960  17.420  0.00  0.00    +0.000 C 
BRANCH  21  22
ATOM     22  C   UNL     1       4.539   4.908  16.656  0.00  0.00    +0.000 C 
BRANCH  22  23
ATOM     23  C   UNL     1       5.843   4.227  16.270  0.00  0.00    +0.000 C 
BRANCH  23  24
ATOM     24  C   UNL     1       7.060   4.926  16.868  0.00  0.00    +0.000 C 
ATOM     25  C   UNL     1       7.038   5.040  18.388  0.00  0.00    +0.000 C 
ATOM     26  C   UNL     1       7.781   6.331  18.619  0.00  0.00    +0.000 C 
ATOM     27  C   UNL     1       7.296   7.170  17.458  0.00  0.00    +0.000 C 
ATOM     28  O   UNL     1       7.118   6.272  16.356  0.00  0.00    +0.000 OA
ENDBRANCH  23  24
ENDBRANCH  22  23
ENDBRANCH  21  22
ENDBRANCH  20  21
ENDBRANCH  19  20
ENDBRANCH  18  19
ENDBRANCH  17  18
ENDBRANCH  16  17
ENDBRANCH   6  16
TORSDOF 14
ENDMDL
MODEL 6
REMARK VINA RESULT:      -6.0      4.430      6.876
REMARK  Name = 
REMARK  14 active torsions:
REMARK  status: ('A' for Active; 'I' for Inactive)
REMARK    1  A    between atoms: O_1  and  C_2
REMARK    2  A    between atoms: C_2  and  C_3
REMARK    3  A    between atoms: C_4  and  O_5
REMARK    4  A    between atoms: C_6  and  O_7
REMARK    5  A    between atoms: C_8  and  O_9
REMARK    6  A    between atoms: N_11  and  C_12
REMARK    7  A    between atoms: C_12  and  C_13
REMARK    8  A    between atoms: C_13  and  C_14
REMARK    9  A    between atoms: C_14  and  C_15
REMARK   10  A    between atoms: C_15  and  C_16
REMARK   11  A    between atoms: C_16  and  C_17
REMARK   12  A    between atoms: C_17  and  C_18
REMARK   13  A    between atoms: C_18  and  C_19
REMARK   14  A    between atoms: C_19  and  C_20
REMARK                            x       y       z     vdW  Elec       q    Type
REMARK                         _______ _______ _______ _____ _____    ______ ____
ROOT
ATOM      1  C   UNL     1       4.606   4.774  18.750  0.00  0.00    +0.000 C 
ATOM      2  C   UNL     1       4.485   3.229  18.658  0.00  0.00    +0.000 C 
ATOM      3  C   UNL     1       3.024   2.763  18.794  0.00  0.00    +0.000 C 
ATOM      4  C   UNL     1       2.137   3.486  17.786  0.00  0.00    +0.000 C 
ATOM      5  C   UNL     1       2.287   4.997  17.967  0.00  0.00    +0.000 C 
ATOM      6  N   UNL     1       3.680   5.468  17.810  0.00  0.00    +0.000 NA
ENDROOT
BRANCH   2   7
ATOM      7  O   UNL     1       5.280   2.632  19.704  0.00  0.00    +0.000 OA
ATOM      8  H   UNL     1       5.215   3.195  20.495  0.00  0.00    +0.000 HD
ENDBRANCH   2   7
BRANCH   3   9
ATOM      9  O   UNL     1       2.940   1.341  18.641  0.00  0.00    +0.000 OA
ATOM     10  H   UNL     1       3.540   1.093  17.910  0.00  0.00    +0.000 HD
ENDBRANCH   3   9
BRANCH   4  11
ATOM     11  O   UNL     1       0.760   3.120  17.943  0.00  0.00    +0.000 OA
ATOM     12  H   UNL     1       0.617   2.266  17.502  0.00  0.00    +0.000 HD
ENDBRANCH   4  11
BRANCH   1  13
ATOM     13  C   UNL     1       6.106   5.144  18.560  0.00  0.00    +0.000 C 
BRANCH  13  14
ATOM     14  O   UNL     1       6.801   5.178  19.805  0.00  0.00    +0.000 OA
ATOM     15  H   UNL     1       6.488   5.966  20.279  0.00  0.00    +0.000 HD
ENDBRANCH  13  14
ENDBRANCH   1  13
BRANCH   6  16
ATOM     16  C   UNL     1       3.774   6.939  17.932  0.00  0.00    +0.000 C 
BRANCH  16  17
ATOM     17  C   UNL     1       2.475   7.571  18.434  0.00  0.00    +0.000 C 
BRANCH  17  18
ATOM     18  C   UNL     1       2.192   8.942  17.817  0.00  0.00    +0.000 C 
BRANCH  18  19
ATOM     19  C   UNL     1       0.856   9.517  18.309  0.00  0.00    +0.000 C 
BRANCH  19  20
ATOM     20  C   UNL     1       0.978  10.987  18.713  0.00  0.00    +0.000 C 
BRANCH  20  21
ATOM     21  C   UNL     1      -0.055  11.413  19.748  0.00  0.00    +0.000 C 
BRANCH  21  22
ATOM     22  C   UNL     1      -0.946  12.501  19.143  0.00  0.00    +0.000 C 
BRANCH  22  23
ATOM     23  C   UNL     1      -2.422  12.202  19.354  0.00  0.00    +0.000 C 
BRANCH  23  24
ATOM     24  C   UNL     1      -2.955  11.185  18.349  0.00  0.00    +0.000 C 
ATOM     25  C   UNL     1      -2.326  11.278  16.964  0.00  0.00    +0.000 C 
ATOM     26  C   UNL     1      -3.460  10.841  16.072  0.00  0.00    +0.000 C 
ATOM     27  C   UNL     1      -4.649  11.460  16.771  0.00  0.00    +0.000 C 
ATOM     28  O   UNL     1      -4.368  11.405  18.175  0.00  0.00    +0.000 OA
ENDBRANCH  23  24
ENDBRANCH  22  23
ENDBRANCH  21  22
ENDBRANCH  20  21
ENDBRANCH  19  20
ENDBRANCH  18  19
ENDBRANCH  17  18
ENDBRANCH  16  17
ENDBRANCH   6  16
TORSDOF 14
ENDMDL
MODEL 7
REMARK VINA RESULT:      -6.0      4.525      8.526
REMARK  Name = 
REMARK  14 active torsions:
REMARK  status: ('A' for Active; 'I' for Inactive)
REMARK    1  A    between atoms: O_1  and  C_2
REMARK    2  A    between atoms: C_2  and  C_3
REMARK    3  A    between atoms: C_4  and  O_5
REMARK    4  A    between atoms: C_6  and  O_7
REMARK    5  A    between atoms: C_8  and  O_9
REMARK    6  A    between atoms: N_11  and  C_12
REMARK    7  A    between atoms: C_12  and  C_13
REMARK    8  A    between atoms: C_13  and  C_14
REMARK    9  A    between atoms: C_14  and  C_15
REMARK   10  A    between atoms: C_15  and  C_16
REMARK   11  A    between atoms: C_16  and  C_17
REMARK   12  A    between atoms: C_17  and  C_18
REMARK   13  A    between atoms: C_18  and  C_19
REMARK   14  A    between atoms: C_19  and  C_20
REMARK                            x       y       z     vdW  Elec       q    Type
REMARK                         _______ _______ _______ _____ _____    ______ ____
ROOT
ATOM      1  C   UNL     1       3.799   3.042  19.873  0.00  0.00    +0.000 C 
ATOM      2  C   UNL     1       2.371   2.450  20.024  0.00  0.00    +0.000 C 
ATOM      3  C   UNL     1       1.320   3.301  19.288  0.00  0.00    +0.000 C 
ATOM      4  C   UNL     1       1.725   3.504  17.831  0.00  0.00    +0.000 C 
ATOM      5  C   UNL     1       3.121   4.122  17.772  0.00  0.00    +0.000 C 
ATOM      6  N   UNL     1       4.151   3.304  18.448  0.00  0.00    +0.000 NA
ENDROOT
BRANCH   2   7
ATOM      7  O   UNL     1       2.037   2.380  21.426  0.00  0.00    +0.000 OA
ATOM      8  H   UNL     1       1.993   1.442  21.683  0.00  0.00    +0.000 HD
ENDBRANCH   2   7
BRANCH   3   9
ATOM      9  O   UNL     1       0.028   2.693  19.393  0.00  0.00    +0.000 OA
ATOM     10  H   UNL     1       0.168   1.735  19.531  0.00  0.00    +0.000 HD
ENDBRANCH   3   9
BRANCH   4  11
ATOM     11  O   UNL     1       0.796   4.354  17.144  0.00  0.00    +0.000 OA
ATOM     12  H   UNL     1       0.141   4.675  17.786  0.00  0.00    +0.000 HD
ENDBRANCH   4  11
BRANCH   1  13
ATOM     13  C   UNL     1       4.786   2.092  20.612  0.00  0.00    +0.000 C 
BRANCH  13  14
ATOM     14  O   UNL     1       5.140   0.971  19.804  0.00  0.00    +0.000 OA
ATOM     15  H   UNL     1       6.111   0.950  19.763  0.00  0.00    +0.000 HD
ENDBRANCH  13  14
ENDBRANCH   1  13
BRANCH   6  16
ATOM     16  C   UNL     1       5.497   3.905  18.317  0.00  0.00    +0.000 C 
BRANCH  16  17
ATOM     17  C   UNL     1       5.701   5.099  19.248  0.00  0.00    +0.000 C 
BRANCH  17  18
ATOM     18  C   UNL     1       7.112   5.684  19.182  0.00  0.00    +0.000 C 
BRANCH  18  19
ATOM     19  C   UNL     1       7.548   5.943  17.732  0.00  0.00    +0.000 C 
BRANCH  19  20
ATOM     20  C   UNL     1       7.588   7.435  17.402  0.00  0.00    +0.000 C 
BRANCH  20  21
ATOM     21  C   UNL     1       8.383   8.253  18.411  0.00  0.00    +0.000 C 
BRANCH  21  22
ATOM     22  C   UNL     1       8.315   9.731  18.017  0.00  0.00    +0.000 C 
BRANCH  22  23
ATOM     23  C   UNL     1       9.312  10.569  18.802  0.00  0.00    +0.000 C 
BRANCH  23  24
ATOM     24  C   UNL     1      10.088  11.532  17.908  0.00  0.00    +0.000 C 
ATOM     25  C   UNL     1      11.585  11.583  18.187  0.00  0.00    +0.000 C 
ATOM     26  C   UNL     1      11.922  13.011  17.842  0.00  0.00    +0.000 C 
ATOM     27  C   UNL     1      10.697  13.740  18.345  0.00  0.00    +0.000 C 
ATOM     28  O   UNL     1       9.585  12.865  18.120  0.00  0.00    +0.000 OA
ENDBRANCH  23  24
ENDBRANCH  22  23
ENDBRANCH  21  22
ENDBRANCH  20  21
ENDBRANCH  19  20
ENDBRANCH  18  19
ENDBRANCH  17  18
ENDBRANCH  16  17
ENDBRANCH   6  16
TORSDOF 14
ENDMDL
MODEL 8
REMARK VINA RESULT:      -6.0      4.947      7.562
REMARK  Name = 
REMARK  14 active torsions:
REMARK  status: ('A' for Active; 'I' for Inactive)
REMARK    1  A    between atoms: O_1  and  C_2
REMARK    2  A    between atoms: C_2  and  C_3
REMARK    3  A    between atoms: C_4  and  O_5
REMARK    4  A    between atoms: C_6  and  O_7
REMARK    5  A    between atoms: C_8  and  O_9
REMARK    6  A    between atoms: N_11  and  C_12
REMARK    7  A    between atoms: C_12  and  C_13
REMARK    8  A    between atoms: C_13  and  C_14
REMARK    9  A    between atoms: C_14  and  C_15
REMARK   10  A    between atoms: C_15  and  C_16
REMARK   11  A    between atoms: C_16  and  C_17
REMARK   12  A    between atoms: C_17  and  C_18
REMARK   13  A    between atoms: C_18  and  C_19
REMARK   14  A    between atoms: C_19  and  C_20
REMARK                            x       y       z     vdW  Elec       q    Type
REMARK                         _______ _______ _______ _____ _____    ______ ____
ROOT
ATOM      1  C   UNL     1       0.462  10.524  21.023  0.00  0.00    +0.000 C 
ATOM      2  C   UNL     1      -0.659  11.564  21.288  0.00  0.00    +0.000 C 
ATOM      3  C   UNL     1      -0.830  12.533  20.104  0.00  0.00    +0.000 C 
ATOM      4  C   UNL     1      -1.037  11.759  18.806  0.00  0.00    +0.000 C 
ATOM      5  C   UNL     1       0.125  10.787  18.602  0.00  0.00    +0.000 C 
ATOM      6  N   UNL     1       0.285   9.827  19.716  0.00  0.00    +0.000 NA
ENDROOT
BRANCH   2   7
ATOM      7  O   UNL     1      -0.335  12.311  22.478  0.00  0.00    +0.000 OA
ATOM      8  H   UNL     1      -1.160  12.680  22.842  0.00  0.00    +0.000 HD
ENDBRANCH   2   7
BRANCH   3   9
ATOM      9  O   UNL     1      -1.913  13.437  20.354  0.00  0.00    +0.000 OA
ATOM     10  H   UNL     1      -1.603  14.083  21.018  0.00  0.00    +0.000 HD
ENDBRANCH   3   9
BRANCH   4  11
ATOM     11  O   UNL     1      -1.127  12.640  17.679  0.00  0.00    +0.000 OA
ATOM     12  H   UNL     1      -0.356  13.231  17.689  0.00  0.00    +0.000 HD
ENDBRANCH   4  11
BRANCH   1  13
ATOM     13  C   UNL     1       0.526   9.571  22.252  0.00  0.00    +0.000 C 
BRANCH  13  14
ATOM     14  O   UNL     1       1.863   9.411  22.723  0.00  0.00    +0.000 OA
ATOM     15  H   UNL     1       1.841   8.709  23.395  0.00  0.00    +0.000 HD
ENDBRANCH  13  14
ENDBRANCH   1  13
BRANCH   6  16
ATOM     16  C   UNL     1       1.380   8.867  19.453  0.00  0.00    +0.000 C 
BRANCH  16  17
ATOM     17  C   UNL     1       1.815   8.857  17.988  0.00  0.00    +0.000 C 
BRANCH  17  18
ATOM     18  C   UNL     1       2.845   7.773  17.670  0.00  0.00    +0.000 C 
BRANCH  18  19
ATOM     19  C   UNL     1       2.662   6.540  18.567  0.00  0.00    +0.000 C 
BRANCH  19  20
ATOM     20  C   UNL     1       3.877   5.612  18.524  0.00  0.00    +0.000 C 
BRANCH  20  21
ATOM     21  C   UNL     1       3.976   4.811  17.232  0.00  0.00    +0.000 C 
BRANCH  21  22
ATOM     22  C   UNL     1       3.872   3.320  17.564  0.00  0.00    +0.000 C 
BRANCH  22  23
ATOM     23  C   UNL     1       2.432   2.833  17.521  0.00  0.00    +0.000 C 
BRANCH  23  24
ATOM     24  C   UNL     1       1.940   2.361  18.885  0.00  0.00    +0.000 C 
ATOM     25  C   UNL     1       0.939   3.297  19.552  0.00  0.00    +0.000 C 
ATOM     26  C   UNL     1       1.241   3.091  21.015  0.00  0.00    +0.000 C 
ATOM     27  C   UNL     1       2.745   2.943  20.995  0.00  0.00    +0.000 C 
ATOM     28  O   UNL     1       3.069   2.264  19.775  0.00  0.00    +0.000 OA
ENDBRANCH  23  24
ENDBRANCH  22  23
ENDBRANCH  21  22
ENDBRANCH  20  21
ENDBRANCH  19  20
ENDBRANCH  18  19
ENDBRANCH  17  18
ENDBRANCH  16  17
ENDBRANCH   6  16
TORSDOF 14
ENDMDL
MODEL 9
REMARK VINA RESULT:      -5.9      3.987      6.708
REMARK  Name = 
REMARK  14 active torsions:
REMARK  status: ('A' for Active; 'I' for Inactive)
REMARK    1  A    between atoms: O_1  and  C_2
REMARK    2  A    between atoms: C_2  and  C_3
REMARK    3  A    between atoms: C_4  and  O_5
REMARK    4  A    between atoms: C_6  and  O_7
REMARK    5  A    between atoms: C_8  and  O_9
REMARK    6  A    between atoms: N_11  and  C_12
REMARK    7  A    between atoms: C_12  and  C_13
REMARK    8  A    between atoms: C_13  and  C_14
REMARK    9  A    between atoms: C_14  and  C_15
REMARK   10  A    between atoms: C_15  and  C_16
REMARK   11  A    between atoms: C_16  and  C_17
REMARK   12  A    between atoms: C_17  and  C_18
REMARK   13  A    between atoms: C_18  and  C_19
REMARK   14  A    between atoms: C_19  and  C_20
REMARK                            x       y       z     vdW  Elec       q    Type
REMARK                         _______ _______ _______ _____ _____    ______ ____
ROOT
ATOM      1  C   UNL     1       2.113   3.788  19.584  0.00  0.00    +0.000 C 
ATOM      2  C   UNL     1       2.625   2.336  19.379  0.00  0.00    +0.000 C 
ATOM      3  C   UNL     1       3.465   2.204  18.096  0.00  0.00    +0.000 C 
ATOM      4  C   UNL     1       4.590   3.234  18.086  0.00  0.00    +0.000 C 
ATOM      5  C   UNL     1       4.000   4.634  18.256  0.00  0.00    +0.000 C 
ATOM      6  N   UNL     1       3.215   4.789  19.499  0.00  0.00    +0.000 NA
ENDROOT
BRANCH   2   7
ATOM      7  O   UNL     1       1.493   1.445  19.307  0.00  0.00    +0.000 OA
ATOM      8  H   UNL     1       1.355   1.055  20.189  0.00  0.00    +0.000 HD
ENDBRANCH   2   7
BRANCH   3   9
ATOM      9  O   UNL     1       3.974   0.871  17.971  0.00  0.00    +0.000 OA
ATOM     10  H   UNL     1       3.476   0.311  18.599  0.00  0.00    +0.000 HD
ENDBRANCH   3   9
BRANCH   4  11
ATOM     11  O   UNL     1       5.342   3.176  16.867  0.00  0.00    +0.000 OA
ATOM     12  H   UNL     1       4.751   2.883  16.154  0.00  0.00    +0.000 HD
ENDBRANCH   4  11
BRANCH   1  13
ATOM     13  C   UNL     1       1.317   3.825  20.921  0.00  0.00    +0.000 C 
BRANCH  13  14
ATOM     14  O   UNL     1       1.920   2.999  21.915  0.00  0.00    +0.000 OA
ATOM     15  H   UNL     1       2.667   2.548  21.488  0.00  0.00    +0.000 HD
ENDBRANCH  13  14
ENDBRANCH   1  13
BRANCH   6  16
ATOM     16  C   UNL     1       2.712   6.172  19.656  0.00  0.00    +0.000 C 
BRANCH  16  17
ATOM     17  C   UNL     1       2.189   6.760  18.345  0.00  0.00    +0.000 C 
BRANCH  17  18
ATOM     18  C   UNL     1       2.724   8.163  18.055  0.00  0.00    +0.000 C 
BRANCH  18  19
ATOM     19  C   UNL     1       1.603   9.116  17.616  0.00  0.00    +0.000 C 
BRANCH  19  20
ATOM     20  C   UNL     1       1.397  10.259  18.610  0.00  0.00    +0.000 C 
BRANCH  20  21
ATOM     21  C   UNL     1       0.606   9.847  19.845  0.00  0.00    +0.000 C 
BRANCH  21  22
ATOM     22  C   UNL     1      -0.791  10.469  19.770  0.00  0.00    +0.000 C 
BRANCH  22  23
ATOM     23  C   UNL     1      -0.817  11.684  18.855  0.00  0.00    +0.000 C 
BRANCH  23  24
ATOM     24  C   UNL     1      -1.960  11.624  17.847  0.00  0.00    +0.000 C 
ATOM     25  C   UNL     1      -3.351  11.632  18.469  0.00  0.00    +0.000 C 
ATOM     26  C   UNL     1      -4.141  10.807  17.486  0.00  0.00    +0.000 C 
ATOM     27  C   UNL     1      -3.130   9.753  17.094  0.00  0.00    +0.000 C 
ATOM     28  O   UNL     1      -1.851  10.398  17.097  0.00  0.00    +0.000 OA
ENDBRANCH  23  24
ENDBRANCH  22  23
ENDBRANCH  21  22
ENDBRANCH  20  21
ENDBRANCH  19  20
ENDBRANCH  18  19
ENDBRANCH  17  18
ENDBRANCH  16  17
ENDBRANCH   6  16
TORSDOF 14
ENDMDL
