MODEL 1
REMARK VINA RESULT:      -8.2      0.000      0.000
REMARK  Name = 
REMARK  10 active torsions:
REMARK  status: ('A' for Active; 'I' for Inactive)
REMARK    1  A    between atoms: C_1  and  O_2
REMARK    2  A    between atoms: O_2  and  C_3
REMARK    3  A    between atoms: C_5  and  N_6
REMARK    4  A    between atoms: N_6  and  C_7
REMARK    5  A    between atoms: N_10  and  C_11
REMARK    6  A    between atoms: N_18  and  C_19
REMARK    7  A    between atoms: C_26  and  O_27
REMARK    8  A    between atoms: O_27  and  C_28
REMARK    9  A    between atoms: C_29  and  O_30
REMARK   10  A    between atoms: O_30  and  C_31
REMARK                            x       y       z     vdW  Elec       q    Type
REMARK                         _______ _______ _______ _____ _____    ______ ____
ROOT
ATOM      1  C   UNL     1       0.602  10.095  19.619  0.00  0.00    +0.000 A 
ATOM      2  N   UNL     1       1.368   9.441  18.718  0.00  0.00    +0.000 NA
ATOM      3  C   UNL     1       2.001   8.333  19.131  0.00  0.00    +0.000 A 
ATOM      4  N   UNL     1       2.773   7.688  18.177  0.00  0.00    +0.000 N 
ATOM      5  N   UNL     1       1.901   7.865  20.402  0.00  0.00    +0.000 NA
ATOM      6  N   UNL     1       1.132   8.515  21.317  0.00  0.00    +0.000 NA
ATOM      7  C   UNL     1       0.496   9.623  20.922  0.00  0.00    +0.000 A 
ATOM      8 CL   UNL     1      -0.411  10.413  22.148  0.00  0.00    +0.000 Cl
ATOM      9  H   UNL     1       2.530   8.125  17.289  0.00  0.00    +0.000 HD
ENDROOT
BRANCH   4  10
ATOM     10  C   UNL     1       2.912   6.294  18.015  0.00  0.00    +0.000 A 
ATOM     11  C   UNL     1       4.151   5.670  17.847  0.00  0.00    +0.000 A 
ATOM     12  C   UNL     1       4.288   4.277  17.926  0.00  0.00    +0.000 A 
ATOM     13  C   UNL     1       3.141   3.525  18.229  0.00  0.00    +0.000 A 
ATOM     14  C   UNL     1       1.880   4.120  18.318  0.00  0.00    +0.000 A 
ATOM     15  C   UNL     1       0.934   3.093  18.564  0.00  0.00    +0.000 A 
ATOM     16  C   UNL     1       1.648   1.956  18.850  0.00  0.00    +0.000 A 
ATOM     17  N   UNL     1       2.955   2.188  18.499  0.00  0.00    +0.000 N 
ATOM     18  C   UNL     1       3.945   1.137  18.448  0.00  0.00    +0.000 C 
ATOM     19  C   UNL     1       1.767   5.513  18.198  0.00  0.00    +0.000 A 
ENDBRANCH   4  10
BRANCH   1  20
ATOM     20  N   UNL     1      -0.045  11.277  19.206  0.00  0.00    +0.000 N 
ATOM     21  H   UNL     1       0.416  12.117  19.541  0.00  0.00    +0.000 HD
BRANCH  20  24
ATOM     22  C   UNL     1      -3.210  10.748  17.343  0.00  0.00    +0.000 A 
ATOM     23  C   UNL     1      -1.846  10.738  17.685  0.00  0.00    +0.000 A 
ATOM     24  C   UNL     1      -1.375  11.420  18.798  0.00  0.00    +0.000 A 
ATOM     25  C   UNL     1      -2.289  12.178  19.534  0.00  0.00    +0.000 A 
ATOM     26  C   UNL     1      -3.642  12.266  19.183  0.00  0.00    +0.000 A 
ATOM     27  C   UNL     1      -4.124  11.541  18.075  0.00  0.00    +0.000 A 
BRANCH  22  29
ATOM     28  C   UNL     1      -3.149  10.422  14.993  0.00  0.00    +0.000 C 
ATOM     29  O   UNL     1      -3.651  10.017  16.267  0.00  0.00    +0.000 OA
ENDBRANCH  22  29
BRANCH  26  30
ATOM     30  O   UNL     1      -4.320  13.075  20.059  0.00  0.00    +0.000 OA
ATOM     31  C   UNL     1      -4.827  12.539  21.267  0.00  0.00    +0.000 C 
ENDBRANCH  26  30
BRANCH  27  32
ATOM     32  O   UNL     1      -5.452  11.699  17.784  0.00  0.00    +0.000 OA
ATOM     33  C   UNL     1      -6.409  10.822  18.353  0.00  0.00    +0.000 C 
ENDBRANCH  27  32
ENDBRANCH  20  24
ENDBRANCH   1  20
TORSDOF 6
ENDMDL
MODEL 2
REMARK VINA RESULT:      -8.1      0.310      2.336
REMARK  Name = 
REMARK  10 active torsions:
REMARK  status: ('A' for Active; 'I' for Inactive)
REMARK    1  A    between atoms: C_1  and  O_2
REMARK    2  A    between atoms: O_2  and  C_3
REMARK    3  A    between atoms: C_5  and  N_6
REMARK    4  A    between atoms: N_6  and  C_7
REMARK    5  A    between atoms: N_10  and  C_11
REMARK    6  A    between atoms: N_18  and  C_19
REMARK    7  A    between atoms: C_26  and  O_27
REMARK    8  A    between atoms: O_27  and  C_28
REMARK    9  A    between atoms: C_29  and  O_30
REMARK   10  A    between atoms: O_30  and  C_31
REMARK                            x       y       z     vdW  Elec       q    Type
REMARK                         _______ _______ _______ _____ _____    ______ ____
ROOT
ATOM      1  C   UNL     1       0.551  10.045  19.514  0.00  0.00    +0.000 A 
ATOM      2  N   UNL     1       1.274   9.372  18.591  0.00  0.00    +0.000 NA
ATOM      3  C   UNL     1       1.964   8.300  19.006  0.00  0.00    +0.000 A 
ATOM      4  N   UNL     1       2.689   7.634  18.031  0.00  0.00    +0.000 N 
ATOM      5  N   UNL     1       1.961   7.886  20.300  0.00  0.00    +0.000 NA
ATOM      6  N   UNL     1       1.236   8.555  21.237  0.00  0.00    +0.000 NA
ATOM      7  C   UNL     1       0.545   9.628  20.839  0.00  0.00    +0.000 A 
ATOM      8 CL   UNL     1      -0.302  10.447  22.089  0.00  0.00    +0.000 Cl
ATOM      9  H   UNL     1       2.376   8.025  17.144  0.00  0.00    +0.000 HD
ENDROOT
BRANCH   4  10
ATOM     10  C   UNL     1       2.857   6.238  17.919  0.00  0.00    +0.000 A 
ATOM     11  C   UNL     1       4.110   5.634  17.781  0.00  0.00    +0.000 A 
ATOM     12  C   UNL     1       4.273   4.247  17.910  0.00  0.00    +0.000 A 
ATOM     13  C   UNL     1       3.140   3.484  18.230  0.00  0.00    +0.000 A 
ATOM     14  C   UNL     1       1.866   4.056  18.290  0.00  0.00    +0.000 A 
ATOM     15  C   UNL     1       0.939   3.019  18.564  0.00  0.00    +0.000 A 
ATOM     16  C   UNL     1       1.673   1.908  18.895  0.00  0.00    +0.000 A 
ATOM     17  N   UNL     1       2.977   2.153  18.546  0.00  0.00    +0.000 N 
ATOM     18  C   UNL     1       3.989   1.121  18.539  0.00  0.00    +0.000 C 
ATOM     19  C   UNL     1       1.727   5.442  18.120  0.00  0.00    +0.000 A 
ENDBRANCH   4  10
BRANCH   1  20
ATOM     20  N   UNL     1      -0.156  11.191  19.096  0.00  0.00    +0.000 N 
ATOM     21  H   UNL     1       0.327  12.056  19.318  0.00  0.00    +0.000 HD
BRANCH  20  24
ATOM     22  C   UNL     1      -3.696  12.275  19.348  0.00  0.00    +0.000 A 
ATOM     23  C   UNL     1      -2.349  12.032  19.672  0.00  0.00    +0.000 A 
ATOM     24  C   UNL     1      -1.525  11.296  18.831  0.00  0.00    +0.000 A 
ATOM     25  C   UNL     1      -2.094  10.742  17.681  0.00  0.00    +0.000 A 
ATOM     26  C   UNL     1      -3.448  10.906  17.363  0.00  0.00    +0.000 A 
ATOM     27  C   UNL     1      -4.271  11.686  18.198  0.00  0.00    +0.000 A 
BRANCH  22  29
ATOM     28  C   UNL     1      -3.803  13.601  21.313  0.00  0.00    +0.000 C 
ATOM     29  O   UNL     1      -4.468  13.054  20.175  0.00  0.00    +0.000 OA
ENDBRANCH  22  29
BRANCH  26  30
ATOM     30  O   UNL     1      -3.753  10.260  16.192  0.00  0.00    +0.000 OA
ATOM     31  C   UNL     1      -2.889  10.374  15.077  0.00  0.00    +0.000 C 
ENDBRANCH  26  30
BRANCH  27  32
ATOM     32  O   UNL     1      -5.587  11.778  17.830  0.00  0.00    +0.000 OA
ATOM     33  C   UNL     1      -6.533  10.860  18.351  0.00  0.00    +0.000 C 
ENDBRANCH  27  32
ENDBRANCH  20  24
ENDBRANCH   1  20
TORSDOF 6
ENDMDL
MODEL 3
REMARK VINA RESULT:      -7.8      1.408      1.517
REMARK  Name = 
REMARK  10 active torsions:
REMARK  status: ('A' for Active; 'I' for Inactive)
REMARK    1  A    between atoms: C_1  and  O_2
REMARK    2  A    between atoms: O_2  and  C_3
REMARK    3  A    between atoms: C_5  and  N_6
REMARK    4  A    between atoms: N_6  and  C_7
REMARK    5  A    between atoms: N_10  and  C_11
REMARK    6  A    between atoms: N_18  and  C_19
REMARK    7  A    between atoms: C_26  and  O_27
REMARK    8  A    between atoms: O_27  and  C_28
REMARK    9  A    between atoms: C_29  and  O_30
REMARK   10  A    between atoms: O_30  and  C_31
REMARK                            x       y       z     vdW  Elec       q    Type
REMARK                         _______ _______ _______ _____ _____    ______ ____
ROOT
ATOM      1  C   UNL     1      -0.161  10.681  20.649  0.00  0.00    +0.000 A 
ATOM      2  N   UNL     1       0.620   9.969  19.807  0.00  0.00    +0.000 NA
ATOM      3  C   UNL     1       1.209   8.865  20.290  0.00  0.00    +0.000 A 
ATOM      4  N   UNL     1       1.998   8.160  19.395  0.00  0.00    +0.000 N 
ATOM      5  N   UNL     1       1.049   8.457  21.576  0.00  0.00    +0.000 NA
ATOM      6  N   UNL     1       0.265   9.164  22.432  0.00  0.00    +0.000 NA
ATOM      7  C   UNL     1      -0.327  10.269  21.966  0.00  0.00    +0.000 A 
ATOM      8 CL   UNL     1      -1.258  11.134  23.122  0.00  0.00    +0.000 Cl
ATOM      9  H   UNL     1       1.799   8.563  18.481  0.00  0.00    +0.000 HD
ENDROOT
BRANCH   4  10
ATOM     10  C   UNL     1       2.107   6.758  19.299  0.00  0.00    +0.000 A 
ATOM     11  C   UNL     1       2.602   6.111  18.163  0.00  0.00    +0.000 A 
ATOM     12  C   UNL     1       2.922   4.746  18.178  0.00  0.00    +0.000 A 
ATOM     13  C   UNL     1       2.772   4.053  19.389  0.00  0.00    +0.000 A 
ATOM     14  C   UNL     1       2.200   4.659  20.512  0.00  0.00    +0.000 A 
ATOM     15  C   UNL     1       2.128   3.684  21.538  0.00  0.00    +0.000 A 
ATOM     16  C   UNL     1       2.857   2.603  21.112  0.00  0.00    +0.000 A 
ATOM     17  N   UNL     1       3.107   2.774  19.773  0.00  0.00    +0.000 N 
ATOM     18  C   UNL     1       3.652   1.724  18.942  0.00  0.00    +0.000 C 
ATOM     19  C   UNL     1       1.856   6.018  20.458  0.00  0.00    +0.000 A 
ENDBRANCH   4  10
BRANCH   1  20
ATOM     20  N   UNL     1      -0.761  11.859  20.161  0.00  0.00    +0.000 N 
ATOM     21  H   UNL     1      -0.359  12.701  20.560  0.00  0.00    +0.000 HD
BRANCH  20  24
ATOM     22  C   UNL     1      -3.578  11.458  17.778  0.00  0.00    +0.000 A 
ATOM     23  C   UNL     1      -2.280  11.470  18.319  0.00  0.00    +0.000 A 
ATOM     24  C   UNL     1      -2.028  11.990  19.581  0.00  0.00    +0.000 A 
ATOM     25  C   UNL     1      -3.094  12.568  20.274  0.00  0.00    +0.000 A 
ATOM     26  C   UNL     1      -4.386  12.635  19.737  0.00  0.00    +0.000 A 
ATOM     27  C   UNL     1      -4.646  12.072  18.473  0.00  0.00    +0.000 A 
BRANCH  22  29
ATOM     28  C   UNL     1      -2.850   9.906  16.138  0.00  0.00    +0.000 C 
ATOM     29  O   UNL     1      -3.802  10.886  16.550  0.00  0.00    +0.000 OA
ENDBRANCH  22  29
BRANCH  26  30
ATOM     30  O   UNL     1      -5.243  13.254  20.611  0.00  0.00    +0.000 OA
ATOM     31  C   UNL     1      -5.393  12.753  21.927  0.00  0.00    +0.000 C 
ENDBRANCH  26  30
BRANCH  27  32
ATOM     32  O   UNL     1      -5.928  12.200  18.010  0.00  0.00    +0.000 OA
ATOM     33  C   UNL     1      -6.888  11.197  18.301  0.00  0.00    +0.000 C 
ENDBRANCH  27  32
ENDBRANCH  20  24
ENDBRANCH   1  20
TORSDOF 6
ENDMDL
MODEL 4
REMARK VINA RESULT:      -7.7      1.363      1.860
REMARK  Name = 
REMARK  10 active torsions:
REMARK  status: ('A' for Active; 'I' for Inactive)
REMARK    1  A    between atoms: C_1  and  O_2
REMARK    2  A    between atoms: O_2  and  C_3
REMARK    3  A    between atoms: C_5  and  N_6
REMARK    4  A    between atoms: N_6  and  C_7
REMARK    5  A    between atoms: N_10  and  C_11
REMARK    6  A    between atoms: N_18  and  C_19
REMARK    7  A    between atoms: C_26  and  O_27
REMARK    8  A    between atoms: O_27  and  C_28
REMARK    9  A    between atoms: C_29  and  O_30
REMARK   10  A    between atoms: O_30  and  C_31
REMARK                            x       y       z     vdW  Elec       q    Type
REMARK                         _______ _______ _______ _____ _____    ______ ____
ROOT
ATOM      1  C   UNL     1      -0.270  11.143  20.486  0.00  0.00    +0.000 A 
ATOM      2  N   UNL     1       0.473  10.361  19.672  0.00  0.00    +0.000 NA
ATOM      3  C   UNL     1       1.196   9.385  20.241  0.00  0.00    +0.000 A 
ATOM      4  N   UNL     1       1.941   8.601  19.373  0.00  0.00    +0.000 N 
ATOM      5  N   UNL     1       1.208   9.172  21.583  0.00  0.00    +0.000 NA
ATOM      6  N   UNL     1       0.463   9.953  22.411  0.00  0.00    +0.000 NA
ATOM      7  C   UNL     1      -0.262  10.931  21.859  0.00  0.00    +0.000 A 
ATOM      8 CL   UNL     1      -1.133  11.904  22.976  0.00  0.00    +0.000 Cl
ATOM      9  H   UNL     1       1.615   8.844  18.440  0.00  0.00    +0.000 HD
ENDROOT
BRANCH   4  10
ATOM     10  C   UNL     1       2.152   7.211  19.473  0.00  0.00    +0.000 A 
ATOM     11  C   UNL     1       1.658   6.443  20.531  0.00  0.00    +0.000 A 
ATOM     12  C   UNL     1       1.674   5.041  20.490  0.00  0.00    +0.000 A 
ATOM     13  C   UNL     1       2.163   4.428  19.325  0.00  0.00    +0.000 A 
ATOM     14  C   UNL     1       2.738   5.175  18.293  0.00  0.00    +0.000 A 
ATOM     15  C   UNL     1       3.190   4.265  17.303  0.00  0.00    +0.000 A 
ATOM     16  C   UNL     1       2.681   3.035  17.632  0.00  0.00    +0.000 A 
ATOM     17  N   UNL     1       2.200   3.114  18.915  0.00  0.00    +0.000 N 
ATOM     18  C   UNL     1       1.799   1.949  19.670  0.00  0.00    +0.000 C 
ATOM     19  C   UNL     1       2.741   6.575  18.377  0.00  0.00    +0.000 A 
ENDBRANCH   4  10
BRANCH   1  20
ATOM     20  N   UNL     1      -1.013  12.190  19.903  0.00  0.00    +0.000 N 
ATOM     21  H   UNL     1      -0.695  13.109  20.195  0.00  0.00    +0.000 HD
BRANCH  20  24
ATOM     22  C   UNL     1      -3.813  11.336  17.624  0.00  0.00    +0.000 A 
ATOM     23  C   UNL     1      -2.515  11.551  18.119  0.00  0.00    +0.000 A 
ATOM     24  C   UNL     1      -2.303  12.121  19.366  0.00  0.00    +0.000 A 
ATOM     25  C   UNL     1      -3.421  12.542  20.091  0.00  0.00    +0.000 A 
ATOM     26  C   UNL     1      -4.725  12.406  19.599  0.00  0.00    +0.000 A 
ATOM     27  C   UNL     1      -4.939  11.792  18.349  0.00  0.00    +0.000 A 
BRANCH  22  29
ATOM     28  C   UNL     1      -2.923  10.874  15.473  0.00  0.00    +0.000 C 
ATOM     29  O   UNL     1      -3.989  10.719  16.409  0.00  0.00    +0.000 OA
ENDBRANCH  22  29
BRANCH  26  30
ATOM     30  O   UNL     1      -5.636  12.902  20.496  0.00  0.00    +0.000 OA
ATOM     31  C   UNL     1      -5.871  14.296  20.565  0.00  0.00    +0.000 C 
ENDBRANCH  26  30
BRANCH  27  32
ATOM     32  O   UNL     1      -6.240  11.718  17.930  0.00  0.00    +0.000 OA
ATOM     33  C   UNL     1      -6.801  12.782  17.179  0.00  0.00    +0.000 C 
ENDBRANCH  27  32
ENDBRANCH  20  24
ENDBRANCH   1  20
TORSDOF 6
ENDMDL
MODEL 5
REMARK VINA RESULT:      -7.7      1.280      2.655
REMARK  Name = 
REMARK  10 active torsions:
REMARK  status: ('A' for Active; 'I' for Inactive)
REMARK    1  A    between atoms: C_1  and  O_2
REMARK    2  A    between atoms: O_2  and  C_3
REMARK    3  A    between atoms: C_5  and  N_6
REMARK    4  A    between atoms: N_6  and  C_7
REMARK    5  A    between atoms: N_10  and  C_11
REMARK    6  A    between atoms: N_18  and  C_19
REMARK    7  A    between atoms: C_26  and  O_27
REMARK    8  A    between atoms: O_27  and  C_28
REMARK    9  A    between atoms: C_29  and  O_30
REMARK   10  A    between atoms: O_30  and  C_31
REMARK                            x       y       z     vdW  Elec       q    Type
REMARK                         _______ _______ _______ _____ _____    ______ ____
ROOT
ATOM      1  C   UNL     1       0.077  10.495  20.429  0.00  0.00    +0.000 A 
ATOM      2  N   UNL     1       0.811   9.758  19.567  0.00  0.00    +0.000 NA
ATOM      3  C   UNL     1       1.473   8.702  20.062  0.00  0.00    +0.000 A 
ATOM      4  N   UNL     1       2.210   7.968  19.146  0.00  0.00    +0.000 N 
ATOM      5  N   UNL     1       1.433   8.367  21.377  0.00  0.00    +0.000 NA
ATOM      6  N   UNL     1       0.697   9.101  22.255  0.00  0.00    +0.000 NA
ATOM      7  C   UNL     1       0.033  10.158  21.777  0.00  0.00    +0.000 A 
ATOM      8 CL   UNL     1      -0.830  11.064  22.955  0.00  0.00    +0.000 Cl
ATOM      9  H   UNL     1       1.924   8.310  18.230  0.00  0.00    +0.000 HD
ENDROOT
BRANCH   4  10
ATOM     10  C   UNL     1       2.358   6.566  19.121  0.00  0.00    +0.000 A 
ATOM     11  C   UNL     1       2.983   5.888  18.072  0.00  0.00    +0.000 A 
ATOM     12  C   UNL     1       3.328   4.532  18.177  0.00  0.00    +0.000 A 
ATOM     13  C   UNL     1       3.067   3.885  19.395  0.00  0.00    +0.000 A 
ATOM     14  C   UNL     1       2.368   4.520  20.425  0.00  0.00    +0.000 A 
ATOM     15  C   UNL     1       2.210   3.586  21.479  0.00  0.00    +0.000 A 
ATOM     16  C   UNL     1       3.002   2.507  21.177  0.00  0.00    +0.000 A 
ATOM     17  N   UNL     1       3.387   2.631  19.865  0.00  0.00    +0.000 N 
ATOM     18  C   UNL     1       4.037   1.563  19.141  0.00  0.00    +0.000 C 
ATOM     19  C   UNL     1       2.003   5.867  20.278  0.00  0.00    +0.000 A 
ENDBRANCH   4  10
BRANCH   1  20
ATOM     20  N   UNL     1      -0.600  11.625  19.927  0.00  0.00    +0.000 N 
ATOM     21  H   UNL     1      -0.174  12.500  20.213  0.00  0.00    +0.000 HD
BRANCH  20  24
ATOM     22  C   UNL     1      -4.172  12.611  19.724  0.00  0.00    +0.000 A 
ATOM     23  C   UNL     1      -2.872  12.401  20.218  0.00  0.00    +0.000 A 
ATOM     24  C   UNL     1      -1.927  11.695  19.487  0.00  0.00    +0.000 A 
ATOM     25  C   UNL     1      -2.326  11.135  18.271  0.00  0.00    +0.000 A 
ATOM     26  C   UNL     1      -3.632  11.266  17.781  0.00  0.00    +0.000 A 
ATOM     27  C   UNL     1      -4.577  12.016  18.506  0.00  0.00    +0.000 A 
BRANCH  22  29
ATOM     28  C   UNL     1      -5.648  12.713  21.579  0.00  0.00    +0.000 C 
ATOM     29  O   UNL     1      -5.066  13.361  20.448  0.00  0.00    +0.000 OA
ENDBRANCH  22  29
BRANCH  26  30
ATOM     30  O   UNL     1      -3.764  10.621  16.577  0.00  0.00    +0.000 OA
ATOM     31  C   UNL     1      -2.683  10.603  15.664  0.00  0.00    +0.000 C 
ENDBRANCH  26  30
BRANCH  27  32
ATOM     32  O   UNL     1      -5.836  12.076  17.971  0.00  0.00    +0.000 OA
ATOM     33  C   UNL     1      -6.800  11.096  18.321  0.00  0.00    +0.000 C 
ENDBRANCH  27  32
ENDBRANCH  20  24
ENDBRANCH   1  20
TORSDOF 6
ENDMDL
MODEL 6
REMARK VINA RESULT:      -7.7      1.388      2.938
REMARK  Name = 
REMARK  10 active torsions:
REMARK  status: ('A' for Active; 'I' for Inactive)
REMARK    1  A    between atoms: C_1  and  O_2
REMARK    2  A    between atoms: O_2  and  C_3
REMARK    3  A    between atoms: C_5  and  N_6
REMARK    4  A    between atoms: N_6  and  C_7
REMARK    5  A    between atoms: N_10  and  C_11
REMARK    6  A    between atoms: N_18  and  C_19
REMARK    7  A    between atoms: C_26  and  O_27
REMARK    8  A    between atoms: O_27  and  C_28
REMARK    9  A    between atoms: C_29  and  O_30
REMARK   10  A    between atoms: O_30  and  C_31
REMARK                            x       y       z     vdW  Elec       q    Type
REMARK                         _______ _______ _______ _____ _____    ______ ____
ROOT
ATOM      1  C   UNL     1      -0.350  11.076  20.484  0.00  0.00    +0.000 A 
ATOM      2  N   UNL     1       0.411  10.314  19.668  0.00  0.00    +0.000 NA
ATOM      3  C   UNL     1       1.159   9.355  20.234  0.00  0.00    +0.000 A 
ATOM      4  N   UNL     1       1.922   8.592  19.364  0.00  0.00    +0.000 N 
ATOM      5  N   UNL     1       1.178   9.141  21.575  0.00  0.00    +0.000 NA
ATOM      6  N   UNL     1       0.415   9.902  22.406  0.00  0.00    +0.000 NA
ATOM      7  C   UNL     1      -0.334  10.863  21.857  0.00  0.00    +0.000 A 
ATOM      8 CL   UNL     1      -1.228  11.812  22.976  0.00  0.00    +0.000 Cl
ATOM      9  H   UNL     1       1.588   8.828  18.431  0.00  0.00    +0.000 HD
ENDROOT
BRANCH   4  10
ATOM     10  C   UNL     1       2.167   7.207  19.461  0.00  0.00    +0.000 A 
ATOM     11  C   UNL     1       1.653   6.416  20.492  0.00  0.00    +0.000 A 
ATOM     12  C   UNL     1       1.710   5.016  20.441  0.00  0.00    +0.000 A 
ATOM     13  C   UNL     1       2.261   4.427  19.292  0.00  0.00    +0.000 A 
ATOM     14  C   UNL     1       2.855   5.198  18.289  0.00  0.00    +0.000 A 
ATOM     15  C   UNL     1       3.371   4.310  17.311  0.00  0.00    +0.000 A 
ATOM     16  C   UNL     1       2.884   3.063  17.610  0.00  0.00    +0.000 A 
ATOM     17  N   UNL     1       2.350   3.118  18.873  0.00  0.00    +0.000 N 
ATOM     18  C   UNL     1       1.952   1.936  19.603  0.00  0.00    +0.000 C 
ATOM     19  C   UNL     1       2.816   6.597  18.384  0.00  0.00    +0.000 A 
ENDBRANCH   4  10
BRANCH   1  20
ATOM     20  N   UNL     1      -1.118  12.106  19.904  0.00  0.00    +0.000 N 
ATOM     21  H   UNL     1      -0.812  13.032  20.184  0.00  0.00    +0.000 HD
BRANCH  20  24
ATOM     22  C   UNL     1      -4.796  12.484  19.585  0.00  0.00    +0.000 A 
ATOM     23  C   UNL     1      -3.504  12.431  20.136  0.00  0.00    +0.000 A 
ATOM     24  C   UNL     1      -2.414  12.010  19.386  0.00  0.00    +0.000 A 
ATOM     25  C   UNL     1      -2.651  11.573  18.080  0.00  0.00    +0.000 A 
ATOM     26  C   UNL     1      -3.935  11.548  17.521  0.00  0.00    +0.000 A 
ATOM     27  C   UNL     1      -5.032  12.011  18.273  0.00  0.00    +0.000 A 
BRANCH  22  29
ATOM     28  C   UNL     1      -5.696  14.286  20.840  0.00  0.00    +0.000 C 
ATOM     29  O   UNL     1      -5.842  12.958  20.338  0.00  0.00    +0.000 OA
ENDBRANCH  22  29
BRANCH  26  30
ATOM     30  O   UNL     1      -3.895  11.071  16.236  0.00  0.00    +0.000 OA
ATOM     31  C   UNL     1      -2.820  10.247  15.822  0.00  0.00    +0.000 C 
ENDBRANCH  26  30
BRANCH  27  32
ATOM     32  O   UNL     1      -6.255  11.932  17.663  0.00  0.00    +0.000 OA
ATOM     33  C   UNL     1      -6.820  13.084  17.058  0.00  0.00    +0.000 C 
ENDBRANCH  27  32
ENDBRANCH  20  24
ENDBRANCH   1  20
TORSDOF 6
ENDMDL
MODEL 7
REMARK VINA RESULT:      -7.5      3.803      9.631
REMARK  Name = 
REMARK  10 active torsions:
REMARK  status: ('A' for Active; 'I' for Inactive)
REMARK    1  A    between atoms: C_1  and  O_2
REMARK    2  A    between atoms: O_2  and  C_3
REMARK    3  A    between atoms: C_5  and  N_6
REMARK    4  A    between atoms: N_6  and  C_7
REMARK    5  A    between atoms: N_10  and  C_11
REMARK    6  A    between atoms: N_18  and  C_19
REMARK    7  A    between atoms: C_26  and  O_27
REMARK    8  A    between atoms: O_27  and  C_28
REMARK    9  A    between atoms: C_29  and  O_30
REMARK   10  A    between atoms: O_30  and  C_31
REMARK                            x       y       z     vdW  Elec       q    Type
REMARK                         _______ _______ _______ _____ _____    ______ ____
ROOT
ATOM      1  C   UNL     1       1.984   8.187  19.446  0.00  0.00    +0.000 A 
ATOM      2  N   UNL     1       1.021   8.900  20.072  0.00  0.00    +0.000 NA
ATOM      3  C   UNL     1       0.498   9.946  19.414  0.00  0.00    +0.000 A 
ATOM      4  N   UNL     1      -0.490  10.648  20.086  0.00  0.00    +0.000 N 
ATOM      5  N   UNL     1       0.908  10.304  18.170  0.00  0.00    +0.000 NA
ATOM      6  N   UNL     1       1.876   9.594  17.531  0.00  0.00    +0.000 NA
ATOM      7  C   UNL     1       2.408   8.550  18.174  0.00  0.00    +0.000 A 
ATOM      8 CL   UNL     1       3.660   7.737  17.322  0.00  0.00    +0.000 Cl
ATOM      9  H   UNL     1      -0.731  10.075  20.893  0.00  0.00    +0.000 HD
ENDROOT
BRANCH   4  10
ATOM     10  C   UNL     1      -1.653  11.208  19.517  0.00  0.00    +0.000 A 
ATOM     11  C   UNL     1      -2.229  10.724  18.340  0.00  0.00    +0.000 A 
ATOM     12  C   UNL     1      -3.504  11.135  17.925  0.00  0.00    +0.000 A 
ATOM     13  C   UNL     1      -4.208  12.019  18.758  0.00  0.00    +0.000 A 
ATOM     14  C   UNL     1      -3.618  12.579  19.895  0.00  0.00    +0.000 A 
ATOM     15  C   UNL     1      -4.555  13.472  20.472  0.00  0.00    +0.000 A 
ATOM     16  C   UNL     1      -5.750  13.263  19.831  0.00  0.00    +0.000 A 
ATOM     17  N   UNL     1      -5.495  12.507  18.714  0.00  0.00    +0.000 N 
ATOM     18  C   UNL     1      -6.481  12.288  17.681  0.00  0.00    +0.000 C 
ATOM     19  C   UNL     1      -2.326  12.177  20.267  0.00  0.00    +0.000 A 
ENDBRANCH   4  10
BRANCH   1  20
ATOM     20  N   UNL     1       2.561   7.103  20.138  0.00  0.00    +0.000 N 
ATOM     21  H   UNL     1       3.036   7.386  20.990  0.00  0.00    +0.000 HD
BRANCH  20  24
ATOM     22  C   UNL     1       2.278   3.810  18.450  0.00  0.00    +0.000 A 
ATOM     23  C   UNL     1       1.938   5.004  19.111  0.00  0.00    +0.000 A 
ATOM     24  C   UNL     1       2.912   5.853  19.618  0.00  0.00    +0.000 A 
ATOM     25  C   UNL     1       4.246   5.451  19.513  0.00  0.00    +0.000 A 
ATOM     26  C   UNL     1       4.618   4.237  18.922  0.00  0.00    +0.000 A 
ATOM     27  C   UNL     1       3.629   3.397  18.375  0.00  0.00    +0.000 A 
BRANCH  22  29
ATOM     28  C   UNL     1       0.478   2.317  18.851  0.00  0.00    +0.000 C 
ATOM     29  O   UNL     1       1.292   3.021  17.912  0.00  0.00    +0.000 OA
ENDBRANCH  22  29
BRANCH  26  30
ATOM     30  O   UNL     1       5.980   4.079  18.953  0.00  0.00    +0.000 OA
ATOM     31  C   UNL     1       6.799   4.847  18.091  0.00  0.00    +0.000 C 
ENDBRANCH  26  30
BRANCH  27  32
ATOM     32  O   UNL     1       4.072   2.218  17.837  0.00  0.00    +0.000 OA
ATOM     33  C   UNL     1       3.969   1.017  18.584  0.00  0.00    +0.000 C 
ENDBRANCH  27  32
ENDBRANCH  20  24
ENDBRANCH   1  20
TORSDOF 6
ENDMDL
MODEL 8
REMARK VINA RESULT:      -7.5      5.066     10.187
REMARK  Name = 
REMARK  10 active torsions:
REMARK  status: ('A' for Active; 'I' for Inactive)
REMARK    1  A    between atoms: C_1  and  O_2
REMARK    2  A    between atoms: O_2  and  C_3
REMARK    3  A    between atoms: C_5  and  N_6
REMARK    4  A    between atoms: N_6  and  C_7
REMARK    5  A    between atoms: N_10  and  C_11
REMARK    6  A    between atoms: N_18  and  C_19
REMARK    7  A    between atoms: C_26  and  O_27
REMARK    8  A    between atoms: O_27  and  C_28
REMARK    9  A    between atoms: C_29  and  O_30
REMARK   10  A    between atoms: O_30  and  C_31
REMARK                            x       y       z     vdW  Elec       q    Type
REMARK                         _______ _______ _______ _____ _____    ______ ____
ROOT
ATOM      1  C   UNL     1       1.976   8.007  18.586  0.00  0.00    +0.000 A 
ATOM      2  N   UNL     1       1.795   9.211  18.001  0.00  0.00    +0.000 NA
ATOM      3  C   UNL     1       1.256  10.188  18.745  0.00  0.00    +0.000 A 
ATOM      4  N   UNL     1       1.091  11.410  18.111  0.00  0.00    +0.000 N 
ATOM      5  N   UNL     1       0.888  10.001  20.039  0.00  0.00    +0.000 NA
ATOM      6  N   UNL     1       1.066   8.793  20.639  0.00  0.00    +0.000 NA
ATOM      7  C   UNL     1       1.601   7.808  19.909  0.00  0.00    +0.000 A 
ATOM      8 CL   UNL     1       1.744   6.302  20.722  0.00  0.00    +0.000 Cl
ATOM      9  H   UNL     1       1.606  11.333  17.236  0.00  0.00    +0.000 HD
ENDROOT
BRANCH   4  10
ATOM     10  C   UNL     1       1.285  12.683  18.685  0.00  0.00    +0.000 A 
ATOM     11  C   UNL     1       2.521  13.115  19.173  0.00  0.00    +0.000 A 
ATOM     12  C   UNL     1       2.746  14.456  19.517  0.00  0.00    +0.000 A 
ATOM     13  C   UNL     1       1.698  15.367  19.310  0.00  0.00    +0.000 A 
ATOM     14  C   UNL     1       0.430  14.943  18.902  0.00  0.00    +0.000 A 
ATOM     15  C   UNL     1      -0.411  16.083  18.853  0.00  0.00    +0.000 A 
ATOM     16  C   UNL     1       0.400  17.181  18.995  0.00  0.00    +0.000 A 
ATOM     17  N   UNL     1       1.628  16.738  19.418  0.00  0.00    +0.000 N 
ATOM     18  C   UNL     1       2.659  17.634  19.889  0.00  0.00    +0.000 C 
ATOM     19  C   UNL     1       0.223  13.589  18.599  0.00  0.00    +0.000 A 
ENDBRANCH   4  10
BRANCH   1  20
ATOM     20  N   UNL     1       2.515   6.964  17.806  0.00  0.00    +0.000 N 
ATOM     21  H   UNL     1       1.802   6.379  17.382  0.00  0.00    +0.000 HD
BRANCH  20  24
ATOM     22  C   UNL     1       6.192   6.591  17.466  0.00  0.00    +0.000 A 
ATOM     23  C   UNL     1       4.873   7.040  17.272  0.00  0.00    +0.000 A 
ATOM     24  C   UNL     1       3.799   6.415  17.891  0.00  0.00    +0.000 A 
ATOM     25  C   UNL     1       4.060   5.279  18.661  0.00  0.00    +0.000 A 
ATOM     26  C   UNL     1       5.352   4.764  18.820  0.00  0.00    +0.000 A 
ATOM     27  C   UNL     1       6.444   5.423  18.222  0.00  0.00    +0.000 A 
BRANCH  22  29
ATOM     28  C   UNL     1       7.786   8.340  17.646  0.00  0.00    +0.000 C 
ATOM     29  O   UNL     1       7.236   7.266  16.883  0.00  0.00    +0.000 OA
ENDBRANCH  22  29
BRANCH  26  30
ATOM     30  O   UNL     1       5.335   3.644  19.612  0.00  0.00    +0.000 OA
ATOM     31  C   UNL     1       4.269   2.719  19.501  0.00  0.00    +0.000 C 
ENDBRANCH  26  30
BRANCH  27  32
ATOM     32  O   UNL     1       7.671   4.843  18.406  0.00  0.00    +0.000 OA
ATOM     33  C   UNL     1       8.478   5.230  19.505  0.00  0.00    +0.000 C 
ENDBRANCH  27  32
ENDBRANCH  20  24
ENDBRANCH   1  20
TORSDOF 6
ENDMDL
MODEL 9
REMARK VINA RESULT:      -7.5      3.464      4.701
REMARK  Name = 
REMARK  10 active torsions:
REMARK  status: ('A' for Active; 'I' for Inactive)
REMARK    1  A    between atoms: C_1  and  O_2
REMARK    2  A    between atoms: O_2  and  C_3
REMARK    3  A    between atoms: C_5  and  N_6
REMARK    4  A    between atoms: N_6  and  C_7
REMARK    5  A    between atoms: N_10  and  C_11
REMARK    6  A    between atoms: N_18  and  C_19
REMARK    7  A    between atoms: C_26  and  O_27
REMARK    8  A    between atoms: O_27  and  C_28
REMARK    9  A    between atoms: C_29  and  O_30
REMARK   10  A    between atoms: O_30  and  C_31
REMARK                            x       y       z     vdW  Elec       q    Type
REMARK                         _______ _______ _______ _____ _____    ______ ____
ROOT
ATOM      1  C   UNL     1       0.812  10.329  18.874  0.00  0.00    +0.000 A 
ATOM      2  N   UNL     1       1.666   9.595  18.127  0.00  0.00    +0.000 NA
ATOM      3  C   UNL     1       2.169   8.479  18.676  0.00  0.00    +0.000 A 
ATOM      4  N   UNL     1       3.037   7.751  17.877  0.00  0.00    +0.000 N 
ATOM      5  N   UNL     1       1.855   8.081  19.936  0.00  0.00    +0.000 NA
ATOM      6  N   UNL     1       0.996   8.811  20.697  0.00  0.00    +0.000 NA
ATOM      7  C   UNL     1       0.488   9.927  20.165  0.00  0.00    +0.000 A 
ATOM      8 CL   UNL     1      -0.546  10.820  21.206  0.00  0.00    +0.000 Cl
ATOM      9  H   UNL     1       2.952   8.155  16.945  0.00  0.00    +0.000 HD
ENDROOT
BRANCH   4  10
ATOM     10  C   UNL     1       3.121   6.346  17.797  0.00  0.00    +0.000 A 
ATOM     11  C   UNL     1       4.337   5.664  17.707  0.00  0.00    +0.000 A 
ATOM     12  C   UNL     1       4.411   4.273  17.867  0.00  0.00    +0.000 A 
ATOM     13  C   UNL     1       3.224   3.587  18.169  0.00  0.00    +0.000 A 
ATOM     14  C   UNL     1       1.987   4.237  18.180  0.00  0.00    +0.000 A 
ATOM     15  C   UNL     1       0.991   3.264  18.447  0.00  0.00    +0.000 A 
ATOM     16  C   UNL     1       1.645   2.117  18.821  0.00  0.00    +0.000 A 
ATOM     17  N   UNL     1       2.971   2.275  18.505  0.00  0.00    +0.000 N 
ATOM     18  C   UNL     1       3.917   1.183  18.547  0.00  0.00    +0.000 C 
ATOM     19  C   UNL     1       1.938   5.624  17.981  0.00  0.00    +0.000 A 
ENDBRANCH   4  10
BRANCH   1  20
ATOM     20  N   UNL     1       0.299  11.519  18.319  0.00  0.00    +0.000 N 
ATOM     21  H   UNL     1      -0.260  11.357  17.487  0.00  0.00    +0.000 HD
BRANCH  20  24
ATOM     22  C   UNL     1       0.359  15.176  18.942  0.00  0.00    +0.000 A 
ATOM     23  C   UNL     1      -0.095  13.887  18.614  0.00  0.00    +0.000 A 
ATOM     24  C   UNL     1       0.784  12.818  18.498  0.00  0.00    +0.000 A 
ATOM     25  C   UNL     1       2.149  13.076  18.650  0.00  0.00    +0.000 A 
ATOM     26  C   UNL     1       2.642  14.361  18.909  0.00  0.00    +0.000 A 
ATOM     27  C   UNL     1       1.745  15.435  19.064  0.00  0.00    +0.000 A 
BRANCH  22  29
ATOM     28  C   UNL     1      -0.660  17.103  18.004  0.00  0.00    +0.000 C 
ATOM     29  O   UNL     1      -0.543  16.199  19.103  0.00  0.00    +0.000 OA
ENDBRANCH  22  29
BRANCH  26  30
ATOM     30  O   UNL     1       4.011  14.345  19.005  0.00  0.00    +0.000 OA
ATOM     31  C   UNL     1       4.799  14.831  17.934  0.00  0.00    +0.000 C 
ENDBRANCH  26  30
BRANCH  27  32
ATOM     32  O   UNL     1       2.308  16.662  19.292  0.00  0.00    +0.000 OA
ATOM     33  C   UNL     1       2.512  17.110  20.622  0.00  0.00    +0.000 C 
ENDBRANCH  27  32
ENDBRANCH  20  24
ENDBRANCH   1  20
TORSDOF 6
ENDMDL
