MODEL 1
REMARK VINA RESULT:      -7.8      0.000      0.000
REMARK  Name = 
REMARK  5 active torsions:
REMARK  status: ('A' for Active; 'I' for Inactive)
REMARK    1  A    between atoms: C_1  and  C_2
REMARK    2  A    between atoms: N_11  and  C_12
REMARK    3  A    between atoms: N_18  and  C_19
REMARK    4  A    between atoms: C_22  and  C_23
REMARK    5  A    between atoms: C_24  and  C_25
REMARK                            x       y       z     vdW  Elec       q    Type
REMARK                         _______ _______ _______ _____ _____    ______ ____
ROOT
ATOM      1  C   UNL     1      -4.895  12.256  24.954  0.00  0.00    +0.000 C 
ATOM      2  C   UNL     1      -3.744  13.044  24.412  0.00  0.00    +0.000 A 
ATOM      3  C   UNL     1      -3.538  14.389  24.714  0.00  0.00    +0.000 A 
ATOM      4  C   UNL     1      -2.435  15.085  24.185  0.00  0.00    +0.000 A 
ATOM      5  C   UNL     1      -1.504  14.467  23.336  0.00  0.00    +0.000 A 
ATOM      6  C   UNL     1      -1.751  13.120  23.034  0.00  0.00    +0.000 A 
ATOM      7  C   UNL     1      -2.839  12.419  23.572  0.00  0.00    +0.000 A 
ATOM      8  C   UNL     1      -0.828  12.364  22.141  0.00  0.00    +0.000 C 
ATOM      9  C   UNL     1      -0.080  13.265  21.153  0.00  0.00    +0.000 C 
ATOM     10  C   UNL     1       0.570  14.392  21.951  0.00  0.00    +0.000 C 
ATOM     11  N   UNL     1      -0.397  15.117  22.802  0.00  0.00    +0.000 N 
ATOM     12  C   UNL     1      -0.285  16.570  22.866  0.00  0.00    +0.000 C 
ATOM     13  C   UNL     1      -0.959  13.818  20.055  0.00  0.00    +0.000 C 
ATOM     14  O   UNL     1      -1.186  15.007  19.844  0.00  0.00    +0.000 OA
ATOM     15  N   UNL     1      -1.439  12.883  19.191  0.00  0.00    +0.000 N 
ATOM     16  C   UNL     1      -0.710  11.791  18.800  0.00  0.00    +0.000 C 
ATOM     17  O   UNL     1      -0.985  11.311  17.703  0.00  0.00    +0.000 OA
ATOM     18  N   UNL     1       0.293  11.380  19.670  0.00  0.00    +0.000 N 
ATOM     19  C   UNL     1       0.913  12.315  20.517  0.00  0.00    +0.000 C 
ATOM     20  O   UNL     1       2.107  12.315  20.808  0.00  0.00    +0.000 OA
ATOM     21  H   UNL     1      -2.047  13.233  18.463  0.00  0.00    +0.000 HD
ENDROOT
BRANCH  18  22
ATOM     22  C   UNL     1       0.650   9.988  19.769  0.00  0.00    +0.000 A 
ATOM     23  C   UNL     1       0.463   9.242  20.934  0.00  0.00    +0.000 A 
ATOM     24  C   UNL     1       1.017   7.968  21.077  0.00  0.00    +0.000 A 
ATOM     25  C   UNL     1       1.821   7.416  20.073  0.00  0.00    +0.000 A 
ATOM     26  C   UNL     1       2.447   6.071  20.302  0.00  0.00    +0.000 C 
ATOM     27  C   UNL     1       2.043   8.150  18.900  0.00  0.00    +0.000 A 
ATOM     28  C   UNL     1       2.993   7.710  17.817  0.00  0.00    +0.000 C 
ATOM     29  C   UNL     1       1.414   9.399  18.743  0.00  0.00    +0.000 A 
ENDBRANCH  18  22
TORSDOF 1
ENDMDL
MODEL 2
REMARK VINA RESULT:      -7.4      2.959      5.484
REMARK  Name = 
REMARK  5 active torsions:
REMARK  status: ('A' for Active; 'I' for Inactive)
REMARK    1  A    between atoms: C_1  and  C_2
REMARK    2  A    between atoms: N_11  and  C_12
REMARK    3  A    between atoms: N_18  and  C_19
REMARK    4  A    between atoms: C_22  and  C_23
REMARK    5  A    between atoms: C_24  and  C_25
REMARK                            x       y       z     vdW  Elec       q    Type
REMARK                         _______ _______ _______ _____ _____    ______ ____
ROOT
ATOM      1  C   UNL     1      -3.818  10.025  15.232  0.00  0.00    +0.000 C 
ATOM      2  C   UNL     1      -3.079  10.447  16.463  0.00  0.00    +0.000 A 
ATOM      3  C   UNL     1      -3.316  11.659  17.111  0.00  0.00    +0.000 A 
ATOM      4  C   UNL     1      -2.600  12.007  18.271  0.00  0.00    +0.000 A 
ATOM      5  C   UNL     1      -1.624  11.164  18.822  0.00  0.00    +0.000 A 
ATOM      6  C   UNL     1      -1.393   9.962  18.136  0.00  0.00    +0.000 A 
ATOM      7  C   UNL     1      -2.116   9.604  16.989  0.00  0.00    +0.000 A 
ATOM      8  C   UNL     1      -0.378   8.992  18.632  0.00  0.00    +0.000 C 
ATOM      9  C   UNL     1       0.738   9.655  19.446  0.00  0.00    +0.000 C 
ATOM     10  C   UNL     1       0.080  10.511  20.525  0.00  0.00    +0.000 C 
ATOM     11  N   UNL     1      -0.903  11.467  19.972  0.00  0.00    +0.000 N 
ATOM     12  C   UNL     1      -0.918  12.816  20.525  0.00  0.00    +0.000 C 
ATOM     13  C   UNL     1       1.688  10.480  18.608  0.00  0.00    +0.000 C 
ATOM     14  O   UNL     1       1.884  11.688  18.719  0.00  0.00    +0.000 OA
ATOM     15  N   UNL     1       2.443   9.757  17.736  0.00  0.00    +0.000 N 
ATOM     16  C   UNL     1       2.926   8.509  18.030  0.00  0.00    +0.000 C 
ATOM     17  O   UNL     1       3.953   8.167  17.449  0.00  0.00    +0.000 OA
ATOM     18  N   UNL     1       2.223   7.790  18.989  0.00  0.00    +0.000 N 
ATOM     19  C   UNL     1       1.507   8.471  19.990  0.00  0.00    +0.000 C 
ATOM     20  O   UNL     1       1.416   8.104  21.159  0.00  0.00    +0.000 OA
ATOM     21  H   UNL     1       3.069  10.296  17.152  0.00  0.00    +0.000 HD
ENDROOT
BRANCH  18  22
ATOM     22  C   UNL     1       2.155   6.353  18.922  0.00  0.00    +0.000 A 
ATOM     23  C   UNL     1       1.767   5.669  17.768  0.00  0.00    +0.000 A 
ATOM     24  C   UNL     1       1.495   4.300  17.794  0.00  0.00    +0.000 A 
ATOM     25  C   UNL     1       1.555   3.575  18.990  0.00  0.00    +0.000 A 
ATOM     26  C   UNL     1       1.191   2.120  18.976  0.00  0.00    +0.000 C 
ATOM     27  C   UNL     1       1.923   4.240  20.168  0.00  0.00    +0.000 A 
ATOM     28  C   UNL     1       1.893   3.590  21.527  0.00  0.00    +0.000 C 
ATOM     29  C   UNL     1       2.267   5.603  20.108  0.00  0.00    +0.000 A 
ENDBRANCH  18  22
TORSDOF 1
ENDMDL
MODEL 3
REMARK VINA RESULT:      -7.4      3.206      5.229
REMARK  Name = 
REMARK  5 active torsions:
REMARK  status: ('A' for Active; 'I' for Inactive)
REMARK    1  A    between atoms: C_1  and  C_2
REMARK    2  A    between atoms: N_11  and  C_12
REMARK    3  A    between atoms: N_18  and  C_19
REMARK    4  A    between atoms: C_22  and  C_23
REMARK    5  A    between atoms: C_24  and  C_25
REMARK                            x       y       z     vdW  Elec       q    Type
REMARK                         _______ _______ _______ _____ _____    ______ ____
ROOT
ATOM      1  C   UNL     1      -3.919  10.046  13.828  0.00  0.00    +0.000 C 
ATOM      2  C   UNL     1      -3.796  10.531  15.240  0.00  0.00    +0.000 A 
ATOM      3  C   UNL     1      -4.746  11.351  15.845  0.00  0.00    +0.000 A 
ATOM      4  C   UNL     1      -4.589  11.773  17.178  0.00  0.00    +0.000 A 
ATOM      5  C   UNL     1      -3.481  11.396  17.951  0.00  0.00    +0.000 A 
ATOM      6  C   UNL     1      -2.531  10.589  17.307  0.00  0.00    +0.000 A 
ATOM      7  C   UNL     1      -2.692  10.153  15.984  0.00  0.00    +0.000 A 
ATOM      8  C   UNL     1      -1.313  10.130  18.032  0.00  0.00    +0.000 C 
ATOM      9  C   UNL     1      -0.899  11.074  19.165  0.00  0.00    +0.000 C 
ATOM     10  C   UNL     1      -2.125  11.312  20.044  0.00  0.00    +0.000 C 
ATOM     11  N   UNL     1      -3.294  11.784  19.273  0.00  0.00    +0.000 N 
ATOM     12  C   UNL     1      -4.106  12.844  19.859  0.00  0.00    +0.000 C 
ATOM     13  C   UNL     1      -0.322  12.384  18.679  0.00  0.00    +0.000 C 
ATOM     14  O   UNL     1      -0.785  13.501  18.897  0.00  0.00    +0.000 OA
ATOM     15  N   UNL     1       0.870  12.269  18.033  0.00  0.00    +0.000 N 
ATOM     16  C   UNL     1       1.828  11.360  18.397  0.00  0.00    +0.000 C 
ATOM     17  O   UNL     1       2.990  11.648  18.125  0.00  0.00    +0.000 OA
ATOM     18  N   UNL     1       1.376  10.234  19.076  0.00  0.00    +0.000 N 
ATOM     19  C   UNL     1       0.208  10.307  19.855  0.00  0.00    +0.000 C 
ATOM     20  O   UNL     1       0.044   9.732  20.929  0.00  0.00    +0.000 OA
ATOM     21  H   UNL     1       1.260  13.134  17.681  0.00  0.00    +0.000 HD
ENDROOT
BRANCH  18  22
ATOM     22  C   UNL     1       2.050   8.970  18.926  0.00  0.00    +0.000 A 
ATOM     23  C   UNL     1       2.706   8.599  17.751  0.00  0.00    +0.000 A 
ATOM     24  C   UNL     1       3.155   7.292  17.553  0.00  0.00    +0.000 A 
ATOM     25  C   UNL     1       2.920   6.296  18.508  0.00  0.00    +0.000 A 
ATOM     26  C   UNL     1       3.365   4.893  18.219  0.00  0.00    +0.000 C 
ATOM     27  C   UNL     1       2.246   6.635  19.690  0.00  0.00    +0.000 A 
ATOM     28  C   UNL     1       1.827   5.621  20.721  0.00  0.00    +0.000 C 
ATOM     29  C   UNL     1       1.869   7.974  19.905  0.00  0.00    +0.000 A 
ENDBRANCH  18  22
TORSDOF 1
ENDMDL
MODEL 4
REMARK VINA RESULT:      -7.3      3.777      5.003
REMARK  Name = 
REMARK  5 active torsions:
REMARK  status: ('A' for Active; 'I' for Inactive)
REMARK    1  A    between atoms: C_1  and  C_2
REMARK    2  A    between atoms: N_11  and  C_12
REMARK    3  A    between atoms: N_18  and  C_19
REMARK    4  A    between atoms: C_22  and  C_23
REMARK    5  A    between atoms: C_24  and  C_25
REMARK                            x       y       z     vdW  Elec       q    Type
REMARK                         _______ _______ _______ _____ _____    ______ ____
ROOT
ATOM      1  C   UNL     1      -6.965  13.192  16.893  0.00  0.00    +0.000 C 
ATOM      2  C   UNL     1      -6.931  13.449  18.367  0.00  0.00    +0.000 A 
ATOM      3  C   UNL     1      -7.916  14.176  19.033  0.00  0.00    +0.000 A 
ATOM      4  C   UNL     1      -7.842  14.384  20.423  0.00  0.00    +0.000 A 
ATOM      5  C   UNL     1      -6.785  13.879  21.194  0.00  0.00    +0.000 A 
ATOM      6  C   UNL     1      -5.798  13.171  20.493  0.00  0.00    +0.000 A 
ATOM      7  C   UNL     1      -5.876  12.947  19.111  0.00  0.00    +0.000 A 
ATOM      8  C   UNL     1      -4.629  12.591  21.211  0.00  0.00    +0.000 C 
ATOM      9  C   UNL     1      -4.286  13.343  22.501  0.00  0.00    +0.000 C 
ATOM     10  C   UNL     1      -5.564  13.455  23.328  0.00  0.00    +0.000 C 
ATOM     11  N   UNL     1      -6.682  14.054  22.570  0.00  0.00    +0.000 N 
ATOM     12  C   UNL     1      -7.528  15.019  23.263  0.00  0.00    +0.000 C 
ATOM     13  C   UNL     1      -3.677  14.706  22.262  0.00  0.00    +0.000 C 
ATOM     14  O   UNL     1      -4.151  15.781  22.622  0.00  0.00    +0.000 OA
ATOM     15  N   UNL     1      -2.447  14.680  21.680  0.00  0.00    +0.000 N 
ATOM     16  C   UNL     1      -1.516  13.714  21.957  0.00  0.00    +0.000 C 
ATOM     17  O   UNL     1      -0.338  14.028  21.805  0.00  0.00    +0.000 OA
ATOM     18  N   UNL     1      -2.010  12.501  22.423  0.00  0.00    +0.000 N 
ATOM     19  C   UNL     1      -3.225  12.465  23.130  0.00  0.00    +0.000 C 
ATOM     20  O   UNL     1      -3.456  11.732  24.089  0.00  0.00    +0.000 OA
ATOM     21  H   UNL     1      -2.035  15.584  21.493  0.00  0.00    +0.000 HD
ENDROOT
BRANCH  18  22
ATOM     22  C   UNL     1      -1.330  11.269  22.120  0.00  0.00    +0.000 A 
ATOM     23  C   UNL     1      -0.817  10.426  23.109  0.00  0.00    +0.000 A 
ATOM     24  C   UNL     1       0.027   9.361  22.788  0.00  0.00    +0.000 A 
ATOM     25  C   UNL     1       0.426   9.131  21.467  0.00  0.00    +0.000 A 
ATOM     26  C   UNL     1       1.386   8.012  21.183  0.00  0.00    +0.000 C 
ATOM     27  C   UNL     1      -0.057   9.972  20.455  0.00  0.00    +0.000 A 
ATOM     28  C   UNL     1       0.409   9.896  19.024  0.00  0.00    +0.000 C 
ATOM     29  C   UNL     1      -0.966  10.994  20.788  0.00  0.00    +0.000 A 
ENDBRANCH  18  22
TORSDOF 1
ENDMDL
MODEL 5
REMARK VINA RESULT:      -7.2      3.057      7.876
REMARK  Name = 
REMARK  5 active torsions:
REMARK  status: ('A' for Active; 'I' for Inactive)
REMARK    1  A    between atoms: C_1  and  C_2
REMARK    2  A    between atoms: N_11  and  C_12
REMARK    3  A    between atoms: N_18  and  C_19
REMARK    4  A    between atoms: C_22  and  C_23
REMARK    5  A    between atoms: C_24  and  C_25
REMARK                            x       y       z     vdW  Elec       q    Type
REMARK                         _______ _______ _______ _____ _____    ______ ____
ROOT
ATOM      1  C   UNL     1      -4.473  11.107  17.084  0.00  0.00    +0.000 C 
ATOM      2  C   UNL     1      -3.296  11.242  17.999  0.00  0.00    +0.000 A 
ATOM      3  C   UNL     1      -2.105  10.542  17.810  0.00  0.00    +0.000 A 
ATOM      4  C   UNL     1      -1.024  10.710  18.694  0.00  0.00    +0.000 A 
ATOM      5  C   UNL     1      -1.092  11.576  19.796  0.00  0.00    +0.000 A 
ATOM      6  C   UNL     1      -2.310  12.250  19.971  0.00  0.00    +0.000 A 
ATOM      7  C   UNL     1      -3.384  12.098  19.083  0.00  0.00    +0.000 A 
ATOM      8  C   UNL     1      -2.495  13.194  21.109  0.00  0.00    +0.000 C 
ATOM      9  C   UNL     1      -1.600  12.868  22.309  0.00  0.00    +0.000 C 
ATOM     10  C   UNL     1      -0.167  12.740  21.799  0.00  0.00    +0.000 C 
ATOM     11  N   UNL     1      -0.042  11.777  20.686  0.00  0.00    +0.000 N 
ATOM     12  C   UNL     1       1.110  10.883  20.691  0.00  0.00    +0.000 C 
ATOM     13  C   UNL     1      -2.020  11.621  23.054  0.00  0.00    +0.000 C 
ATOM     14  O   UNL     1      -1.344  10.606  23.200  0.00  0.00    +0.000 OA
ATOM     15  N   UNL     1      -3.221  11.721  23.687  0.00  0.00    +0.000 N 
ATOM     16  C   UNL     1      -3.653  12.877  24.282  0.00  0.00    +0.000 C 
ATOM     17  O   UNL     1      -4.447  12.753  25.211  0.00  0.00    +0.000 OA
ATOM     18  N   UNL     1      -3.106  14.058  23.794  0.00  0.00    +0.000 N 
ATOM     19  C   UNL     1      -1.821  14.053  23.225  0.00  0.00    +0.000 C 
ATOM     20  O   UNL     1      -0.992  14.950  23.356  0.00  0.00    +0.000 OA
ATOM     21  H   UNL     1      -3.527  10.888  24.173  0.00  0.00    +0.000 HD
ENDROOT
BRANCH  18  22
ATOM     22  C   UNL     1      -3.875  15.275  23.795  0.00  0.00    +0.000 A 
ATOM     23  C   UNL     1      -3.887  16.161  24.875  0.00  0.00    +0.000 A 
ATOM     24  C   UNL     1      -4.805  17.210  24.943  0.00  0.00    +0.000 A 
ATOM     25  C   UNL     1      -5.779  17.381  23.952  0.00  0.00    +0.000 A 
ATOM     26  C   UNL     1      -6.784  18.485  24.105  0.00  0.00    +0.000 C 
ATOM     27  C   UNL     1      -5.804  16.496  22.866  0.00  0.00    +0.000 A 
ATOM     28  C   UNL     1      -6.884  16.508  21.815  0.00  0.00    +0.000 C 
ATOM     29  C   UNL     1      -4.823  15.491  22.776  0.00  0.00    +0.000 A 
ENDBRANCH  18  22
TORSDOF 1
ENDMDL
MODEL 6
REMARK VINA RESULT:      -7.1      3.044      7.856
REMARK  Name = 
REMARK  5 active torsions:
REMARK  status: ('A' for Active; 'I' for Inactive)
REMARK    1  A    between atoms: C_1  and  C_2
REMARK    2  A    between atoms: N_11  and  C_12
REMARK    3  A    between atoms: N_18  and  C_19
REMARK    4  A    between atoms: C_22  and  C_23
REMARK    5  A    between atoms: C_24  and  C_25
REMARK                            x       y       z     vdW  Elec       q    Type
REMARK                         _______ _______ _______ _____ _____    ______ ____
ROOT
ATOM      1  C   UNL     1      -3.390   9.714  17.000  0.00  0.00    +0.000 C 
ATOM      2  C   UNL     1      -2.401  10.411  17.883  0.00  0.00    +0.000 A 
ATOM      3  C   UNL     1      -1.024  10.237  17.761  0.00  0.00    +0.000 A 
ATOM      4  C   UNL     1      -0.134  10.922  18.610  0.00  0.00    +0.000 A 
ATOM      5  C   UNL     1      -0.586  11.797  19.609  0.00  0.00    +0.000 A 
ATOM      6  C   UNL     1      -1.977  11.934  19.720  0.00  0.00    +0.000 A 
ATOM      7  C   UNL     1      -2.866  11.266  18.866  0.00  0.00    +0.000 A 
ATOM      8  C   UNL     1      -2.568  12.837  20.748  0.00  0.00    +0.000 C 
ATOM      9  C   UNL     1      -1.662  13.030  21.967  0.00  0.00    +0.000 C 
ATOM     10  C   UNL     1      -0.282  13.441  21.461  0.00  0.00    +0.000 C 
ATOM     11  N   UNL     1       0.261  12.498  20.460  0.00  0.00    +0.000 N 
ATOM     12  C   UNL     1       1.675  12.154  20.554  0.00  0.00    +0.000 C 
ATOM     13  C   UNL     1      -1.570  11.807  22.852  0.00  0.00    +0.000 C 
ATOM     14  O   UNL     1      -0.547  11.174  23.102  0.00  0.00    +0.000 OA
ATOM     15  N   UNL     1      -2.730  11.478  23.482  0.00  0.00    +0.000 N 
ATOM     16  C   UNL     1      -3.613  12.416  23.948  0.00  0.00    +0.000 C 
ATOM     17  O   UNL     1      -4.322  12.080  24.893  0.00  0.00    +0.000 OA
ATOM     18  N   UNL     1      -3.572  13.659  23.326  0.00  0.00    +0.000 N 
ATOM     19  C   UNL     1      -2.374  14.114  22.748  0.00  0.00    +0.000 C 
ATOM     20  O   UNL     1      -1.983  15.279  22.770  0.00  0.00    +0.000 OA
ATOM     21  H   UNL     1      -2.692  10.649  24.060  0.00  0.00    +0.000 HD
ENDROOT
BRANCH  18  22
ATOM     22  C   UNL     1      -4.767  14.452  23.200  0.00  0.00    +0.000 A 
ATOM     23  C   UNL     1      -5.679  14.283  22.156  0.00  0.00    +0.000 A 
ATOM     24  C   UNL     1      -6.703  15.205  21.931  0.00  0.00    +0.000 A 
ATOM     25  C   UNL     1      -6.822  16.357  22.716  0.00  0.00    +0.000 A 
ATOM     26  C   UNL     1      -7.900  17.349  22.393  0.00  0.00    +0.000 C 
ATOM     27  C   UNL     1      -5.908  16.564  23.759  0.00  0.00    +0.000 A 
ATOM     28  C   UNL     1      -5.863  17.826  24.580  0.00  0.00    +0.000 C 
ATOM     29  C   UNL     1      -4.930  15.586  24.019  0.00  0.00    +0.000 A 
ENDBRANCH  18  22
TORSDOF 1
ENDMDL
MODEL 7
REMARK VINA RESULT:      -7.0      3.286      5.482
REMARK  Name = 
REMARK  5 active torsions:
REMARK  status: ('A' for Active; 'I' for Inactive)
REMARK    1  A    between atoms: C_1  and  C_2
REMARK    2  A    between atoms: N_11  and  C_12
REMARK    3  A    between atoms: N_18  and  C_19
REMARK    4  A    between atoms: C_22  and  C_23
REMARK    5  A    between atoms: C_24  and  C_25
REMARK                            x       y       z     vdW  Elec       q    Type
REMARK                         _______ _______ _______ _____ _____    ______ ____
ROOT
ATOM      1  C   UNL     1      -3.737   9.918  15.264  0.00  0.00    +0.000 C 
ATOM      2  C   UNL     1      -2.899  10.438  16.390  0.00  0.00    +0.000 A 
ATOM      3  C   UNL     1      -2.972  11.754  16.844  0.00  0.00    +0.000 A 
ATOM      4  C   UNL     1      -2.168  12.192  17.913  0.00  0.00    +0.000 A 
ATOM      5  C   UNL     1      -1.263  11.339  18.560  0.00  0.00    +0.000 A 
ATOM      6  C   UNL     1      -1.196  10.027  18.066  0.00  0.00    +0.000 A 
ATOM      7  C   UNL     1      -2.007   9.582  17.013  0.00  0.00    +0.000 A 
ATOM      8  C   UNL     1      -0.268   9.035  18.677  0.00  0.00    +0.000 C 
ATOM      9  C   UNL     1       0.950   9.685  19.342  0.00  0.00    +0.000 C 
ATOM     10  C   UNL     1       0.440  10.766  20.291  0.00  0.00    +0.000 C 
ATOM     11  N   UNL     1      -0.459  11.731  19.625  0.00  0.00    +0.000 N 
ATOM     12  C   UNL     1      -0.302  13.142  19.958  0.00  0.00    +0.000 C 
ATOM     13  C   UNL     1       1.942  10.257  18.356  0.00  0.00    +0.000 C 
ATOM     14  O   UNL     1       2.272  11.438  18.268  0.00  0.00    +0.000 OA
ATOM     15  N   UNL     1       2.572   9.328  17.586  0.00  0.00    +0.000 N 
ATOM     16  C   UNL     1       2.932   8.094  18.058  0.00  0.00    +0.000 C 
ATOM     17  O   UNL     1       3.887   7.552  17.508  0.00  0.00    +0.000 OA
ATOM     18  N   UNL     1       2.202   7.615  19.141  0.00  0.00    +0.000 N 
ATOM     19  C   UNL     1       1.613   8.518  20.043  0.00  0.00    +0.000 C 
ATOM     20  O   UNL     1       1.539   8.348  21.258  0.00  0.00    +0.000 OA
ATOM     21  H   UNL     1       3.224   9.696  16.906  0.00  0.00    +0.000 HD
ENDROOT
BRANCH  18  22
ATOM     22  C   UNL     1       1.977   6.202  19.303  0.00  0.00    +0.000 A 
ATOM     23  C   UNL     1       1.805   5.604  20.554  0.00  0.00    +0.000 A 
ATOM     24  C   UNL     1       1.812   4.216  20.700  0.00  0.00    +0.000 A 
ATOM     25  C   UNL     1       2.040   3.376  19.604  0.00  0.00    +0.000 A 
ATOM     26  C   UNL     1       2.103   1.893  19.826  0.00  0.00    +0.000 C 
ATOM     27  C   UNL     1       2.236   3.949  18.340  0.00  0.00    +0.000 A 
ATOM     28  C   UNL     1       2.618   3.150  17.121  0.00  0.00    +0.000 C 
ATOM     29  C   UNL     1       2.150   5.347  18.199  0.00  0.00    +0.000 A 
ENDBRANCH  18  22
TORSDOF 1
ENDMDL
MODEL 8
REMARK VINA RESULT:      -7.0      4.336      6.091
REMARK  Name = 
REMARK  5 active torsions:
REMARK  status: ('A' for Active; 'I' for Inactive)
REMARK    1  A    between atoms: C_1  and  C_2
REMARK    2  A    between atoms: N_11  and  C_12
REMARK    3  A    between atoms: N_18  and  C_19
REMARK    4  A    between atoms: C_22  and  C_23
REMARK    5  A    between atoms: C_24  and  C_25
REMARK                            x       y       z     vdW  Elec       q    Type
REMARK                         _______ _______ _______ _____ _____    ______ ____
ROOT
ATOM      1  C   UNL     1      -1.539  15.215  25.330  0.00  0.00    +0.000 C 
ATOM      2  C   UNL     1      -2.820  15.645  24.685  0.00  0.00    +0.000 A 
ATOM      3  C   UNL     1      -3.648  16.626  25.226  0.00  0.00    +0.000 A 
ATOM      4  C   UNL     1      -4.839  17.001  24.577  0.00  0.00    +0.000 A 
ATOM      5  C   UNL     1      -5.246  16.410  23.372  0.00  0.00    +0.000 A 
ATOM      6  C   UNL     1      -4.403  15.411  22.864  0.00  0.00    +0.000 A 
ATOM      7  C   UNL     1      -3.207  15.046  23.499  0.00  0.00    +0.000 A 
ATOM      8  C   UNL     1      -4.738  14.715  21.590  0.00  0.00    +0.000 C 
ATOM      9  C   UNL     1      -6.241  14.695  21.295  0.00  0.00    +0.000 C 
ATOM     10  C   UNL     1      -6.755  16.128  21.404  0.00  0.00    +0.000 C 
ATOM     11  N   UNL     1      -6.410  16.760  22.696  0.00  0.00    +0.000 N 
ATOM     12  C   UNL     1      -7.431  17.574  23.344  0.00  0.00    +0.000 C 
ATOM     13  C   UNL     1      -7.022  13.772  22.202  0.00  0.00    +0.000 C 
ATOM     14  O   UNL     1      -7.917  14.107  22.975  0.00  0.00    +0.000 OA
ATOM     15  N   UNL     1      -6.742  12.450  22.037  0.00  0.00    +0.000 N 
ATOM     16  C   UNL     1      -6.462  11.897  20.816  0.00  0.00    +0.000 C 
ATOM     17  O   UNL     1      -6.716  10.703  20.682  0.00  0.00    +0.000 OA
ATOM     18  N   UNL     1      -5.964  12.764  19.850  0.00  0.00    +0.000 N 
ATOM     19  C   UNL     1      -6.302  14.129  19.893  0.00  0.00    +0.000 C 
ATOM     20  O   UNL     1      -6.521  14.828  18.906  0.00  0.00    +0.000 OA
ATOM     21  H   UNL     1      -7.240  11.820  22.652  0.00  0.00    +0.000 HD
ENDROOT
BRANCH  18  22
ATOM     22  C   UNL     1      -5.041  12.294  18.850  0.00  0.00    +0.000 A 
ATOM     23  C   UNL     1      -5.449  11.882  17.580  0.00  0.00    +0.000 A 
ATOM     24  C   UNL     1      -4.573  11.225  16.714  0.00  0.00    +0.000 A 
ATOM     25  C   UNL     1      -3.267  10.914  17.110  0.00  0.00    +0.000 A 
ATOM     26  C   UNL     1      -2.385  10.149  16.167  0.00  0.00    +0.000 C 
ATOM     27  C   UNL     1      -2.835  11.297  18.387  0.00  0.00    +0.000 A 
ATOM     28  C   UNL     1      -1.500  10.901  18.962  0.00  0.00    +0.000 C 
ATOM     29  C   UNL     1      -3.708  12.026  19.217  0.00  0.00    +0.000 A 
ENDBRANCH  18  22
TORSDOF 1
ENDMDL
MODEL 9
REMARK VINA RESULT:      -6.9      3.079      5.012
REMARK  Name = 
REMARK  5 active torsions:
REMARK  status: ('A' for Active; 'I' for Inactive)
REMARK    1  A    between atoms: C_1  and  C_2
REMARK    2  A    between atoms: N_11  and  C_12
REMARK    3  A    between atoms: N_18  and  C_19
REMARK    4  A    between atoms: C_22  and  C_23
REMARK    5  A    between atoms: C_24  and  C_25
REMARK                            x       y       z     vdW  Elec       q    Type
REMARK                         _______ _______ _______ _____ _____    ______ ____
ROOT
ATOM      1  C   UNL     1      -4.122  10.044  14.147  0.00  0.00    +0.000 C 
ATOM      2  C   UNL     1      -3.885  10.548  15.536  0.00  0.00    +0.000 A 
ATOM      3  C   UNL     1      -4.720  11.472  16.160  0.00  0.00    +0.000 A 
ATOM      4  C   UNL     1      -4.459  11.908  17.473  0.00  0.00    +0.000 A 
ATOM      5  C   UNL     1      -3.357  11.442  18.205  0.00  0.00    +0.000 A 
ATOM      6  C   UNL     1      -2.523  10.530  17.542  0.00  0.00    +0.000 A 
ATOM      7  C   UNL     1      -2.789  10.080  16.241  0.00  0.00    +0.000 A 
ATOM      8  C   UNL     1      -1.322   9.970  18.224  0.00  0.00    +0.000 C 
ATOM      9  C   UNL     1      -0.764  10.895  19.310  0.00  0.00    +0.000 C 
ATOM     10  C   UNL     1      -1.918  11.274  20.236  0.00  0.00    +0.000 C 
ATOM     11  N   UNL     1      -3.071  11.841  19.506  0.00  0.00    +0.000 N 
ATOM     12  C   UNL     1      -3.747  12.989  20.098  0.00  0.00    +0.000 C 
ATOM     13  C   UNL     1      -0.086  12.130  18.761  0.00  0.00    +0.000 C 
ATOM     14  O   UNL     1      -0.427  13.293  18.968  0.00  0.00    +0.000 OA
ATOM     15  N   UNL     1       1.057  11.883  18.065  0.00  0.00    +0.000 N 
ATOM     16  C   UNL     1       1.937  10.892  18.411  0.00  0.00    +0.000 C 
ATOM     17  O   UNL     1       3.108  11.058  18.079  0.00  0.00    +0.000 OA
ATOM     18  N   UNL     1       1.412   9.833  19.142  0.00  0.00    +0.000 N 
ATOM     19  C   UNL     1       0.295  10.039  19.971  0.00  0.00    +0.000 C 
ATOM     20  O   UNL     1       0.127   9.509  21.067  0.00  0.00    +0.000 OA
ATOM     21  H   UNL     1       1.512  12.696  17.672  0.00  0.00    +0.000 HD
ENDROOT
BRANCH  18  22
ATOM     22  C   UNL     1       1.951   8.506  18.997  0.00  0.00    +0.000 A 
ATOM     23  C   UNL     1       1.911   7.558  20.023  0.00  0.00    +0.000 A 
ATOM     24  C   UNL     1       2.633   6.367  19.938  0.00  0.00    +0.000 A 
ATOM     25  C   UNL     1       3.461   6.102  18.841  0.00  0.00    +0.000 A 
ATOM     26  C   UNL     1       4.266   4.835  18.828  0.00  0.00    +0.000 C 
ATOM     27  C   UNL     1       3.536   7.043  17.805  0.00  0.00    +0.000 A 
ATOM     28  C   UNL     1       4.491   6.921  16.646  0.00  0.00    +0.000 C 
ATOM     29  C   UNL     1       2.743   8.204  17.873  0.00  0.00    +0.000 A 
ENDBRANCH  18  22
TORSDOF 1
ENDMDL
