MODEL 1
REMARK VINA RESULT:      -7.8      0.000      0.000
REMARK  Name = 
REMARK  9 active torsions:
REMARK  status: ('A' for Active; 'I' for Inactive)
REMARK    1  A    between atoms: C_2  and  C_3
REMARK    2  A    between atoms: C_2  and  O_19
REMARK    3  A    between atoms: C_3  and  C_4
REMARK    4  A    between atoms: C_9  and  N_10
REMARK    5  A    between atoms: N_10  and  C_11
REMARK    6  A    between atoms: O_19  and  C_20
REMARK    7  A    between atoms: C_20  and  O_21
REMARK    8  A    between atoms: O_21  and  N_22
REMARK    9  A    between atoms: N_23  and  N_25
REMARK                            x       y       z     vdW  Elec       q    Type
REMARK                         _______ _______ _______ _____ _____    ______ ____
ROOT
ATOM      1  C   UNL     1       3.334   4.342  19.821  0.00  0.00    +0.000 A 
ATOM      2  C   UNL     1       2.979   3.001  19.564  0.00  0.00    +0.000 A 
ATOM      3  C   UNL     1       1.667   2.552  19.712  0.00  0.00    +0.000 A 
ATOM      4  C   UNL     1       0.686   3.431  20.147  0.00  0.00    +0.000 A 
ATOM      5  C   UNL     1       1.016   4.757  20.408  0.00  0.00    +0.000 A 
ATOM      6  C   UNL     1       2.318   5.254  20.190  0.00  0.00    +0.000 A 
ENDROOT
BRANCH   6   7
ATOM      7  N   UNL     1       2.566   6.631  20.415  0.00  0.00    +0.000 N 
ATOM      8  H   UNL     1       3.553   6.826  20.564  0.00  0.00    +0.000 HD
BRANCH   7   9
ATOM      9  C   UNL     1       2.009   7.734  19.685  0.00  0.00    +0.000 A 
ATOM     10  C   UNL     1       1.142   8.628  20.360  0.00  0.00    +0.000 A 
ATOM     11 CL   UNL     1       0.614   8.319  21.981  0.00  0.00    +0.000 Cl
ATOM     12  C   UNL     1       0.667   9.799  19.749  0.00  0.00    +0.000 A 
ATOM     13  C   UNL     1       1.053  10.113  18.450  0.00  0.00    +0.000 A 
ATOM     14  C   UNL     1       1.903   9.255  17.762  0.00  0.00    +0.000 A 
ATOM     15  C   UNL     1       2.394   8.091  18.372  0.00  0.00    +0.000 A 
ATOM     16 CL   UNL     1       3.542   7.203  17.423  0.00  0.00    +0.000 Cl
ENDBRANCH   7   9
ENDBRANCH   6   7
BRANCH   1  17
ATOM     17  C   UNL     1       4.804   4.691  19.748  0.00  0.00    +0.000 C 
BRANCH  17  19
ATOM     18  O   UNL     1       5.121   3.905  17.451  0.00  0.00    +0.000 OA
ATOM     19  C   UNL     1       5.508   4.550  18.413  0.00  0.00    +0.000 C 
BRANCH  19  20
ATOM     20  O   UNL     1       6.542   5.436  18.382  0.00  0.00    +0.000 OA
BRANCH  20  21
ATOM     21  C   UNL     1       7.666   5.088  17.558  0.00  0.00    +0.000 C 
BRANCH  21  22
ATOM     22  O   UNL     1       7.549   5.878  16.373  0.00  0.00    +0.000 OA
BRANCH  22  23
ATOM     23  N   UNL     1       7.636   5.104  15.195  0.00  0.00    +0.000 NA
ATOM     24  N   UNL     1       6.508   5.216  14.572  0.00  0.00    +0.000 N 
ATOM     25  O   UNL     1       5.514   5.876  15.011  0.00  0.00    +0.000 OA
BRANCH  24  26
ATOM     26  N   UNL     1       6.339   4.601  13.343  0.00  0.00    +0.000 N 
ATOM     27  C   UNL     1       5.189   3.837  12.947  0.00  0.00    +0.000 C 
ATOM     28  C   UNL     1       5.798   2.735  12.087  0.00  0.00    +0.000 C 
ATOM     29  C   UNL     1       6.983   3.414  11.410  0.00  0.00    +0.000 C 
ATOM     30  C   UNL     1       7.449   4.454  12.427  0.00  0.00    +0.000 C 
ENDBRANCH  24  26
ENDBRANCH  22  23
ENDBRANCH  21  22
ENDBRANCH  20  21
ENDBRANCH  19  20
ENDBRANCH  17  19
ENDBRANCH   1  17
TORSDOF 9
ENDMDL
MODEL 2
REMARK VINA RESULT:      -7.8      4.037      6.773
REMARK  Name = 
REMARK  9 active torsions:
REMARK  status: ('A' for Active; 'I' for Inactive)
REMARK    1  A    between atoms: C_2  and  C_3
REMARK    2  A    between atoms: C_2  and  O_19
REMARK    3  A    between atoms: C_3  and  C_4
REMARK    4  A    between atoms: C_9  and  N_10
REMARK    5  A    between atoms: N_10  and  C_11
REMARK    6  A    between atoms: O_19  and  C_20
REMARK    7  A    between atoms: C_20  and  O_21
REMARK    8  A    between atoms: O_21  and  N_22
REMARK    9  A    between atoms: N_23  and  N_25
REMARK                            x       y       z     vdW  Elec       q    Type
REMARK                         _______ _______ _______ _____ _____    ______ ____
ROOT
ATOM      1  C   UNL     1       3.038   7.100  18.113  0.00  0.00    +0.000 A 
ATOM      2  C   UNL     1       2.481   8.301  17.624  0.00  0.00    +0.000 A 
ATOM      3  C   UNL     1       1.686   9.116  18.429  0.00  0.00    +0.000 A 
ATOM      4  C   UNL     1       1.407   8.731  19.732  0.00  0.00    +0.000 A 
ATOM      5  C   UNL     1       1.944   7.549  20.232  0.00  0.00    +0.000 A 
ATOM      6  C   UNL     1       2.816   6.749  19.464  0.00  0.00    +0.000 A 
ENDROOT
BRANCH   6   7
ATOM      7  N   UNL     1       3.378   5.592  20.060  0.00  0.00    +0.000 N 
ATOM      8  H   UNL     1       3.266   5.586  21.070  0.00  0.00    +0.000 HD
BRANCH   7   9
ATOM      9  C   UNL     1       3.249   4.240  19.598  0.00  0.00    +0.000 A 
ATOM     10  C   UNL     1       4.415   3.542  19.201  0.00  0.00    +0.000 A 
ATOM     11 CL   UNL     1       5.951   4.340  19.099  0.00  0.00    +0.000 Cl
ATOM     12  C   UNL     1       4.384   2.179  18.866  0.00  0.00    +0.000 A 
ATOM     13  C   UNL     1       3.186   1.474  18.928  0.00  0.00    +0.000 A 
ATOM     14  C   UNL     1       2.025   2.131  19.315  0.00  0.00    +0.000 A 
ATOM     15  C   UNL     1       2.052   3.490  19.666  0.00  0.00    +0.000 A 
ATOM     16 CL   UNL     1       0.544   4.120  20.248  0.00  0.00    +0.000 Cl
ENDBRANCH   7   9
ENDBRANCH   6   7
BRANCH   1  17
ATOM     17  C   UNL     1       3.781   6.233  17.120  0.00  0.00    +0.000 C 
BRANCH  17  19
ATOM     18  O   UNL     1       5.310   6.813  15.297  0.00  0.00    +0.000 OA
ATOM     19  C   UNL     1       5.043   6.789  16.489  0.00  0.00    +0.000 C 
BRANCH  19  20
ATOM     20  O   UNL     1       5.742   7.455  17.450  0.00  0.00    +0.000 OA
BRANCH  20  21
ATOM     21  C   UNL     1       7.170   7.305  17.430  0.00  0.00    +0.000 C 
BRANCH  21  22
ATOM     22  O   UNL     1       7.707   8.627  17.362  0.00  0.00    +0.000 OA
BRANCH  22  23
ATOM     23  N   UNL     1       8.649   8.883  18.383  0.00  0.00    +0.000 NA
ATOM     24  N   UNL     1       8.816  10.163  18.446  0.00  0.00    +0.000 N 
ATOM     25  O   UNL     1       8.247  10.996  17.671  0.00  0.00    +0.000 OA
BRANCH  24  26
ATOM     26  N   UNL     1       9.651  10.699  19.411  0.00  0.00    +0.000 N 
ATOM     27  C   UNL     1       9.276  10.984  20.769  0.00  0.00    +0.000 C 
ATOM     28  C   UNL     1      10.062  12.255  21.074  0.00  0.00    +0.000 C 
ATOM     29  C   UNL     1      11.350  12.088  20.275  0.00  0.00    +0.000 C 
ATOM     30  C   UNL     1      10.929  11.275  19.053  0.00  0.00    +0.000 C 
ENDBRANCH  24  26
ENDBRANCH  22  23
ENDBRANCH  21  22
ENDBRANCH  20  21
ENDBRANCH  19  20
ENDBRANCH  17  19
ENDBRANCH   1  17
TORSDOF 9
ENDMDL
MODEL 3
REMARK VINA RESULT:      -7.6      5.401      7.457
REMARK  Name = 
REMARK  9 active torsions:
REMARK  status: ('A' for Active; 'I' for Inactive)
REMARK    1  A    between atoms: C_2  and  C_3
REMARK    2  A    between atoms: C_2  and  O_19
REMARK    3  A    between atoms: C_3  and  C_4
REMARK    4  A    between atoms: C_9  and  N_10
REMARK    5  A    between atoms: N_10  and  C_11
REMARK    6  A    between atoms: O_19  and  C_20
REMARK    7  A    between atoms: C_20  and  O_21
REMARK    8  A    between atoms: O_21  and  N_22
REMARK    9  A    between atoms: N_23  and  N_25
REMARK                            x       y       z     vdW  Elec       q    Type
REMARK                         _______ _______ _______ _____ _____    ______ ____
ROOT
ATOM      1  C   UNL     1       6.649   5.535  17.406  0.00  0.00    +0.000 A 
ATOM      2  C   UNL     1       7.049   5.427  16.057  0.00  0.00    +0.000 A 
ATOM      3  C   UNL     1       6.394   4.575  15.168  0.00  0.00    +0.000 A 
ATOM      4  C   UNL     1       5.342   3.792  15.618  0.00  0.00    +0.000 A 
ATOM      5  C   UNL     1       4.934   3.882  16.945  0.00  0.00    +0.000 A 
ATOM      6  C   UNL     1       5.528   4.793  17.843  0.00  0.00    +0.000 A 
ENDROOT
BRANCH   6   7
ATOM      7  N   UNL     1       5.018   4.877  19.163  0.00  0.00    +0.000 N 
ATOM      8  H   UNL     1       5.263   5.753  19.616  0.00  0.00    +0.000 HD
BRANCH   7   9
ATOM      9  C   UNL     1       3.699   4.515  19.598  0.00  0.00    +0.000 A 
ATOM     10  C   UNL     1       3.496   3.230  20.156  0.00  0.00    +0.000 A 
ATOM     11 CL   UNL     1       4.757   2.041  20.163  0.00  0.00    +0.000 Cl
ATOM     12  C   UNL     1       2.267   2.856  20.723  0.00  0.00    +0.000 A 
ATOM     13  C   UNL     1       1.211   3.760  20.756  0.00  0.00    +0.000 A 
ATOM     14  C   UNL     1       1.381   5.030  20.216  0.00  0.00    +0.000 A 
ATOM     15  C   UNL     1       2.611   5.416  19.661  0.00  0.00    +0.000 A 
ATOM     16 CL   UNL     1       2.690   7.071  19.152  0.00  0.00    +0.000 Cl
ENDBRANCH   7   9
ENDBRANCH   6   7
BRANCH   1  17
ATOM     17  C   UNL     1       7.506   6.395  18.310  0.00  0.00    +0.000 C 
BRANCH  17  19
ATOM     18  O   UNL     1       7.077   8.510  17.156  0.00  0.00    +0.000 OA
ATOM     19  C   UNL     1       7.769   7.829  17.895  0.00  0.00    +0.000 C 
BRANCH  19  20
ATOM     20  O   UNL     1       8.794   8.310  18.653  0.00  0.00    +0.000 OA
BRANCH  20  21
ATOM     21  C   UNL     1       8.758   9.710  18.972  0.00  0.00    +0.000 C 
BRANCH  21  22
ATOM     22  O   UNL     1       9.535  10.365  17.969  0.00  0.00    +0.000 OA
BRANCH  22  23
ATOM     23  N   UNL     1       9.371  11.769  17.988  0.00  0.00    +0.000 NA
ATOM     24  N   UNL     1      10.551  12.298  17.960  0.00  0.00    +0.000 N 
ATOM     25  O   UNL     1      11.633  11.629  17.966  0.00  0.00    +0.000 OA
BRANCH  24  26
ATOM     26  N   UNL     1      10.684  13.675  17.910  0.00  0.00    +0.000 N 
ATOM     27  C   UNL     1       9.906  14.614  18.670  0.00  0.00    +0.000 C 
ATOM     28  C   UNL     1       9.743  15.778  17.700  0.00  0.00    +0.000 C 
ATOM     29  C   UNL     1      11.047  15.779  16.909  0.00  0.00    +0.000 C 
ATOM     30  C   UNL     1      11.458  14.309  16.865  0.00  0.00    +0.000 C 
ENDBRANCH  24  26
ENDBRANCH  22  23
ENDBRANCH  21  22
ENDBRANCH  20  21
ENDBRANCH  19  20
ENDBRANCH  17  19
ENDBRANCH   1  17
TORSDOF 9
ENDMDL
MODEL 4
REMARK VINA RESULT:      -7.4      4.875      8.342
REMARK  Name = 
REMARK  9 active torsions:
REMARK  status: ('A' for Active; 'I' for Inactive)
REMARK    1  A    between atoms: C_2  and  C_3
REMARK    2  A    between atoms: C_2  and  O_19
REMARK    3  A    between atoms: C_3  and  C_4
REMARK    4  A    between atoms: C_9  and  N_10
REMARK    5  A    between atoms: N_10  and  C_11
REMARK    6  A    between atoms: O_19  and  C_20
REMARK    7  A    between atoms: C_20  and  O_21
REMARK    8  A    between atoms: O_21  and  N_22
REMARK    9  A    between atoms: N_23  and  N_25
REMARK                            x       y       z     vdW  Elec       q    Type
REMARK                         _______ _______ _______ _____ _____    ______ ____
ROOT
ATOM      1  C   UNL     1       1.821   7.749  19.884  0.00  0.00    +0.000 A 
ATOM      2  C   UNL     1       1.458   8.841  19.067  0.00  0.00    +0.000 A 
ATOM      3  C   UNL     1       2.040   9.040  17.815  0.00  0.00    +0.000 A 
ATOM      4  C   UNL     1       3.019   8.167  17.367  0.00  0.00    +0.000 A 
ATOM      5  C   UNL     1       3.393   7.086  18.158  0.00  0.00    +0.000 A 
ATOM      6  C   UNL     1       2.764   6.818  19.392  0.00  0.00    +0.000 A 
ENDROOT
BRANCH   6   7
ATOM      7  N   UNL     1       3.150   5.661  20.115  0.00  0.00    +0.000 N 
ATOM      8  H   UNL     1       2.764   5.647  21.055  0.00  0.00    +0.000 HD
BRANCH   7   9
ATOM      9  C   UNL     1       3.167   4.311  19.628  0.00  0.00    +0.000 A 
ATOM     10  C   UNL     1       1.966   3.562  19.658  0.00  0.00    +0.000 A 
ATOM     11 CL   UNL     1       0.538   4.180  20.423  0.00  0.00    +0.000 Cl
ATOM     12  C   UNL     1       1.876   2.287  19.079  0.00  0.00    +0.000 A 
ATOM     13  C   UNL     1       2.981   1.729  18.445  0.00  0.00    +0.000 A 
ATOM     14  C   UNL     1       4.174   2.440  18.399  0.00  0.00    +0.000 A 
ATOM     15  C   UNL     1       4.268   3.723  18.963  0.00  0.00    +0.000 A 
ATOM     16 CL   UNL     1       5.785   4.521  18.704  0.00  0.00    +0.000 Cl
ENDBRANCH   7   9
ENDBRANCH   6   7
BRANCH   1  17
ATOM     17  C   UNL     1       1.219   7.699  21.271  0.00  0.00    +0.000 C 
BRANCH  17  19
ATOM     18  O   UNL     1       2.000   9.610  22.588  0.00  0.00    +0.000 OA
ATOM     19  C   UNL     1       1.094   8.997  22.045  0.00  0.00    +0.000 C 
BRANCH  19  20
ATOM     20  O   UNL     1      -0.163   9.485  21.856  0.00  0.00    +0.000 OA
BRANCH  20  21
ATOM     21  C   UNL     1      -0.323  10.909  21.951  0.00  0.00    +0.000 C 
BRANCH  21  22
ATOM     22  O   UNL     1      -0.385  11.393  20.609  0.00  0.00    +0.000 OA
BRANCH  22  23
ATOM     23  N   UNL     1      -1.333  10.696  19.825  0.00  0.00    +0.000 NA
ATOM     24  N   UNL     1      -1.530  11.386  18.749  0.00  0.00    +0.000 N 
ATOM     25  O   UNL     1      -0.981  12.509  18.511  0.00  0.00    +0.000 OA
BRANCH  24  26
ATOM     26  N   UNL     1      -2.375  10.899  17.767  0.00  0.00    +0.000 N 
ATOM     27  C   UNL     1      -2.012   9.949  16.753  0.00  0.00    +0.000 C 
ATOM     28  C   UNL     1      -2.812  10.424  15.545  0.00  0.00    +0.000 C 
ATOM     29  C   UNL     1      -4.094  10.983  16.154  0.00  0.00    +0.000 C 
ATOM     30  C   UNL     1      -3.657  11.521  17.514  0.00  0.00    +0.000 C 
ENDBRANCH  24  26
ENDBRANCH  22  23
ENDBRANCH  21  22
ENDBRANCH  20  21
ENDBRANCH  19  20
ENDBRANCH  17  19
ENDBRANCH   1  17
TORSDOF 9
ENDMDL
MODEL 5
REMARK VINA RESULT:      -7.4      5.142      8.609
REMARK  Name = 
REMARK  9 active torsions:
REMARK  status: ('A' for Active; 'I' for Inactive)
REMARK    1  A    between atoms: C_2  and  C_3
REMARK    2  A    between atoms: C_2  and  O_19
REMARK    3  A    between atoms: C_3  and  C_4
REMARK    4  A    between atoms: C_9  and  N_10
REMARK    5  A    between atoms: N_10  and  C_11
REMARK    6  A    between atoms: O_19  and  C_20
REMARK    7  A    between atoms: C_20  and  O_21
REMARK    8  A    between atoms: O_21  and  N_22
REMARK    9  A    between atoms: N_23  and  N_25
REMARK                            x       y       z     vdW  Elec       q    Type
REMARK                         _______ _______ _______ _____ _____    ______ ____
ROOT
ATOM      1  C   UNL     1       1.728   8.190  20.111  0.00  0.00    +0.000 A 
ATOM      2  C   UNL     1       1.232   9.225  19.289  0.00  0.00    +0.000 A 
ATOM      3  C   UNL     1       1.531   9.281  17.928  0.00  0.00    +0.000 A 
ATOM      4  C   UNL     1       2.355   8.319  17.366  0.00  0.00    +0.000 A 
ATOM      5  C   UNL     1       2.856   7.291  18.159  0.00  0.00    +0.000 A 
ATOM      6  C   UNL     1       2.505   7.168  19.520  0.00  0.00    +0.000 A 
ENDROOT
BRANCH   6   7
ATOM      7  N   UNL     1       3.000   6.059  20.252  0.00  0.00    +0.000 N 
ATOM      8  H   UNL     1       2.599   6.002  21.184  0.00  0.00    +0.000 HD
BRANCH   7   9
ATOM      9  C   UNL     1       3.171   4.719  19.767  0.00  0.00    +0.000 A 
ATOM     10  C   UNL     1       4.465   4.297  19.376  0.00  0.00    +0.000 A 
ATOM     11 CL   UNL     1       5.793   5.409  19.308  0.00  0.00    +0.000 Cl
ATOM     12  C   UNL     1       4.732   2.966  19.020  0.00  0.00    +0.000 A 
ATOM     13  C   UNL     1       3.715   2.018  19.055  0.00  0.00    +0.000 A 
ATOM     14  C   UNL     1       2.435   2.401  19.435  0.00  0.00    +0.000 A 
ATOM     15  C   UNL     1       2.164   3.727  19.808  0.00  0.00    +0.000 A 
ATOM     16 CL   UNL     1       0.550   4.006  20.378  0.00  0.00    +0.000 Cl
ENDBRANCH   7   9
ENDBRANCH   6   7
BRANCH   1  17
ATOM     17  C   UNL     1       1.444   8.295  21.594  0.00  0.00    +0.000 C 
BRANCH  17  19
ATOM     18  O   UNL     1      -0.850   8.585  22.396  0.00  0.00    +0.000 OA
ATOM     19  C   UNL     1       0.214   9.063  22.034  0.00  0.00    +0.000 C 
BRANCH  19  20
ATOM     20  O   UNL     1       0.556  10.374  22.168  0.00  0.00    +0.000 OA
BRANCH  20  21
ATOM     21  C   UNL     1      -0.524  11.317  22.253  0.00  0.00    +0.000 C 
BRANCH  21  22
ATOM     22  O   UNL     1      -0.652  11.894  20.953  0.00  0.00    +0.000 OA
BRANCH  22  23
ATOM     23  N   UNL     1      -1.723  11.340  20.217  0.00  0.00    +0.000 NA
ATOM     24  N   UNL     1      -1.477  11.538  18.963  0.00  0.00    +0.000 N 
ATOM     25  O   UNL     1      -0.463  12.170  18.527  0.00  0.00    +0.000 OA
BRANCH  24  26
ATOM     26  N   UNL     1      -2.344  11.039  18.007  0.00  0.00    +0.000 N 
ATOM     27  C   UNL     1      -1.989  10.117  16.963  0.00  0.00    +0.000 C 
ATOM     28  C   UNL     1      -2.852  10.584  15.795  0.00  0.00    +0.000 C 
ATOM     29  C   UNL     1      -4.126  11.090  16.462  0.00  0.00    +0.000 C 
ATOM     30  C   UNL     1      -3.655  11.621  17.814  0.00  0.00    +0.000 C 
ENDBRANCH  24  26
ENDBRANCH  22  23
ENDBRANCH  21  22
ENDBRANCH  20  21
ENDBRANCH  19  20
ENDBRANCH  17  19
ENDBRANCH   1  17
TORSDOF 9
ENDMDL
MODEL 6
REMARK VINA RESULT:      -7.3      0.921      1.216
REMARK  Name = 
REMARK  9 active torsions:
REMARK  status: ('A' for Active; 'I' for Inactive)
REMARK    1  A    between atoms: C_2  and  C_3
REMARK    2  A    between atoms: C_2  and  O_19
REMARK    3  A    between atoms: C_3  and  C_4
REMARK    4  A    between atoms: C_9  and  N_10
REMARK    5  A    between atoms: N_10  and  C_11
REMARK    6  A    between atoms: O_19  and  C_20
REMARK    7  A    between atoms: C_20  and  O_21
REMARK    8  A    between atoms: O_21  and  N_22
REMARK    9  A    between atoms: N_23  and  N_25
REMARK                            x       y       z     vdW  Elec       q    Type
REMARK                         _______ _______ _______ _____ _____    ______ ____
ROOT
ATOM      1  C   UNL     1       2.964   4.627  18.889  0.00  0.00    +0.000 A 
ATOM      2  C   UNL     1       2.495   3.313  18.674  0.00  0.00    +0.000 A 
ATOM      3  C   UNL     1       1.405   2.804  19.379  0.00  0.00    +0.000 A 
ATOM      4  C   UNL     1       0.778   3.589  20.334  0.00  0.00    +0.000 A 
ATOM      5  C   UNL     1       1.227   4.886  20.563  0.00  0.00    +0.000 A 
ATOM      6  C   UNL     1       2.276   5.452  19.808  0.00  0.00    +0.000 A 
ENDROOT
BRANCH   6   7
ATOM      7  N   UNL     1       2.637   6.801  20.050  0.00  0.00    +0.000 N 
ATOM      8  H   UNL     1       3.639   6.950  19.978  0.00  0.00    +0.000 HD
BRANCH   7   9
ATOM      9  C   UNL     1       1.983   7.970  19.535  0.00  0.00    +0.000 A 
ATOM     10  C   UNL     1       1.201   8.756  20.416  0.00  0.00    +0.000 A 
ATOM     11 CL   UNL     1       0.884   8.242  22.041  0.00  0.00    +0.000 Cl
ATOM     12  C   UNL     1       0.643   9.981  20.017  0.00  0.00    +0.000 A 
ATOM     13  C   UNL     1       0.860  10.458  18.729  0.00  0.00    +0.000 A 
ATOM     14  C   UNL     1       1.623   9.709  17.841  0.00  0.00    +0.000 A 
ATOM     15  C   UNL     1       2.197   8.491  18.238  0.00  0.00    +0.000 A 
ATOM     16 CL   UNL     1       3.223   7.751  17.053  0.00  0.00    +0.000 Cl
ENDBRANCH   7   9
ENDBRANCH   6   7
BRANCH   1  17
ATOM     17  C   UNL     1       4.227   5.034  18.161  0.00  0.00    +0.000 C 
BRANCH  17  19
ATOM     18  O   UNL     1       5.950   3.767  19.353  0.00  0.00    +0.000 OA
ATOM     19  C   UNL     1       5.556   4.810  18.855  0.00  0.00    +0.000 C 
BRANCH  19  20
ATOM     20  O   UNL     1       6.336   5.908  18.646  0.00  0.00    +0.000 OA
BRANCH  20  21
ATOM     21  C   UNL     1       6.637   6.234  17.280  0.00  0.00    +0.000 C 
BRANCH  21  22
ATOM     22  O   UNL     1       7.443   5.164  16.785  0.00  0.00    +0.000 OA
BRANCH  22  23
ATOM     23  N   UNL     1       6.747   4.338  15.874  0.00  0.00    +0.000 NA
ATOM     24  N   UNL     1       7.104   4.687  14.681  0.00  0.00    +0.000 N 
ATOM     25  O   UNL     1       7.904   5.643  14.428  0.00  0.00    +0.000 OA
BRANCH  24  26
ATOM     26  N   UNL     1       6.614   3.995  13.588  0.00  0.00    +0.000 N 
ATOM     27  C   UNL     1       7.287   3.849  12.326  0.00  0.00    +0.000 C 
ATOM     28  C   UNL     1       6.136   3.886  11.326  0.00  0.00    +0.000 C 
ATOM     29  C   UNL     1       4.985   3.218  12.070  0.00  0.00    +0.000 C 
ATOM     30  C   UNL     1       5.233   3.569  13.535  0.00  0.00    +0.000 C 
ENDBRANCH  24  26
ENDBRANCH  22  23
ENDBRANCH  21  22
ENDBRANCH  20  21
ENDBRANCH  19  20
ENDBRANCH  17  19
ENDBRANCH   1  17
TORSDOF 9
ENDMDL
MODEL 7
REMARK VINA RESULT:      -7.3      5.108      8.634
REMARK  Name = 
REMARK  9 active torsions:
REMARK  status: ('A' for Active; 'I' for Inactive)
REMARK    1  A    between atoms: C_2  and  C_3
REMARK    2  A    between atoms: C_2  and  O_19
REMARK    3  A    between atoms: C_3  and  C_4
REMARK    4  A    between atoms: C_9  and  N_10
REMARK    5  A    between atoms: N_10  and  C_11
REMARK    6  A    between atoms: O_19  and  C_20
REMARK    7  A    between atoms: C_20  and  O_21
REMARK    8  A    between atoms: O_21  and  N_22
REMARK    9  A    between atoms: N_23  and  N_25
REMARK                            x       y       z     vdW  Elec       q    Type
REMARK                         _______ _______ _______ _____ _____    ______ ____
ROOT
ATOM      1  C   UNL     1       1.797   8.047  20.108  0.00  0.00    +0.000 A 
ATOM      2  C   UNL     1       1.347   9.080  19.258  0.00  0.00    +0.000 A 
ATOM      3  C   UNL     1       1.684   9.109  17.905  0.00  0.00    +0.000 A 
ATOM      4  C   UNL     1       2.502   8.121  17.380  0.00  0.00    +0.000 A 
ATOM      5  C   UNL     1       2.958   7.095  18.202  0.00  0.00    +0.000 A 
ATOM      6  C   UNL     1       2.567   6.999  19.554  0.00  0.00    +0.000 A 
ENDROOT
BRANCH   6   7
ATOM      7  N   UNL     1       3.018   5.891  20.314  0.00  0.00    +0.000 N 
ATOM      8  H   UNL     1       2.534   5.812  21.205  0.00  0.00    +0.000 HD
BRANCH   7   9
ATOM      9  C   UNL     1       3.263   4.562  19.832  0.00  0.00    +0.000 A 
ATOM     10  C   UNL     1       2.174   3.664  19.725  0.00  0.00    +0.000 A 
ATOM     11 CL   UNL     1       0.601   4.081  20.325  0.00  0.00    +0.000 Cl
ATOM     12  C   UNL     1       2.314   2.397  19.139  0.00  0.00    +0.000 A 
ATOM     13  C   UNL     1       3.546   1.996  18.633  0.00  0.00    +0.000 A 
ATOM     14  C   UNL     1       4.635   2.856  18.722  0.00  0.00    +0.000 A 
ATOM     15  C   UNL     1       4.498   4.130  19.294  0.00  0.00    +0.000 A 
ATOM     16 CL   UNL     1       5.919   5.121  19.208  0.00  0.00    +0.000 Cl
ENDBRANCH   7   9
ENDBRANCH   6   7
BRANCH   1  17
ATOM     17  C   UNL     1       1.476   8.180  21.581  0.00  0.00    +0.000 C 
BRANCH  17  19
ATOM     18  O   UNL     1      -0.892   8.495  22.119  0.00  0.00    +0.000 OA
ATOM     19  C   UNL     1       0.232   8.951  21.975  0.00  0.00    +0.000 C 
BRANCH  19  20
ATOM     20  O   UNL     1       0.610  10.204  22.353  0.00  0.00    +0.000 OA
BRANCH  20  21
ATOM     21  C   UNL     1      -0.318  11.267  22.083  0.00  0.00    +0.000 C 
BRANCH  21  22
ATOM     22  O   UNL     1      -0.288  11.471  20.670  0.00  0.00    +0.000 OA
BRANCH  22  23
ATOM     23  N   UNL     1      -1.549  11.267  20.066  0.00  0.00    +0.000 NA
ATOM     24  N   UNL     1      -1.517  11.827  18.901  0.00  0.00    +0.000 N 
ATOM     25  O   UNL     1      -0.521  12.476  18.449  0.00  0.00    +0.000 OA
BRANCH  24  26
ATOM     26  N   UNL     1      -2.613  11.726  18.061  0.00  0.00    +0.000 N 
ATOM     27  C   UNL     1      -3.985  11.863  18.465  0.00  0.00    +0.000 C 
ATOM     28  C   UNL     1      -4.699  10.851  17.577  0.00  0.00    +0.000 C 
ATOM     29  C   UNL     1      -3.902  10.879  16.277  0.00  0.00    +0.000 C 
ATOM     30  C   UNL     1      -2.477  11.199  16.721  0.00  0.00    +0.000 C 
ENDBRANCH  24  26
ENDBRANCH  22  23
ENDBRANCH  21  22
ENDBRANCH  20  21
ENDBRANCH  19  20
ENDBRANCH  17  19
ENDBRANCH   1  17
TORSDOF 9
ENDMDL
MODEL 8
REMARK VINA RESULT:      -7.3      2.832      4.302
REMARK  Name = 
REMARK  9 active torsions:
REMARK  status: ('A' for Active; 'I' for Inactive)
REMARK    1  A    between atoms: C_2  and  C_3
REMARK    2  A    between atoms: C_2  and  O_19
REMARK    3  A    between atoms: C_3  and  C_4
REMARK    4  A    between atoms: C_9  and  N_10
REMARK    5  A    between atoms: N_10  and  C_11
REMARK    6  A    between atoms: O_19  and  C_20
REMARK    7  A    between atoms: C_20  and  O_21
REMARK    8  A    between atoms: O_21  and  N_22
REMARK    9  A    between atoms: N_23  and  N_25
REMARK                            x       y       z     vdW  Elec       q    Type
REMARK                         _______ _______ _______ _____ _____    ______ ____
ROOT
ATOM      1  C   UNL     1       2.994   4.694  18.837  0.00  0.00    +0.000 A 
ATOM      2  C   UNL     1       2.571   3.363  18.631  0.00  0.00    +0.000 A 
ATOM      3  C   UNL     1       1.575   2.785  19.418  0.00  0.00    +0.000 A 
ATOM      4  C   UNL     1       1.001   3.517  20.446  0.00  0.00    +0.000 A 
ATOM      5  C   UNL     1       1.405   4.830  20.667  0.00  0.00    +0.000 A 
ATOM      6  C   UNL     1       2.353   5.463  19.836  0.00  0.00    +0.000 A 
ENDROOT
BRANCH   6   7
ATOM      7  N   UNL     1       2.670   6.823  20.080  0.00  0.00    +0.000 N 
ATOM      8  H   UNL     1       3.671   6.996  20.051  0.00  0.00    +0.000 HD
BRANCH   7   9
ATOM      9  C   UNL     1       2.011   7.970  19.525  0.00  0.00    +0.000 A 
ATOM     10  C   UNL     1       1.142   8.722  20.352  0.00  0.00    +0.000 A 
ATOM     11 CL   UNL     1       0.730   8.186  21.949  0.00  0.00    +0.000 Cl
ATOM     12  C   UNL     1       0.568   9.928  19.920  0.00  0.00    +0.000 A 
ATOM     13  C   UNL     1       0.857  10.420  18.651  0.00  0.00    +0.000 A 
ATOM     14  C   UNL     1       1.707   9.705  17.816  0.00  0.00    +0.000 A 
ATOM     15  C   UNL     1       2.296   8.507  18.248  0.00  0.00    +0.000 A 
ATOM     16 CL   UNL     1       3.429   7.812  17.135  0.00  0.00    +0.000 Cl
ENDBRANCH   7   9
ENDBRANCH   6   7
BRANCH   1  17
ATOM     17  C   UNL     1       4.165   5.179  18.010  0.00  0.00    +0.000 C 
BRANCH  17  19
ATOM     18  O   UNL     1       5.171   3.482  16.560  0.00  0.00    +0.000 OA
ATOM     19  C   UNL     1       5.202   4.163  17.574  0.00  0.00    +0.000 C 
BRANCH  19  20
ATOM     20  O   UNL     1       6.286   4.285  18.389  0.00  0.00    +0.000 OA
BRANCH  20  21
ATOM     21  C   UNL     1       6.573   5.599  18.890  0.00  0.00    +0.000 C 
BRANCH  21  22
ATOM     22  O   UNL     1       7.787   6.009  18.260  0.00  0.00    +0.000 OA
BRANCH  22  23
ATOM     23  N   UNL     1       8.331   7.178  18.838  0.00  0.00    +0.000 NA
ATOM     24  N   UNL     1       8.075   8.162  18.040  0.00  0.00    +0.000 N 
ATOM     25  O   UNL     1       7.480   8.038  16.923  0.00  0.00    +0.000 OA
BRANCH  24  26
ATOM     26  N   UNL     1       8.446   9.447  18.395  0.00  0.00    +0.000 N 
ATOM     27  C   UNL     1       8.235  10.624  17.597  0.00  0.00    +0.000 C 
ATOM     28  C   UNL     1       9.481  11.453  17.886  0.00  0.00    +0.000 C 
ATOM     29  C   UNL     1       9.811  11.124  19.337  0.00  0.00    +0.000 C 
ATOM     30  C   UNL     1       9.336   9.683  19.511  0.00  0.00    +0.000 C 
ENDBRANCH  24  26
ENDBRANCH  22  23
ENDBRANCH  21  22
ENDBRANCH  20  21
ENDBRANCH  19  20
ENDBRANCH  17  19
ENDBRANCH   1  17
TORSDOF 9
ENDMDL
MODEL 9
REMARK VINA RESULT:      -7.2      4.336      7.935
REMARK  Name = 
REMARK  9 active torsions:
REMARK  status: ('A' for Active; 'I' for Inactive)
REMARK    1  A    between atoms: C_2  and  C_3
REMARK    2  A    between atoms: C_2  and  O_19
REMARK    3  A    between atoms: C_3  and  C_4
REMARK    4  A    between atoms: C_9  and  N_10
REMARK    5  A    between atoms: N_10  and  C_11
REMARK    6  A    between atoms: O_19  and  C_20
REMARK    7  A    between atoms: C_20  and  O_21
REMARK    8  A    between atoms: O_21  and  N_22
REMARK    9  A    between atoms: N_23  and  N_25
REMARK                            x       y       z     vdW  Elec       q    Type
REMARK                         _______ _______ _______ _____ _____    ______ ____
ROOT
ATOM      1  C   UNL     1       2.411   5.532  20.047  0.00  0.00    +0.000 A 
ATOM      2  C   UNL     1       1.244   4.942  20.579  0.00  0.00    +0.000 A 
ATOM      3  C   UNL     1       1.193   3.585  20.895  0.00  0.00    +0.000 A 
ATOM      4  C   UNL     1       2.299   2.783  20.661  0.00  0.00    +0.000 A 
ATOM      5  C   UNL     1       3.459   3.344  20.135  0.00  0.00    +0.000 A 
ATOM      6  C   UNL     1       3.562   4.728  19.881  0.00  0.00    +0.000 A 
ENDROOT
BRANCH   6   7
ATOM      7  N   UNL     1       4.796   5.241  19.407  0.00  0.00    +0.000 N 
ATOM      8  H   UNL     1       5.535   5.170  20.101  0.00  0.00    +0.000 HD
BRANCH   7   9
ATOM      9  C   UNL     1       5.383   5.009  18.119  0.00  0.00    +0.000 A 
ATOM     10  C   UNL     1       6.787   5.129  17.979  0.00  0.00    +0.000 A 
ATOM     11 CL   UNL     1       7.775   5.714  19.278  0.00  0.00    +0.000 Cl
ATOM     12  C   UNL     1       7.444   4.789  16.786  0.00  0.00    +0.000 A 
ATOM     13  C   UNL     1       6.715   4.309  15.702  0.00  0.00    +0.000 A 
ATOM     14  C   UNL     1       5.335   4.179  15.809  0.00  0.00    +0.000 A 
ATOM     15  C   UNL     1       4.674   4.503  17.004  0.00  0.00    +0.000 A 
ATOM     16 CL   UNL     1       2.974   4.161  17.010  0.00  0.00    +0.000 Cl
ENDBRANCH   7   9
ENDBRANCH   6   7
BRANCH   1  17
ATOM     17  C   UNL     1       2.318   6.982  19.625  0.00  0.00    +0.000 C 
BRANCH  17  19
ATOM     18  O   UNL     1       1.648   7.990  21.753  0.00  0.00    +0.000 OA
ATOM     19  C   UNL     1       1.581   7.945  20.534  0.00  0.00    +0.000 C 
BRANCH  19  20
ATOM     20  O   UNL     1       0.995   8.899  19.758  0.00  0.00    +0.000 OA
BRANCH  20  21
ATOM     21  C   UNL     1       1.074  10.253  20.229  0.00  0.00    +0.000 C 
BRANCH  21  22
ATOM     22  O   UNL     1       0.718  11.080  19.120  0.00  0.00    +0.000 OA
BRANCH  22  23
ATOM     23  N   UNL     1      -0.243  10.476  18.279  0.00  0.00    +0.000 NA
ATOM     24  N   UNL     1      -1.320  11.189  18.344  0.00  0.00    +0.000 N 
ATOM     25  O   UNL     1      -1.453  12.213  19.086  0.00  0.00    +0.000 OA
BRANCH  24  26
ATOM     26  N   UNL     1      -2.413  10.854  17.563  0.00  0.00    +0.000 N 
ATOM     27  C   UNL     1      -2.368  10.055  16.370  0.00  0.00    +0.000 C 
ATOM     28  C   UNL     1      -3.432  10.703  15.492  0.00  0.00    +0.000 C 
ATOM     29  C   UNL     1      -4.485  11.180  16.486  0.00  0.00    +0.000 C 
ATOM     30  C   UNL     1      -3.687  11.515  17.744  0.00  0.00    +0.000 C 
ENDBRANCH  24  26
ENDBRANCH  22  23
ENDBRANCH  21  22
ENDBRANCH  20  21
ENDBRANCH  19  20
ENDBRANCH  17  19
ENDBRANCH   1  17
TORSDOF 9
ENDMDL
