MODEL 1
REMARK VINA RESULT:      -7.8      0.000      0.000
REMARK  Name = 
REMARK  6 active torsions:
REMARK  status: ('A' for Active; 'I' for Inactive)
REMARK    1  A    between atoms: C_1  and  C_2
REMARK    2  A    between atoms: C_5  and  C_6
REMARK    3  A    between atoms: N_8  and  C_9
REMARK    4  A    between atoms: C_9  and  C_10
REMARK    5  A    between atoms: N_12  and  C_13
REMARK    6  A    between atoms: C_13  and  C_14
REMARK                            x       y       z     vdW  Elec       q    Type
REMARK                         _______ _______ _______ _____ _____    ______ ____
ROOT
ATOM      1  C   UNL     1       2.631   6.073  18.744  0.00  0.00    +0.000 C 
ATOM      2  N   UNL     1       3.858   5.749  19.025  0.00  0.00    +0.000 NA
ATOM      3  N   UNL     1       4.278   4.451  18.809  0.00  0.00    +0.000 N 
ATOM      4  C   UNL     1       3.632   3.574  17.944  0.00  0.00    +0.000 C 
ATOM      5  O   UNL     1       4.141   2.528  17.541  0.00  0.00    +0.000 OA
ATOM      6  C   UNL     1       2.267   3.982  17.457  0.00  0.00    +0.000 C 
ATOM      7  C   UNL     1       1.619   5.049  18.298  0.00  0.00    +0.000 C 
ENDROOT
BRANCH   1  12
ATOM      8  C   UNL     1       0.595  11.489  19.248  0.00  0.00    +0.000 C 
ATOM      9  C   UNL     1       1.172  10.111  19.115  0.00  0.00    +0.000 A 
ATOM     10  C   UNL     1       1.704   9.653  17.903  0.00  0.00    +0.000 A 
ATOM     11  C   UNL     1       2.205   8.353  17.792  0.00  0.00    +0.000 A 
ATOM     12  C   UNL     1       2.177   7.491  18.893  0.00  0.00    +0.000 A 
ATOM     13  C   UNL     1       1.678   7.957  20.114  0.00  0.00    +0.000 A 
ATOM     14  C   UNL     1       1.174   9.255  20.222  0.00  0.00    +0.000 A 
ENDBRANCH   1  12
BRANCH   3  15
ATOM     15  C   UNL     1       5.683   4.175  19.125  0.00  0.00    +0.000 C 
BRANCH  15  16
ATOM     16  C   UNL     1       6.704   4.695  18.106  0.00  0.00    +0.000 C 
ATOM     17  O   UNL     1       7.915   4.568  18.296  0.00  0.00    +0.000 OA
ATOM     18  N   UNL     1       6.195   5.136  16.903  0.00  0.00    +0.000 N 
ATOM     19  H   UNL     1       5.195   5.264  16.827  0.00  0.00    +0.000 HD
BRANCH  18  20
ATOM     20  C   UNL     1       7.057   5.596  15.835  0.00  0.00    +0.000 C 
BRANCH  20  21
ATOM     21  C   UNL     1       6.770   4.902  14.537  0.00  0.00    +0.000 A 
ATOM     22  C   UNL     1       5.642   4.093  14.376  0.00  0.00    +0.000 A 
ATOM     23  C   UNL     1       5.414   3.455  13.161  0.00  0.00    +0.000 A 
ATOM     24  C   UNL     1       6.330   3.643  12.140  0.00  0.00    +0.000 A 
ATOM     25  N   UNL     1       7.433   4.415  12.254  0.00  0.00    +0.000 NA
ATOM     26  C   UNL     1       7.627   5.021  13.448  0.00  0.00    +0.000 A 
ENDBRANCH  20  21
ENDBRANCH  18  20
ENDBRANCH  15  16
ENDBRANCH   3  15
TORSDOF 5
ENDMDL
MODEL 2
REMARK VINA RESULT:      -7.8      2.425      3.493
REMARK  Name = 
REMARK  6 active torsions:
REMARK  status: ('A' for Active; 'I' for Inactive)
REMARK    1  A    between atoms: C_1  and  C_2
REMARK    2  A    between atoms: C_5  and  C_6
REMARK    3  A    between atoms: N_8  and  C_9
REMARK    4  A    between atoms: C_9  and  C_10
REMARK    5  A    between atoms: N_12  and  C_13
REMARK    6  A    between atoms: C_13  and  C_14
REMARK                            x       y       z     vdW  Elec       q    Type
REMARK                         _______ _______ _______ _____ _____    ______ ____
ROOT
ATOM      1  C   UNL     1       2.186   6.033  19.410  0.00  0.00    +0.000 C 
ATOM      2  N   UNL     1       2.676   5.389  18.393  0.00  0.00    +0.000 NA
ATOM      3  N   UNL     1       2.919   4.034  18.508  0.00  0.00    +0.000 N 
ATOM      4  C   UNL     1       2.311   3.228  19.465  0.00  0.00    +0.000 C 
ATOM      5  O   UNL     1       2.307   1.998  19.406  0.00  0.00    +0.000 OA
ATOM      6  C   UNL     1       1.587   3.929  20.583  0.00  0.00    +0.000 C 
ATOM      7  C   UNL     1       1.983   5.371  20.749  0.00  0.00    +0.000 C 
ENDROOT
BRANCH   1  12
ATOM      8  C   UNL     1       1.123  11.727  18.988  0.00  0.00    +0.000 C 
ATOM      9  C   UNL     1       1.343  10.247  19.101  0.00  0.00    +0.000 A 
ATOM     10  C   UNL     1       1.131   9.564  20.304  0.00  0.00    +0.000 A 
ATOM     11  C   UNL     1       1.375   8.191  20.396  0.00  0.00    +0.000 A 
ATOM     12  C   UNL     1       1.840   7.483  19.282  0.00  0.00    +0.000 A 
ATOM     13  C   UNL     1       2.021   8.157  18.070  0.00  0.00    +0.000 A 
ATOM     14  C   UNL     1       1.780   9.529  17.982  0.00  0.00    +0.000 A 
ENDBRANCH   1  12
BRANCH   3  15
ATOM     15  C   UNL     1       3.444   3.376  17.307  0.00  0.00    +0.000 C 
BRANCH  15  16
ATOM     16  C   UNL     1       4.934   3.604  17.026  0.00  0.00    +0.000 C 
ATOM     17  O   UNL     1       5.392   3.493  15.887  0.00  0.00    +0.000 OA
ATOM     18  N   UNL     1       5.680   4.115  18.067  0.00  0.00    +0.000 N 
ATOM     19  H   UNL     1       5.262   4.135  18.987  0.00  0.00    +0.000 HD
BRANCH  18  20
ATOM     20  C   UNL     1       7.084   4.430  17.914  0.00  0.00    +0.000 C 
BRANCH  20  21
ATOM     21  C   UNL     1       7.331   5.909  17.868  0.00  0.00    +0.000 A 
ATOM     22  C   UNL     1       8.204   6.531  18.764  0.00  0.00    +0.000 A 
ATOM     23  C   UNL     1       8.399   7.907  18.699  0.00  0.00    +0.000 A 
ATOM     24  C   UNL     1       7.706   8.623  17.738  0.00  0.00    +0.000 A 
ATOM     25  N   UNL     1       6.852   8.060  16.855  0.00  0.00    +0.000 NA
ATOM     26  C   UNL     1       6.683   6.722  16.944  0.00  0.00    +0.000 A 
ENDBRANCH  20  21
ENDBRANCH  18  20
ENDBRANCH  15  16
ENDBRANCH   3  15
TORSDOF 5
ENDMDL
MODEL 3
REMARK VINA RESULT:      -7.7      4.558      7.330
REMARK  Name = 
REMARK  6 active torsions:
REMARK  status: ('A' for Active; 'I' for Inactive)
REMARK    1  A    between atoms: C_1  and  C_2
REMARK    2  A    between atoms: C_5  and  C_6
REMARK    3  A    between atoms: N_8  and  C_9
REMARK    4  A    between atoms: C_9  and  C_10
REMARK    5  A    between atoms: N_12  and  C_13
REMARK    6  A    between atoms: C_13  and  C_14
REMARK                            x       y       z     vdW  Elec       q    Type
REMARK                         _______ _______ _______ _____ _____    ______ ____
ROOT
ATOM      1  C   UNL     1      -1.486  10.889  19.322  0.00  0.00    +0.000 C 
ATOM      2  N   UNL     1      -0.669   9.978  19.761  0.00  0.00    +0.000 NA
ATOM      3  N   UNL     1      -0.073  10.147  20.996  0.00  0.00    +0.000 N 
ATOM      4  C   UNL     1      -0.579  10.993  21.978  0.00  0.00    +0.000 C 
ATOM      5  O   UNL     1      -0.222  10.946  23.155  0.00  0.00    +0.000 OA
ATOM      6  C   UNL     1      -1.651  11.962  21.555  0.00  0.00    +0.000 C 
ATOM      7  C   UNL     1      -1.715  12.180  20.067  0.00  0.00    +0.000 C 
ENDROOT
BRANCH   1  12
ATOM      8  C   UNL     1      -4.112  10.333  14.172  0.00  0.00    +0.000 C 
ATOM      9  C   UNL     1      -3.476  10.449  15.525  0.00  0.00    +0.000 A 
ATOM     10  C   UNL     1      -4.004  11.288  16.514  0.00  0.00    +0.000 A 
ATOM     11  C   UNL     1      -3.375  11.407  17.757  0.00  0.00    +0.000 A 
ATOM     12  C   UNL     1      -2.205  10.689  18.025  0.00  0.00    +0.000 A 
ATOM     13  C   UNL     1      -1.694   9.825  17.052  0.00  0.00    +0.000 A 
ATOM     14  C   UNL     1      -2.321   9.710  15.809  0.00  0.00    +0.000 A 
ENDBRANCH   1  12
BRANCH   3  15
ATOM     15  C   UNL     1       0.812   9.061  21.430  0.00  0.00    +0.000 C 
BRANCH  15  16
ATOM     16  C   UNL     1       1.521   8.297  20.306  0.00  0.00    +0.000 C 
ATOM     17  O   UNL     1       1.791   8.845  19.236  0.00  0.00    +0.000 OA
ATOM     18  N   UNL     1       1.997   7.044  20.627  0.00  0.00    +0.000 N 
ATOM     19  H   UNL     1       1.700   6.630  21.500  0.00  0.00    +0.000 HD
BRANCH  18  20
ATOM     20  C   UNL     1       2.736   6.244  19.673  0.00  0.00    +0.000 C 
BRANCH  20  21
ATOM     21  C   UNL     1       2.063   4.933  19.392  0.00  0.00    +0.000 A 
ATOM     22  C   UNL     1       1.380   4.235  20.391  0.00  0.00    +0.000 A 
ATOM     23  C   UNL     1       0.778   3.016  20.097  0.00  0.00    +0.000 A 
ATOM     24  C   UNL     1       0.884   2.527  18.806  0.00  0.00    +0.000 A 
ATOM     25  N   UNL     1       1.536   3.169  17.812  0.00  0.00    +0.000 NA
ATOM     26  C   UNL     1       2.112   4.351  18.130  0.00  0.00    +0.000 A 
ENDBRANCH  20  21
ENDBRANCH  18  20
ENDBRANCH  15  16
ENDBRANCH   3  15
TORSDOF 5
ENDMDL
MODEL 4
REMARK VINA RESULT:      -7.7      1.256      1.612
REMARK  Name = 
REMARK  6 active torsions:
REMARK  status: ('A' for Active; 'I' for Inactive)
REMARK    1  A    between atoms: C_1  and  C_2
REMARK    2  A    between atoms: C_5  and  C_6
REMARK    3  A    between atoms: N_8  and  C_9
REMARK    4  A    between atoms: C_9  and  C_10
REMARK    5  A    between atoms: N_12  and  C_13
REMARK    6  A    between atoms: C_13  and  C_14
REMARK                            x       y       z     vdW  Elec       q    Type
REMARK                         _______ _______ _______ _____ _____    ______ ____
ROOT
ATOM      1  C   UNL     1       2.353   5.898  19.830  0.00  0.00    +0.000 C 
ATOM      2  N   UNL     1       3.420   5.329  19.352  0.00  0.00    +0.000 NA
ATOM      3  N   UNL     1       3.653   3.996  19.630  0.00  0.00    +0.000 N 
ATOM      4  C   UNL     1       2.655   3.113  20.027  0.00  0.00    +0.000 C 
ATOM      5  O   UNL     1       2.792   1.890  20.012  0.00  0.00    +0.000 OA
ATOM      6  C   UNL     1       1.337   3.716  20.437  0.00  0.00    +0.000 C 
ATOM      7  C   UNL     1       1.422   5.180  20.773  0.00  0.00    +0.000 C 
ENDROOT
BRANCH   1  12
ATOM      8  C   UNL     1       1.405  11.483  18.550  0.00  0.00    +0.000 C 
ATOM      9  C   UNL     1       1.595  10.032  18.879  0.00  0.00    +0.000 A 
ATOM     10  C   UNL     1       1.238   9.510  20.129  0.00  0.00    +0.000 A 
ATOM     11  C   UNL     1       1.456   8.162  20.426  0.00  0.00    +0.000 A 
ATOM     12  C   UNL     1       2.038   7.317  19.475  0.00  0.00    +0.000 A 
ATOM     13  C   UNL     1       2.365   7.827  18.215  0.00  0.00    +0.000 A 
ATOM     14  C   UNL     1       2.150   9.176  17.921  0.00  0.00    +0.000 A 
ENDBRANCH   1  12
BRANCH   3  15
ATOM     15  C   UNL     1       4.862   3.422  19.030  0.00  0.00    +0.000 C 
BRANCH  15  16
ATOM     16  C   UNL     1       5.785   4.420  18.319  0.00  0.00    +0.000 C 
ATOM     17  O   UNL     1       6.647   5.043  18.940  0.00  0.00    +0.000 OA
ATOM     18  N   UNL     1       5.718   4.438  16.942  0.00  0.00    +0.000 N 
ATOM     19  H   UNL     1       4.958   3.944  16.496  0.00  0.00    +0.000 HD
BRANCH  18  20
ATOM     20  C   UNL     1       6.578   5.291  16.150  0.00  0.00    +0.000 C 
BRANCH  20  21
ATOM     21  C   UNL     1       6.647   4.852  14.718  0.00  0.00    +0.000 A 
ATOM     22  C   UNL     1       5.752   3.913  14.198  0.00  0.00    +0.000 A 
ATOM     23  C   UNL     1       5.854   3.520  12.868  0.00  0.00    +0.000 A 
ATOM     24  C   UNL     1       6.858   4.078  12.095  0.00  0.00    +0.000 A 
ATOM     25  N   UNL     1       7.744   4.987  12.558  0.00  0.00    +0.000 NA
ATOM     26  C   UNL     1       7.620   5.347  13.855  0.00  0.00    +0.000 A 
ENDBRANCH  20  21
ENDBRANCH  18  20
ENDBRANCH  15  16
ENDBRANCH   3  15
TORSDOF 5
ENDMDL
MODEL 5
REMARK VINA RESULT:      -7.6      1.050      1.083
REMARK  Name = 
REMARK  6 active torsions:
REMARK  status: ('A' for Active; 'I' for Inactive)
REMARK    1  A    between atoms: C_1  and  C_2
REMARK    2  A    between atoms: C_5  and  C_6
REMARK    3  A    between atoms: N_8  and  C_9
REMARK    4  A    between atoms: C_9  and  C_10
REMARK    5  A    between atoms: N_12  and  C_13
REMARK    6  A    between atoms: C_13  and  C_14
REMARK                            x       y       z     vdW  Elec       q    Type
REMARK                         _______ _______ _______ _____ _____    ______ ____
ROOT
ATOM      1  C   UNL     1       2.315   5.605  19.822  0.00  0.00    +0.000 C 
ATOM      2  N   UNL     1       3.540   5.247  19.576  0.00  0.00    +0.000 NA
ATOM      3  N   UNL     1       3.846   3.902  19.505  0.00  0.00    +0.000 N 
ATOM      4  C   UNL     1       2.896   2.914  19.269  0.00  0.00    +0.000 C 
ATOM      5  O   UNL     1       3.187   1.765  18.937  0.00  0.00    +0.000 OA
ATOM      6  C   UNL     1       1.451   3.321  19.382  0.00  0.00    +0.000 C 
ATOM      7  C   UNL     1       1.241   4.599  20.147  0.00  0.00    +0.000 C 
ENDROOT
BRANCH   1  12
ATOM      8  C   UNL     1       0.602  11.154  19.738  0.00  0.00    +0.000 C 
ATOM      9  C   UNL     1       1.097   9.738  19.758  0.00  0.00    +0.000 A 
ATOM     10  C   UNL     1       1.674   9.147  18.628  0.00  0.00    +0.000 A 
ATOM     11  C   UNL     1       2.097   7.816  18.658  0.00  0.00    +0.000 A 
ATOM     12  C   UNL     1       1.945   7.055  19.823  0.00  0.00    +0.000 A 
ATOM     13  C   UNL     1       1.399   7.653  20.963  0.00  0.00    +0.000 A 
ATOM     14  C   UNL     1       0.974   8.983  20.929  0.00  0.00    +0.000 A 
ENDBRANCH   1  12
BRANCH   3  15
ATOM     15  C   UNL     1       5.244   3.582  19.195  0.00  0.00    +0.000 C 
BRANCH  15  16
ATOM     16  C   UNL     1       5.992   4.628  18.361  0.00  0.00    +0.000 C 
ATOM     17  O   UNL     1       6.607   5.551  18.898  0.00  0.00    +0.000 OA
ATOM     18  N   UNL     1       6.091   4.372  17.009  0.00  0.00    +0.000 N 
ATOM     19  H   UNL     1       5.525   3.630  16.622  0.00  0.00    +0.000 HD
BRANCH  18  20
ATOM     20  C   UNL     1       6.822   5.250  16.121  0.00  0.00    +0.000 C 
BRANCH  20  21
ATOM     21  C   UNL     1       6.771   4.784  14.696  0.00  0.00    +0.000 A 
ATOM     22  C   UNL     1       5.810   3.867  14.263  0.00  0.00    +0.000 A 
ATOM     23  C   UNL     1       5.801   3.447  12.936  0.00  0.00    +0.000 A 
ATOM     24  C   UNL     1       6.761   3.958  12.080  0.00  0.00    +0.000 A 
ATOM     25  N   UNL     1       7.708   4.844  12.459  0.00  0.00    +0.000 NA
ATOM     26  C   UNL     1       7.692   5.232  13.755  0.00  0.00    +0.000 A 
ENDBRANCH  20  21
ENDBRANCH  18  20
ENDBRANCH  15  16
ENDBRANCH   3  15
TORSDOF 5
ENDMDL
MODEL 6
REMARK VINA RESULT:      -7.6      1.176      1.431
REMARK  Name = 
REMARK  6 active torsions:
REMARK  status: ('A' for Active; 'I' for Inactive)
REMARK    1  A    between atoms: C_1  and  C_2
REMARK    2  A    between atoms: C_5  and  C_6
REMARK    3  A    between atoms: N_8  and  C_9
REMARK    4  A    between atoms: C_9  and  C_10
REMARK    5  A    between atoms: N_12  and  C_13
REMARK    6  A    between atoms: C_13  and  C_14
REMARK                            x       y       z     vdW  Elec       q    Type
REMARK                         _______ _______ _______ _____ _____    ______ ____
ROOT
ATOM      1  C   UNL     1       2.510   5.990  19.779  0.00  0.00    +0.000 C 
ATOM      2  N   UNL     1       3.694   5.603  19.404  0.00  0.00    +0.000 NA
ATOM      3  N   UNL     1       4.051   4.279  19.565  0.00  0.00    +0.000 N 
ATOM      4  C   UNL     1       3.126   3.251  19.712  0.00  0.00    +0.000 C 
ATOM      5  O   UNL     1       3.415   2.061  19.584  0.00  0.00    +0.000 OA
ATOM      6  C   UNL     1       1.702   3.653  19.988  0.00  0.00    +0.000 C 
ATOM      7  C   UNL     1       1.559   5.063  20.492  0.00  0.00    +0.000 C 
ENDROOT
BRANCH   1  12
ATOM      8  C   UNL     1       0.543  11.359  18.762  0.00  0.00    +0.000 C 
ATOM      9  C   UNL     1       1.103   9.992  19.023  0.00  0.00    +0.000 A 
ATOM     10  C   UNL     1       1.768   9.269  18.025  0.00  0.00    +0.000 A 
ATOM     11  C   UNL     1       2.251   7.983  18.280  0.00  0.00    +0.000 A 
ATOM     12  C   UNL     1       2.072   7.400  19.540  0.00  0.00    +0.000 A 
ATOM     13  C   UNL     1       1.438   8.133  20.548  0.00  0.00    +0.000 A 
ATOM     14  C   UNL     1       0.952   9.417  20.290  0.00  0.00    +0.000 A 
ENDBRANCH   1  12
BRANCH   3  15
ATOM     15  C   UNL     1       5.391   3.919  19.090  0.00  0.00    +0.000 C 
BRANCH  15  16
ATOM     16  C   UNL     1       6.009   4.877  18.066  0.00  0.00    +0.000 C 
ATOM     17  O   UNL     1       7.137   5.345  18.231  0.00  0.00    +0.000 OA
ATOM     18  N   UNL     1       5.319   5.033  16.882  0.00  0.00    +0.000 N 
ATOM     19  H   UNL     1       4.379   4.667  16.828  0.00  0.00    +0.000 HD
BRANCH  18  20
ATOM     20  C   UNL     1       5.825   5.864  15.810  0.00  0.00    +0.000 C 
BRANCH  20  21
ATOM     21  C   UNL     1       6.116   5.072  14.570  0.00  0.00    +0.000 A 
ATOM     22  C   UNL     1       7.314   5.231  13.868  0.00  0.00    +0.000 A 
ATOM     23  C   UNL     1       7.545   4.489  12.714  0.00  0.00    +0.000 A 
ATOM     24  C   UNL     1       6.563   3.608  12.294  0.00  0.00    +0.000 A 
ATOM     25  N   UNL     1       5.391   3.426  12.942  0.00  0.00    +0.000 NA
ATOM     26  C   UNL     1       5.196   4.163  14.059  0.00  0.00    +0.000 A 
ENDBRANCH  20  21
ENDBRANCH  18  20
ENDBRANCH  15  16
ENDBRANCH   3  15
TORSDOF 5
ENDMDL
MODEL 7
REMARK VINA RESULT:      -7.6      4.533      6.657
REMARK  Name = 
REMARK  6 active torsions:
REMARK  status: ('A' for Active; 'I' for Inactive)
REMARK    1  A    between atoms: C_1  and  C_2
REMARK    2  A    between atoms: C_5  and  C_6
REMARK    3  A    between atoms: N_8  and  C_9
REMARK    4  A    between atoms: C_9  and  C_10
REMARK    5  A    between atoms: N_12  and  C_13
REMARK    6  A    between atoms: C_13  and  C_14
REMARK                            x       y       z     vdW  Elec       q    Type
REMARK                         _______ _______ _______ _____ _____    ______ ____
ROOT
ATOM      1  C   UNL     1       5.171   4.402  17.738  0.00  0.00    +0.000 C 
ATOM      2  N   UNL     1       5.598   5.629  17.679  0.00  0.00    +0.000 NA
ATOM      3  N   UNL     1       6.547   5.966  16.734  0.00  0.00    +0.000 N 
ATOM      4  C   UNL     1       6.783   5.216  15.587  0.00  0.00    +0.000 C 
ATOM      5  O   UNL     1       7.419   5.641  14.623  0.00  0.00    +0.000 OA
ATOM      6  C   UNL     1       6.171   3.841  15.537  0.00  0.00    +0.000 C 
ATOM      7  C   UNL     1       5.764   3.311  16.885  0.00  0.00    +0.000 C 
ENDROOT
BRANCH   1  12
ATOM      8  C   UNL     1       1.165   2.901  21.666  0.00  0.00    +0.000 C 
ATOM      9  C   UNL     1       2.161   3.283  20.612  0.00  0.00    +0.000 A 
ATOM     10  C   UNL     1       2.662   2.345  19.702  0.00  0.00    +0.000 A 
ATOM     11  C   UNL     1       3.616   2.715  18.750  0.00  0.00    +0.000 A 
ATOM     12  C   UNL     1       4.084   4.033  18.698  0.00  0.00    +0.000 A 
ATOM     13  C   UNL     1       3.561   4.980  19.584  0.00  0.00    +0.000 A 
ATOM     14  C   UNL     1       2.610   4.607  20.537  0.00  0.00    +0.000 A 
ENDBRANCH   1  12
BRANCH   3  15
ATOM     15  C   UNL     1       6.954   7.375  16.715  0.00  0.00    +0.000 C 
BRANCH  15  16
ATOM     16  C   UNL     1       7.813   7.832  17.900  0.00  0.00    +0.000 C 
ATOM     17  O   UNL     1       8.307   7.017  18.680  0.00  0.00    +0.000 OA
ATOM     18  N   UNL     1       8.148   9.169  17.931  0.00  0.00    +0.000 N 
ATOM     19  H   UNL     1       7.671   9.795  17.295  0.00  0.00    +0.000 HD
BRANCH  18  20
ATOM     20  C   UNL     1       9.002   9.716  18.963  0.00  0.00    +0.000 C 
BRANCH  20  21
ATOM     21  C   UNL     1       9.663  10.993  18.534  0.00  0.00    +0.000 A 
ATOM     22  C   UNL     1      11.042  11.177  18.657  0.00  0.00    +0.000 A 
ATOM     23  C   UNL     1      11.619  12.380  18.261  0.00  0.00    +0.000 A 
ATOM     24  C   UNL     1      10.792  13.368  17.755  0.00  0.00    +0.000 A 
ATOM     25  N   UNL     1       9.455  13.231  17.621  0.00  0.00    +0.000 NA
ATOM     26  C   UNL     1       8.924  12.051  18.017  0.00  0.00    +0.000 A 
ENDBRANCH  20  21
ENDBRANCH  18  20
ENDBRANCH  15  16
ENDBRANCH   3  15
TORSDOF 5
ENDMDL
MODEL 8
REMARK VINA RESULT:      -7.6      3.985      5.215
REMARK  Name = 
REMARK  6 active torsions:
REMARK  status: ('A' for Active; 'I' for Inactive)
REMARK    1  A    between atoms: C_1  and  C_2
REMARK    2  A    between atoms: C_5  and  C_6
REMARK    3  A    between atoms: N_8  and  C_9
REMARK    4  A    between atoms: C_9  and  C_10
REMARK    5  A    between atoms: N_12  and  C_13
REMARK    6  A    between atoms: C_13  and  C_14
REMARK                            x       y       z     vdW  Elec       q    Type
REMARK                         _______ _______ _______ _____ _____    ______ ____
ROOT
ATOM      1  C   UNL     1       3.343   6.689  18.223  0.00  0.00    +0.000 C 
ATOM      2  N   UNL     1       4.521   7.062  17.818  0.00  0.00    +0.000 NA
ATOM      3  N   UNL     1       5.400   6.109  17.340  0.00  0.00    +0.000 N 
ATOM      4  C   UNL     1       4.997   4.862  16.877  0.00  0.00    +0.000 C 
ATOM      5  O   UNL     1       5.722   4.125  16.209  0.00  0.00    +0.000 OA
ATOM      6  C   UNL     1       3.581   4.449  17.181  0.00  0.00    +0.000 C 
ATOM      7  C   UNL     1       2.949   5.236  18.297  0.00  0.00    +0.000 C 
ENDROOT
BRANCH   1  12
ATOM      8  C   UNL     1      -0.300  10.843  20.012  0.00  0.00    +0.000 C 
ATOM      9  C   UNL     1       0.599   9.733  19.556  0.00  0.00    +0.000 A 
ATOM     10  C   UNL     1       1.067   8.756  20.443  0.00  0.00    +0.000 A 
ATOM     11  C   UNL     1       1.932   7.751  20.003  0.00  0.00    +0.000 A 
ATOM     12  C   UNL     1       2.346   7.712  18.667  0.00  0.00    +0.000 A 
ATOM     13  C   UNL     1       1.854   8.667  17.772  0.00  0.00    +0.000 A 
ATOM     14  C   UNL     1       0.992   9.673  18.214  0.00  0.00    +0.000 A 
ENDBRANCH   1  12
BRANCH   3  15
ATOM     15  C   UNL     1       6.696   6.615  16.876  0.00  0.00    +0.000 C 
BRANCH  15  16
ATOM     16  C   UNL     1       7.604   7.204  17.963  0.00  0.00    +0.000 C 
ATOM     17  O   UNL     1       8.126   6.484  18.815  0.00  0.00    +0.000 OA
ATOM     18  N   UNL     1       7.945   8.532  17.819  0.00  0.00    +0.000 N 
ATOM     19  H   UNL     1       7.445   9.081  17.132  0.00  0.00    +0.000 HD
BRANCH  18  20
ATOM     20  C   UNL     1       8.842   9.192  18.743  0.00  0.00    +0.000 C 
BRANCH  20  21
ATOM     21  C   UNL     1       9.119  10.612  18.347  0.00  0.00    +0.000 A 
ATOM     22  C   UNL     1      10.357  11.210  18.597  0.00  0.00    +0.000 A 
ATOM     23  C   UNL     1      10.574  12.534  18.228  0.00  0.00    +0.000 A 
ATOM     24  C   UNL     1       9.539  13.223  17.620  0.00  0.00    +0.000 A 
ATOM     25  N   UNL     1       8.328  12.683  17.362  0.00  0.00    +0.000 NA
ATOM     26  C   UNL     1       8.147  11.395  17.735  0.00  0.00    +0.000 A 
ENDBRANCH  20  21
ENDBRANCH  18  20
ENDBRANCH  15  16
ENDBRANCH   3  15
TORSDOF 5
ENDMDL
MODEL 9
REMARK VINA RESULT:      -7.5      2.488      4.136
REMARK  Name = 
REMARK  6 active torsions:
REMARK  status: ('A' for Active; 'I' for Inactive)
REMARK    1  A    between atoms: C_1  and  C_2
REMARK    2  A    between atoms: C_5  and  C_6
REMARK    3  A    between atoms: N_8  and  C_9
REMARK    4  A    between atoms: C_9  and  C_10
REMARK    5  A    between atoms: N_12  and  C_13
REMARK    6  A    between atoms: C_13  and  C_14
REMARK                            x       y       z     vdW  Elec       q    Type
REMARK                         _______ _______ _______ _____ _____    ______ ____
ROOT
ATOM      1  C   UNL     1       0.721   9.369  19.893  0.00  0.00    +0.000 C 
ATOM      2  N   UNL     1       1.326   8.295  20.307  0.00  0.00    +0.000 NA
ATOM      3  N   UNL     1       2.106   7.578  19.421  0.00  0.00    +0.000 N 
ATOM      4  C   UNL     1       2.626   8.120  18.251  0.00  0.00    +0.000 C 
ATOM      5  O   UNL     1       3.529   7.588  17.605  0.00  0.00    +0.000 OA
ATOM      6  C   UNL     1       2.071   9.449  17.812  0.00  0.00    +0.000 C 
ATOM      7  C   UNL     1       0.750   9.792  18.446  0.00  0.00    +0.000 C 
ENDROOT
BRANCH   1  12
ATOM      8  C   UNL     1      -2.561  12.444  23.567  0.00  0.00    +0.000 C 
ATOM      9  C   UNL     1      -1.677  11.692  22.617  0.00  0.00    +0.000 A 
ATOM     10  C   UNL     1      -1.556  12.069  21.274  0.00  0.00    +0.000 A 
ATOM     11  C   UNL     1      -0.754  11.333  20.398  0.00  0.00    +0.000 A 
ATOM     12  C   UNL     1      -0.063  10.205  20.854  0.00  0.00    +0.000 A 
ATOM     13  C   UNL     1      -0.156   9.846  22.203  0.00  0.00    +0.000 A 
ATOM     14  C   UNL     1      -0.961  10.581  23.076  0.00  0.00    +0.000 A 
ENDBRANCH   1  12
BRANCH   3  15
ATOM     15  C   UNL     1       2.777   6.397  19.975  0.00  0.00    +0.000 C 
BRANCH  15  16
ATOM     16  C   UNL     1       2.877   5.191  19.033  0.00  0.00    +0.000 C 
ATOM     17  O   UNL     1       1.868   4.676  18.549  0.00  0.00    +0.000 OA
ATOM     18  N   UNL     1       4.146   4.844  18.621  0.00  0.00    +0.000 N 
ATOM     19  H   UNL     1       4.933   5.269  19.091  0.00  0.00    +0.000 HD
BRANCH  18  20
ATOM     20  C   UNL     1       4.372   3.762  17.686  0.00  0.00    +0.000 C 
BRANCH  20  21
ATOM     21  C   UNL     1       5.354   4.135  16.615  0.00  0.00    +0.000 A 
ATOM     22  C   UNL     1       5.024   4.045  15.260  0.00  0.00    +0.000 A 
ATOM     23  C   UNL     1       5.965   4.387  14.294  0.00  0.00    +0.000 A 
ATOM     24  C   UNL     1       7.215   4.807  14.715  0.00  0.00    +0.000 A 
ATOM     25  N   UNL     1       7.574   4.907  16.014  0.00  0.00    +0.000 NA
ATOM     26  C   UNL     1       6.639   4.565  16.929  0.00  0.00    +0.000 A 
ENDBRANCH  20  21
ENDBRANCH  18  20
ENDBRANCH  15  16
ENDBRANCH   3  15
TORSDOF 5
ENDMDL
