MODEL 1
REMARK VINA RESULT:      -7.0      0.000      0.000
REMARK  Name = 
REMARK  1 active torsions:
REMARK  status: ('A' for Active; 'I' for Inactive)
REMARK    1  A    between atoms: N_9  and  C_10
REMARK                            x       y       z     vdW  Elec       q    Type
REMARK                         _______ _______ _______ _____ _____    ______ ____
ROOT
ATOM      1  O   UNL     1       2.504   5.624  18.349  0.00  0.00    +0.000 OA
ATOM      2  C   UNL     1       3.014   4.689  18.968  0.00  0.00    +0.000 A 
ATOM      3  C   UNL     1       2.227   4.023  20.050  0.00  0.00    +0.000 A 
ATOM      4 CL   UNL     1       0.652   4.662  20.381  0.00  0.00    +0.000 Cl
ATOM      5  C   UNL     1       2.728   2.981  20.712  0.00  0.00    +0.000 A 
ATOM      6 CL   UNL     1       1.953   2.118  21.973  0.00  0.00    +0.000 Cl
ATOM      7  C   UNL     1       4.058   2.525  20.306  0.00  0.00    +0.000 A 
ATOM      8  N   UNL     1       4.788   3.050  19.380  0.00  0.00    +0.000 NA
ATOM      9  N   UNL     1       4.291   4.156  18.719  0.00  0.00    +0.000 N 
ENDROOT
BRANCH   9  10
ATOM     10  C   UNL     1       5.212   4.710  17.763  0.00  0.00    +0.000 A 
ATOM     11  C   UNL     1       5.995   5.840  18.044  0.00  0.00    +0.000 A 
ATOM     12  C   UNL     1       6.897   6.340  17.100  0.00  0.00    +0.000 A 
ATOM     13 CL   UNL     1       7.869   7.706  17.493  0.00  0.00    +0.000 Cl
ATOM     14  C   UNL     1       7.032   5.742  15.853  0.00  0.00    +0.000 A 
ATOM     15  C   UNL     1       6.263   4.623  15.561  0.00  0.00    +0.000 A 
ATOM     16 CL   UNL     1       6.408   3.873  14.018  0.00  0.00    +0.000 Cl
ATOM     17  C   UNL     1       5.374   4.102  16.504  0.00  0.00    +0.000 A 
ENDBRANCH   9  10
TORSDOF 1
ENDMDL
MODEL 2
REMARK VINA RESULT:      -7.0      0.296      2.200
REMARK  Name = 
REMARK  1 active torsions:
REMARK  status: ('A' for Active; 'I' for Inactive)
REMARK    1  A    between atoms: N_9  and  C_10
REMARK                            x       y       z     vdW  Elec       q    Type
REMARK                         _______ _______ _______ _____ _____    ______ ____
ROOT
ATOM      1  O   UNL     1       2.350   5.136  18.015  0.00  0.00    +0.000 OA
ATOM      2  C   UNL     1       2.931   4.349  18.762  0.00  0.00    +0.000 A 
ATOM      3  C   UNL     1       2.172   3.727  19.890  0.00  0.00    +0.000 A 
ATOM      4 CL   UNL     1       0.520   4.209  20.083  0.00  0.00    +0.000 Cl
ATOM      5  C   UNL     1       2.755   2.838  20.693  0.00  0.00    +0.000 A 
ATOM      6 CL   UNL     1       2.021   2.045  22.023  0.00  0.00    +0.000 Cl
ATOM      7  C   UNL     1       4.146   2.498  20.395  0.00  0.00    +0.000 A 
ATOM      8  N   UNL     1       4.857   2.992  19.437  0.00  0.00    +0.000 NA
ATOM      9  N   UNL     1       4.271   3.945  18.627  0.00  0.00    +0.000 N 
ENDROOT
BRANCH   9  10
ATOM     10  C   UNL     1       5.170   4.487  17.643  0.00  0.00    +0.000 A 
ATOM     11  C   UNL     1       5.303   3.930  16.362  0.00  0.00    +0.000 A 
ATOM     12  C   UNL     1       6.169   4.495  15.421  0.00  0.00    +0.000 A 
ATOM     13 CL   UNL     1       6.280   3.808  13.846  0.00  0.00    +0.000 Cl
ATOM     14  C   UNL     1       6.933   5.613  15.733  0.00  0.00    +0.000 A 
ATOM     15  C   UNL     1       6.811   6.175  16.997  0.00  0.00    +0.000 A 
ATOM     16 CL   UNL     1       7.757   7.554  17.408  0.00  0.00    +0.000 Cl
ATOM     17  C   UNL     1       5.934   5.631  17.939  0.00  0.00    +0.000 A 
ENDBRANCH   9  10
TORSDOF 1
ENDMDL
MODEL 3
REMARK VINA RESULT:      -6.8      1.094      1.094
REMARK  Name = 
REMARK  1 active torsions:
REMARK  status: ('A' for Active; 'I' for Inactive)
REMARK    1  A    between atoms: N_9  and  C_10
REMARK                            x       y       z     vdW  Elec       q    Type
REMARK                         _______ _______ _______ _____ _____    ______ ____
ROOT
ATOM      1  O   UNL     1       2.299   3.623  16.949  0.00  0.00    +0.000 OA
ATOM      2  C   UNL     1       2.834   3.460  18.047  0.00  0.00    +0.000 A 
ATOM      3  C   UNL     1       2.024   2.897  19.170  0.00  0.00    +0.000 A 
ATOM      4 CL   UNL     1       0.359   2.557  18.842  0.00  0.00    +0.000 Cl
ATOM      5  C   UNL     1       2.579   2.667  20.359  0.00  0.00    +0.000 A 
ATOM      6 CL   UNL     1       1.785   2.031  21.739  0.00  0.00    +0.000 Cl
ATOM      7  C   UNL     1       4.005   2.972  20.487  0.00  0.00    +0.000 A 
ATOM      8  N   UNL     1       4.762   3.453  19.559  0.00  0.00    +0.000 NA
ATOM      9  N   UNL     1       4.183   3.733  18.337  0.00  0.00    +0.000 N 
ENDROOT
BRANCH   9  10
ATOM     10  C   UNL     1       5.092   4.338  17.400  0.00  0.00    +0.000 A 
ATOM     11  C   UNL     1       5.864   5.463  17.725  0.00  0.00    +0.000 A 
ATOM     12  C   UNL     1       6.755   6.012  16.798  0.00  0.00    +0.000 A 
ATOM     13 CL   UNL     1       7.715   7.371  17.243  0.00  0.00    +0.000 Cl
ATOM     14  C   UNL     1       6.889   5.470  15.526  0.00  0.00    +0.000 A 
ATOM     15  C   UNL     1       6.130   4.356  15.191  0.00  0.00    +0.000 A 
ATOM     16 CL   UNL     1       6.272   3.675  13.616  0.00  0.00    +0.000 Cl
ATOM     17  C   UNL     1       5.252   3.786  16.116  0.00  0.00    +0.000 A 
ENDBRANCH   9  10
TORSDOF 1
ENDMDL
MODEL 4
REMARK VINA RESULT:      -6.6      1.377      2.943
REMARK  Name = 
REMARK  1 active torsions:
REMARK  status: ('A' for Active; 'I' for Inactive)
REMARK    1  A    between atoms: N_9  and  C_10
REMARK                            x       y       z     vdW  Elec       q    Type
REMARK                         _______ _______ _______ _____ _____    ______ ____
ROOT
ATOM      1  O   UNL     1       5.214   3.308  19.748  0.00  0.00    +0.000 OA
ATOM      2  C   UNL     1       4.113   3.558  19.257  0.00  0.00    +0.000 A 
ATOM      3  C   UNL     1       2.882   3.113  19.979  0.00  0.00    +0.000 A 
ATOM      4 CL   UNL     1       3.111   2.226  21.448  0.00  0.00    +0.000 Cl
ATOM      5  C   UNL     1       1.672   3.401  19.501  0.00  0.00    +0.000 A 
ATOM      6 CL   UNL     1       0.174   2.961  20.209  0.00  0.00    +0.000 Cl
ATOM      7  C   UNL     1       1.625   4.184  18.266  0.00  0.00    +0.000 A 
ATOM      8  N   UNL     1       2.646   4.604  17.596  0.00  0.00    +0.000 NA
ATOM      9  N   UNL     1       3.902   4.271  18.064  0.00  0.00    +0.000 N 
ENDROOT
BRANCH   9  10
ATOM     10  C   UNL     1       4.967   4.719  17.206  0.00  0.00    +0.000 A 
ATOM     11  C   UNL     1       5.216   4.136  15.954  0.00  0.00    +0.000 A 
ATOM     12  C   UNL     1       6.245   4.610  15.135  0.00  0.00    +0.000 A 
ATOM     13 CL   UNL     1       6.498   3.895  13.589  0.00  0.00    +0.000 Cl
ATOM     14  C   UNL     1       7.058   5.659  15.543  0.00  0.00    +0.000 A 
ATOM     15  C   UNL     1       6.823   6.246  16.780  0.00  0.00    +0.000 A 
ATOM     16 CL   UNL     1       7.827   7.540  17.310  0.00  0.00    +0.000 Cl
ATOM     17  C   UNL     1       5.785   5.794  17.599  0.00  0.00    +0.000 A 
ENDBRANCH   9  10
TORSDOF 1
ENDMDL
MODEL 5
REMARK VINA RESULT:      -6.6      1.372      1.975
REMARK  Name = 
REMARK  1 active torsions:
REMARK  status: ('A' for Active; 'I' for Inactive)
REMARK    1  A    between atoms: N_9  and  C_10
REMARK                            x       y       z     vdW  Elec       q    Type
REMARK                         _______ _______ _______ _____ _____    ______ ____
ROOT
ATOM      1  O   UNL     1       5.218   3.356  19.752  0.00  0.00    +0.000 OA
ATOM      2  C   UNL     1       4.113   3.605  19.268  0.00  0.00    +0.000 A 
ATOM      3  C   UNL     1       2.888   3.130  19.980  0.00  0.00    +0.000 A 
ATOM      4 CL   UNL     1       3.128   2.213  21.429  0.00  0.00    +0.000 Cl
ATOM      5  C   UNL     1       1.674   3.416  19.511  0.00  0.00    +0.000 A 
ATOM      6 CL   UNL     1       0.182   2.943  20.209  0.00  0.00    +0.000 Cl
ATOM      7  C   UNL     1       1.617   4.227  18.294  0.00  0.00    +0.000 A 
ATOM      8  N   UNL     1       2.633   4.673  17.633  0.00  0.00    +0.000 NA
ATOM      9  N   UNL     1       3.893   4.344  18.092  0.00  0.00    +0.000 N 
ENDROOT
BRANCH   9  10
ATOM     10  C   UNL     1       4.952   4.823  17.244  0.00  0.00    +0.000 A 
ATOM     11  C   UNL     1       5.784   5.890  17.613  0.00  0.00    +0.000 A 
ATOM     12  C   UNL     1       6.819   6.316  16.775  0.00  0.00    +0.000 A 
ATOM     13 CL   UNL     1       7.844   7.605  17.278  0.00  0.00    +0.000 Cl
ATOM     14  C   UNL     1       7.041   5.706  15.547  0.00  0.00    +0.000 A 
ATOM     15  C   UNL     1       6.225   4.648  15.168  0.00  0.00    +0.000 A 
ATOM     16 CL   UNL     1       6.476   3.885  13.645  0.00  0.00    +0.000 Cl
ATOM     17  C   UNL     1       5.201   4.200  16.007  0.00  0.00    +0.000 A 
ENDBRANCH   9  10
TORSDOF 1
ENDMDL
MODEL 6
REMARK VINA RESULT:      -6.4      3.824      4.765
REMARK  Name = 
REMARK  1 active torsions:
REMARK  status: ('A' for Active; 'I' for Inactive)
REMARK    1  A    between atoms: N_9  and  C_10
REMARK                            x       y       z     vdW  Elec       q    Type
REMARK                         _______ _______ _______ _____ _____    ______ ____
ROOT
ATOM      1  O   UNL     1       2.030   8.934  17.248  0.00  0.00    +0.000 OA
ATOM      2  C   UNL     1       1.858   8.625  18.427  0.00  0.00    +0.000 A 
ATOM      3  C   UNL     1       1.172   9.592  19.336  0.00  0.00    +0.000 A 
ATOM      4 CL   UNL     1       0.709  11.115  18.655  0.00  0.00    +0.000 Cl
ATOM      5  C   UNL     1       0.929   9.276  20.608  0.00  0.00    +0.000 A 
ATOM      6 CL   UNL     1       0.158  10.275  21.768  0.00  0.00    +0.000 Cl
ATOM      7  C   UNL     1       1.346   7.943  21.042  0.00  0.00    +0.000 A 
ATOM      8  N   UNL     1       1.937   7.059  20.311  0.00  0.00    +0.000 NA
ATOM      9  N   UNL     1       2.229   7.396  19.003  0.00  0.00    +0.000 N 
ENDROOT
BRANCH   9  10
ATOM     10  C   UNL     1       2.955   6.374  18.298  0.00  0.00    +0.000 A 
ATOM     11  C   UNL     1       4.200   6.617  17.699  0.00  0.00    +0.000 A 
ATOM     12  C   UNL     1       4.890   5.595  17.041  0.00  0.00    +0.000 A 
ATOM     13 CL   UNL     1       6.433   5.920  16.349  0.00  0.00    +0.000 Cl
ATOM     14  C   UNL     1       4.356   4.316  16.948  0.00  0.00    +0.000 A 
ATOM     15  C   UNL     1       3.124   4.061  17.537  0.00  0.00    +0.000 A 
ATOM     16 CL   UNL     1       2.440   2.485  17.424  0.00  0.00    +0.000 Cl
ATOM     17  C   UNL     1       2.435   5.069  18.215  0.00  0.00    +0.000 A 
ENDBRANCH   9  10
TORSDOF 1
ENDMDL
MODEL 7
REMARK VINA RESULT:      -6.4      3.740      4.898
REMARK  Name = 
REMARK  1 active torsions:
REMARK  status: ('A' for Active; 'I' for Inactive)
REMARK    1  A    between atoms: N_9  and  C_10
REMARK                            x       y       z     vdW  Elec       q    Type
REMARK                         _______ _______ _______ _____ _____    ______ ____
ROOT
ATOM      1  O   UNL     1       2.126   6.705  20.612  0.00  0.00    +0.000 OA
ATOM      2  C   UNL     1       1.965   7.584  19.765  0.00  0.00    +0.000 A 
ATOM      3  C   UNL     1       1.211   8.820  20.139  0.00  0.00    +0.000 A 
ATOM      4 CL   UNL     1       0.576   8.894  21.748  0.00  0.00    +0.000 Cl
ATOM      5  C   UNL     1       1.053   9.811  19.262  0.00  0.00    +0.000 A 
ATOM      6 CL   UNL     1       0.216  11.281  19.540  0.00  0.00    +0.000 Cl
ATOM      7  C   UNL     1       1.669   9.628  17.948  0.00  0.00    +0.000 A 
ATOM      8  N   UNL     1       2.335   8.592  17.562  0.00  0.00    +0.000 NA
ATOM      9  N   UNL     1       2.467   7.544  18.452  0.00  0.00    +0.000 N 
ENDROOT
BRANCH   9  10
ATOM     10  C   UNL     1       3.157   6.409  17.899  0.00  0.00    +0.000 A 
ATOM     11  C   UNL     1       4.430   6.516  17.318  0.00  0.00    +0.000 A 
ATOM     12  C   UNL     1       5.083   5.389  16.809  0.00  0.00    +0.000 A 
ATOM     13 CL   UNL     1       6.660   5.552  16.137  0.00  0.00    +0.000 Cl
ATOM     14  C   UNL     1       4.484   4.136  16.851  0.00  0.00    +0.000 A 
ATOM     15  C   UNL     1       3.224   4.016  17.423  0.00  0.00    +0.000 A 
ATOM     16 CL   UNL     1       2.460   2.474  17.475  0.00  0.00    +0.000 Cl
ATOM     17  C   UNL     1       2.571   5.131  17.953  0.00  0.00    +0.000 A 
ENDBRANCH   9  10
TORSDOF 1
ENDMDL
MODEL 8
REMARK VINA RESULT:      -6.4      3.820      5.206
REMARK  Name = 
REMARK  1 active torsions:
REMARK  status: ('A' for Active; 'I' for Inactive)
REMARK    1  A    between atoms: N_9  and  C_10
REMARK                            x       y       z     vdW  Elec       q    Type
REMARK                         _______ _______ _______ _____ _____    ______ ____
ROOT
ATOM      1  O   UNL     1       1.920   6.811  20.627  0.00  0.00    +0.000 OA
ATOM      2  C   UNL     1       1.834   7.690  19.769  0.00  0.00    +0.000 A 
ATOM      3  C   UNL     1       1.112   8.956  20.100  0.00  0.00    +0.000 A 
ATOM      4 CL   UNL     1       0.404   9.066  21.676  0.00  0.00    +0.000 Cl
ATOM      5  C   UNL     1       1.035   9.947  19.212  0.00  0.00    +0.000 A 
ATOM      6 CL   UNL     1       0.244  11.450  19.442  0.00  0.00    +0.000 Cl
ATOM      7  C   UNL     1       1.707   9.732  17.930  0.00  0.00    +0.000 A 
ATOM      8  N   UNL     1       2.350   8.668  17.582  0.00  0.00    +0.000 NA
ATOM      9  N   UNL     1       2.398   7.622  18.482  0.00  0.00    +0.000 N 
ENDROOT
BRANCH   9  10
ATOM     10  C   UNL     1       3.069   6.458  17.968  0.00  0.00    +0.000 A 
ATOM     11  C   UNL     1       2.489   5.181  18.004  0.00  0.00    +0.000 A 
ATOM     12  C   UNL     1       3.160   4.074  17.475  0.00  0.00    +0.000 A 
ATOM     13 CL   UNL     1       2.402   2.528  17.503  0.00  0.00    +0.000 Cl
ATOM     14  C   UNL     1       4.424   4.204  16.915  0.00  0.00    +0.000 A 
ATOM     15  C   UNL     1       5.011   5.463  16.874  0.00  0.00    +0.000 A 
ATOM     16 CL   UNL     1       6.582   5.644  16.194  0.00  0.00    +0.000 Cl
ATOM     17  C   UNL     1       4.341   6.579  17.380  0.00  0.00    +0.000 A 
ENDBRANCH   9  10
TORSDOF 1
ENDMDL
MODEL 9
REMARK VINA RESULT:      -6.3      3.882      5.094
REMARK  Name = 
REMARK  1 active torsions:
REMARK  status: ('A' for Active; 'I' for Inactive)
REMARK    1  A    between atoms: N_9  and  C_10
REMARK                            x       y       z     vdW  Elec       q    Type
REMARK                         _______ _______ _______ _____ _____    ______ ____
ROOT
ATOM      1  O   UNL     1       2.097   8.957  17.265  0.00  0.00    +0.000 OA
ATOM      2  C   UNL     1       1.880   8.659  18.440  0.00  0.00    +0.000 A 
ATOM      3  C   UNL     1       1.236   9.668  19.335  0.00  0.00    +0.000 A 
ATOM      4 CL   UNL     1       0.883  11.216  18.644  0.00  0.00    +0.000 Cl
ATOM      5  C   UNL     1       0.946   9.369  20.600  0.00  0.00    +0.000 A 
ATOM      6 CL   UNL     1       0.214  10.414  21.744  0.00  0.00    +0.000 Cl
ATOM      7  C   UNL     1       1.270   8.012  21.043  0.00  0.00    +0.000 A 
ATOM      8  N   UNL     1       1.821   7.093  20.324  0.00  0.00    +0.000 NA
ATOM      9  N   UNL     1       2.161   7.411  19.023  0.00  0.00    +0.000 N 
ENDROOT
BRANCH   9  10
ATOM     10  C   UNL     1       2.838   6.345  18.334  0.00  0.00    +0.000 A 
ATOM     11  C   UNL     1       2.342   5.033  18.312  0.00  0.00    +0.000 A 
ATOM     12  C   UNL     1       3.012   4.024  17.613  0.00  0.00    +0.000 A 
ATOM     13 CL   UNL     1       2.355   2.433  17.576  0.00  0.00    +0.000 Cl
ATOM     14  C   UNL     1       4.196   4.290  16.935  0.00  0.00    +0.000 A 
ATOM     15  C   UNL     1       4.698   5.584  16.949  0.00  0.00    +0.000 A 
ATOM     16 CL   UNL     1       6.170   5.932  16.125  0.00  0.00    +0.000 Cl
ATOM     17  C   UNL     1       4.026   6.604  17.626  0.00  0.00    +0.000 A 
ENDBRANCH   9  10
TORSDOF 1
ENDMDL
