MODEL 1
REMARK VINA RESULT:      -8.5      0.000      0.000
REMARK  Name = 
REMARK  7 active torsions:
REMARK  status: ('A' for Active; 'I' for Inactive)
REMARK    1  A    between atoms: C_1  and  O_2
REMARK    2  A    between atoms: O_2  and  C_3
REMARK    3  A    between atoms: C_6  and  O_7
REMARK    4  A    between atoms: O_7  and  C_8
REMARK    5  A    between atoms: C_9  and  C_10
REMARK    6  A    between atoms: N_11  and  N_12
REMARK    7  A    between atoms: C_17  and  N_18
REMARK                            x       y       z     vdW  Elec       q    Type
REMARK                         _______ _______ _______ _____ _____    ______ ____
ROOT
ATOM      1  N   UNL     1       2.290   8.804  17.776  0.00  0.00    +0.000 N 
ATOM      2  C   UNL     1       2.694   7.449  17.812  0.00  0.00    +0.000 A 
ATOM      3  N   UNL     1       1.870   6.523  18.305  0.00  0.00    +0.000 NA
ATOM      4  C   UNL     1       2.294   5.251  18.351  0.00  0.00    +0.000 A 
ATOM      5  C   UNL     1       3.559   4.859  17.908  0.00  0.00    +0.000 A 
ATOM      6  C   UNL     1       4.343   5.868  17.317  0.00  0.00    +0.000 A 
ATOM      7  N   UNL     1       3.899   7.146  17.309  0.00  0.00    +0.000 NA
ATOM      8  C   UNL     1       4.050   3.443  18.027  0.00  0.00    +0.000 C 
ATOM      9  S   UNL     1       3.142   2.446  19.165  0.00  0.00    +0.000 S 
ATOM     10  O   UNL     1       3.390   2.904  20.515  0.00  0.00    +0.000 OA
ATOM     11  O   UNL     1       3.361   1.057  18.803  0.00  0.00    +0.000 OA
ATOM     12  C   UNL     1       1.493   2.865  18.700  0.00  0.00    +0.000 C 
ATOM     13  C   UNL     1       1.275   4.330  18.975  0.00  0.00    +0.000 C 
ATOM     14  H   UNL     1       3.129   9.346  17.590  0.00  0.00    +0.000 HD
ENDROOT
BRANCH   6  15
ATOM     15  N   UNL     1       5.549   5.655  16.675  0.00  0.00    +0.000 N 
ATOM     16  C   UNL     1       5.565   5.591  15.195  0.00  0.00    +0.000 C 
ATOM     17  C   UNL     1       6.529   4.491  14.713  0.00  0.00    +0.000 C 
ATOM     18  O   UNL     1       7.847   4.661  15.257  0.00  0.00    +0.000 OA
ATOM     19  C   UNL     1       7.788   4.593  16.683  0.00  0.00    +0.000 C 
ATOM     20  C   UNL     1       6.893   5.693  17.264  0.00  0.00    +0.000 C 
ENDBRANCH   6  15
BRANCH   1  22
ATOM     21  C   UNL     1       1.097  10.490  18.680  0.00  0.00    +0.000 C 
ATOM     22  N   UNL     1       1.437   9.239  18.758  0.00  0.00    +0.000 NA
BRANCH  21  27
ATOM     23  C   UNL     1      -0.548  11.167  22.000  0.00  0.00    +0.000 A 
ATOM     24  C   UNL     1      -1.581  12.032  21.649  0.00  0.00    +0.000 A 
ATOM     25  C   UNL     1      -1.744  12.431  20.319  0.00  0.00    +0.000 A 
ATOM     26  C   UNL     1      -0.877  11.979  19.313  0.00  0.00    +0.000 A 
ATOM     27  C   UNL     1       0.173  11.113  19.663  0.00  0.00    +0.000 A 
ATOM     28  C   UNL     1       0.333  10.730  21.013  0.00  0.00    +0.000 A 
BRANCH  23  30
ATOM     29  C   UNL     1      -0.011   9.513  23.626  0.00  0.00    +0.000 C 
ATOM     30  O   UNL     1      -0.529  10.802  23.318  0.00  0.00    +0.000 OA
ENDBRANCH  23  30
BRANCH  26  31
ATOM     31  O   UNL     1      -1.273  12.358  18.059  0.00  0.00    +0.000 OA
ATOM     32  C   UNL     1      -2.210  11.534  17.380  0.00  0.00    +0.000 C 
ENDBRANCH  26  31
ENDBRANCH  21  27
ENDBRANCH   1  22
TORSDOF 5
ENDMDL
MODEL 2
REMARK VINA RESULT:      -8.4      0.904      2.245
REMARK  Name = 
REMARK  7 active torsions:
REMARK  status: ('A' for Active; 'I' for Inactive)
REMARK    1  A    between atoms: C_1  and  O_2
REMARK    2  A    between atoms: O_2  and  C_3
REMARK    3  A    between atoms: C_6  and  O_7
REMARK    4  A    between atoms: O_7  and  C_8
REMARK    5  A    between atoms: C_9  and  C_10
REMARK    6  A    between atoms: N_11  and  N_12
REMARK    7  A    between atoms: C_17  and  N_18
REMARK                            x       y       z     vdW  Elec       q    Type
REMARK                         _______ _______ _______ _____ _____    ______ ____
ROOT
ATOM      1  N   UNL     1       2.163   8.760  18.051  0.00  0.00    +0.000 N 
ATOM      2  C   UNL     1       2.601   7.416  18.018  0.00  0.00    +0.000 A 
ATOM      3  N   UNL     1       1.815   6.449  18.495  0.00  0.00    +0.000 NA
ATOM      4  C   UNL     1       2.271   5.187  18.474  0.00  0.00    +0.000 A 
ATOM      5  C   UNL     1       3.531   4.847  17.978  0.00  0.00    +0.000 A 
ATOM      6  C   UNL     1       4.272   5.899  17.407  0.00  0.00    +0.000 A 
ATOM      7  N   UNL     1       3.797   7.165  17.466  0.00  0.00    +0.000 NA
ATOM      8  C   UNL     1       4.061   3.440  18.022  0.00  0.00    +0.000 C 
ATOM      9  S   UNL     1       3.213   2.374  19.143  0.00  0.00    +0.000 S 
ATOM     10  O   UNL     1       3.491   2.782  20.504  0.00  0.00    +0.000 OA
ATOM     11  O   UNL     1       3.454   1.007  18.717  0.00  0.00    +0.000 OA
ATOM     12  C   UNL     1       1.541   2.769  18.746  0.00  0.00    +0.000 C 
ATOM     13  C   UNL     1       1.295   4.216  19.089  0.00  0.00    +0.000 C 
ATOM     14  H   UNL     1       2.982   9.331  17.863  0.00  0.00    +0.000 HD
ENDROOT
BRANCH   6  15
ATOM     15  N   UNL     1       5.462   5.745  16.720  0.00  0.00    +0.000 N 
ATOM     16  C   UNL     1       5.444   5.809  15.241  0.00  0.00    +0.000 C 
ATOM     17  C   UNL     1       6.395   4.757  14.642  0.00  0.00    +0.000 C 
ATOM     18  O   UNL     1       7.726   4.880  15.169  0.00  0.00    +0.000 OA
ATOM     19  C   UNL     1       7.701   4.688  16.584  0.00  0.00    +0.000 C 
ATOM     20  C   UNL     1       6.820   5.733  17.279  0.00  0.00    +0.000 C 
ENDBRANCH   6  15
BRANCH   1  22
ATOM     21  C   UNL     1       0.818  10.320  18.968  0.00  0.00    +0.000 C 
ATOM     22  N   UNL     1       1.330   9.131  19.075  0.00  0.00    +0.000 NA
BRANCH  21  27
ATOM     23  C   UNL     1      -2.157  12.150  20.376  0.00  0.00    +0.000 A 
ATOM     24  C   UNL     1      -1.901  12.127  21.743  0.00  0.00    +0.000 A 
ATOM     25  C   UNL     1      -0.758  11.488  22.235  0.00  0.00    +0.000 A 
ATOM     26  C   UNL     1       0.149  10.856  21.371  0.00  0.00    +0.000 A 
ATOM     27  C   UNL     1      -0.110  10.869  19.990  0.00  0.00    +0.000 A 
ATOM     28  C   UNL     1      -1.275  11.506  19.511  0.00  0.00    +0.000 A 
BRANCH  23  30
ATOM     29  C   UNL     1      -4.264  13.060  21.013  0.00  0.00    +0.000 C 
ATOM     30  O   UNL     1      -3.271  12.857  20.014  0.00  0.00    +0.000 OA
ENDBRANCH  23  30
BRANCH  26  31
ATOM     31  O   UNL     1       1.272  10.410  22.013  0.00  0.00    +0.000 OA
ATOM     32  C   UNL     1       1.214   9.140  22.648  0.00  0.00    +0.000 C 
ENDBRANCH  26  31
ENDBRANCH  21  27
ENDBRANCH   1  22
TORSDOF 5
ENDMDL
MODEL 3
REMARK VINA RESULT:      -8.0      1.199      2.225
REMARK  Name = 
REMARK  7 active torsions:
REMARK  status: ('A' for Active; 'I' for Inactive)
REMARK    1  A    between atoms: C_1  and  O_2
REMARK    2  A    between atoms: O_2  and  C_3
REMARK    3  A    between atoms: C_6  and  O_7
REMARK    4  A    between atoms: O_7  and  C_8
REMARK    5  A    between atoms: C_9  and  C_10
REMARK    6  A    between atoms: N_11  and  N_12
REMARK    7  A    between atoms: C_17  and  N_18
REMARK                            x       y       z     vdW  Elec       q    Type
REMARK                         _______ _______ _______ _____ _____    ______ ____
ROOT
ATOM      1  N   UNL     1       2.318   8.934  17.818  0.00  0.00    +0.000 N 
ATOM      2  C   UNL     1       2.686   7.571  17.902  0.00  0.00    +0.000 A 
ATOM      3  N   UNL     1       1.824   6.679  18.392  0.00  0.00    +0.000 NA
ATOM      4  C   UNL     1       2.214   5.398  18.483  0.00  0.00    +0.000 A 
ATOM      5  C   UNL     1       3.481   4.964  18.090  0.00  0.00    +0.000 A 
ATOM      6  C   UNL     1       4.308   5.937  17.497  0.00  0.00    +0.000 A 
ATOM      7  N   UNL     1       3.897   7.226  17.444  0.00  0.00    +0.000 NA
ATOM      8  C   UNL     1       3.933   3.540  18.259  0.00  0.00    +0.000 C 
ATOM      9  S   UNL     1       2.966   2.596  19.394  0.00  0.00    +0.000 S 
ATOM     10  O   UNL     1       3.184   3.083  20.739  0.00  0.00    +0.000 OA
ATOM     11  O   UNL     1       3.160   1.193  19.074  0.00  0.00    +0.000 OA
ATOM     12  C   UNL     1       1.343   3.043  18.868  0.00  0.00    +0.000 C 
ATOM     13  C   UNL     1       1.154   4.520  19.099  0.00  0.00    +0.000 C 
ATOM     14  H   UNL     1       3.175   9.451  17.645  0.00  0.00    +0.000 HD
ENDROOT
BRANCH   6  15
ATOM     15  N   UNL     1       5.527   5.679  16.898  0.00  0.00    +0.000 N 
ATOM     16  C   UNL     1       5.588   5.586  15.422  0.00  0.00    +0.000 C 
ATOM     17  C   UNL     1       6.534   4.451  14.990  0.00  0.00    +0.000 C 
ATOM     18  O   UNL     1       7.839   4.593  15.573  0.00  0.00    +0.000 OA
ATOM     19  C   UNL     1       7.733   4.553  16.998  0.00  0.00    +0.000 C 
ATOM     20  C   UNL     1       6.852   5.689  17.530  0.00  0.00    +0.000 C 
ENDBRANCH   6  15
BRANCH   1  22
ATOM     21  C   UNL     1       0.945  10.586  18.506  0.00  0.00    +0.000 C 
ATOM     22  N   UNL     1       1.446   9.415  18.762  0.00  0.00    +0.000 NA
BRANCH  21  27
ATOM     23  C   UNL     1      -2.339  11.953  19.743  0.00  0.00    +0.000 A 
ATOM     24  C   UNL     1      -1.970  12.589  20.925  0.00  0.00    +0.000 A 
ATOM     25  C   UNL     1      -0.640  12.561  21.354  0.00  0.00    +0.000 A 
ATOM     26  C   UNL     1       0.348  11.894  20.615  0.00  0.00    +0.000 A 
ATOM     27  C   UNL     1      -0.020  11.243  19.425  0.00  0.00    +0.000 A 
ATOM     28  C   UNL     1      -1.370  11.268  19.012  0.00  0.00    +0.000 A 
BRANCH  23  30
ATOM     29  C   UNL     1      -4.069  11.533  18.162  0.00  0.00    +0.000 C 
ATOM     30  O   UNL     1      -3.654  12.103  19.398  0.00  0.00    +0.000 OA
ENDBRANCH  23  30
BRANCH  26  31
ATOM     31  O   UNL     1       1.608  12.091  21.111  0.00  0.00    +0.000 OA
ATOM     32  C   UNL     1       2.296  13.273  20.727  0.00  0.00    +0.000 C 
ENDBRANCH  26  31
ENDBRANCH  21  27
ENDBRANCH   1  22
TORSDOF 5
ENDMDL
MODEL 4
REMARK VINA RESULT:      -7.9      0.928      1.024
REMARK  Name = 
REMARK  7 active torsions:
REMARK  status: ('A' for Active; 'I' for Inactive)
REMARK    1  A    between atoms: C_1  and  O_2
REMARK    2  A    between atoms: O_2  and  C_3
REMARK    3  A    between atoms: C_6  and  O_7
REMARK    4  A    between atoms: O_7  and  C_8
REMARK    5  A    between atoms: C_9  and  C_10
REMARK    6  A    between atoms: N_11  and  N_12
REMARK    7  A    between atoms: C_17  and  N_18
REMARK                            x       y       z     vdW  Elec       q    Type
REMARK                         _______ _______ _______ _____ _____    ______ ____
ROOT
ATOM      1  N   UNL     1       2.355   9.010  17.803  0.00  0.00    +0.000 N 
ATOM      2  C   UNL     1       2.702   7.644  17.907  0.00  0.00    +0.000 A 
ATOM      3  N   UNL     1       1.814   6.766  18.379  0.00  0.00    +0.000 NA
ATOM      4  C   UNL     1       2.183   5.482  18.490  0.00  0.00    +0.000 A 
ATOM      5  C   UNL     1       3.455   5.027  18.136  0.00  0.00    +0.000 A 
ATOM      6  C   UNL     1       4.311   5.984  17.559  0.00  0.00    +0.000 A 
ATOM      7  N   UNL     1       3.920   7.278  17.485  0.00  0.00    +0.000 NA
ATOM      8  C   UNL     1       3.882   3.598  18.328  0.00  0.00    +0.000 C 
ATOM      9  S   UNL     1       2.870   2.676  19.442  0.00  0.00    +0.000 S 
ATOM     10  O   UNL     1       3.058   3.170  20.789  0.00  0.00    +0.000 OA
ATOM     11  O   UNL     1       3.054   1.268  19.138  0.00  0.00    +0.000 OA
ATOM     12  C   UNL     1       1.269   3.142  18.867  0.00  0.00    +0.000 C 
ATOM     13  C   UNL     1       1.094   4.622  19.083  0.00  0.00    +0.000 C 
ATOM     14  H   UNL     1       3.224   9.514  17.650  0.00  0.00    +0.000 HD
ENDROOT
BRANCH   6  15
ATOM     15  N   UNL     1       5.543   5.704  16.996  0.00  0.00    +0.000 N 
ATOM     16  C   UNL     1       5.643   5.594  15.523  0.00  0.00    +0.000 C 
ATOM     17  C   UNL     1       6.586   4.442  15.130  0.00  0.00    +0.000 C 
ATOM     18  O   UNL     1       7.877   4.576  15.747  0.00  0.00    +0.000 OA
ATOM     19  C   UNL     1       7.732   4.555  17.168  0.00  0.00    +0.000 C 
ATOM     20  C   UNL     1       6.851   5.707  17.663  0.00  0.00    +0.000 C 
ENDBRANCH   6  15
BRANCH   1  22
ATOM     21  C   UNL     1       0.784  10.544  18.322  0.00  0.00    +0.000 C 
ATOM     22  N   UNL     1       1.465   9.511  18.719  0.00  0.00    +0.000 NA
BRANCH  21  27
ATOM     23  C   UNL     1      -0.720  12.022  21.441  0.00  0.00    +0.000 A 
ATOM     24  C   UNL     1      -2.032  12.271  21.050  0.00  0.00    +0.000 A 
ATOM     25  C   UNL     1      -2.445  11.982  19.746  0.00  0.00    +0.000 A 
ATOM     26  C   UNL     1      -1.555  11.443  18.805  0.00  0.00    +0.000 A 
ATOM     27  C   UNL     1      -0.226  11.198  19.192  0.00  0.00    +0.000 A 
ATOM     28  C   UNL     1       0.179  11.509  20.509  0.00  0.00    +0.000 A 
BRANCH  23  30
ATOM     29  C   UNL     1      -1.178  13.355  23.362  0.00  0.00    +0.000 C 
ATOM     30  O   UNL     1      -0.454  12.288  22.757  0.00  0.00    +0.000 OA
ENDBRANCH  23  30
BRANCH  26  31
ATOM     31  O   UNL     1      -2.167  11.096  17.631  0.00  0.00    +0.000 OA
ATOM     32  C   UNL     1      -2.940   9.905  17.612  0.00  0.00    +0.000 C 
ENDBRANCH  26  31
ENDBRANCH  21  27
ENDBRANCH   1  22
TORSDOF 5
ENDMDL
MODEL 5
REMARK VINA RESULT:      -7.5      1.503      1.842
REMARK  Name = 
REMARK  7 active torsions:
REMARK  status: ('A' for Active; 'I' for Inactive)
REMARK    1  A    between atoms: C_1  and  O_2
REMARK    2  A    between atoms: O_2  and  C_3
REMARK    3  A    between atoms: C_6  and  O_7
REMARK    4  A    between atoms: O_7  and  C_8
REMARK    5  A    between atoms: C_9  and  C_10
REMARK    6  A    between atoms: N_11  and  N_12
REMARK    7  A    between atoms: C_17  and  N_18
REMARK                            x       y       z     vdW  Elec       q    Type
REMARK                         _______ _______ _______ _____ _____    ______ ____
ROOT
ATOM      1  N   UNL     1       2.488   8.650  17.957  0.00  0.00    +0.000 N 
ATOM      2  C   UNL     1       2.699   7.323  18.398  0.00  0.00    +0.000 A 
ATOM      3  N   UNL     1       1.738   6.684  19.068  0.00  0.00    +0.000 NA
ATOM      4  C   UNL     1       1.980   5.436  19.496  0.00  0.00    +0.000 A 
ATOM      5  C   UNL     1       3.193   4.782  19.272  0.00  0.00    +0.000 A 
ATOM      6  C   UNL     1       4.129   5.476  18.482  0.00  0.00    +0.000 A 
ATOM      7  N   UNL     1       3.867   6.744  18.087  0.00  0.00    +0.000 NA
ATOM      8  C   UNL     1       3.480   3.409  19.815  0.00  0.00    +0.000 C 
ATOM      9  S   UNL     1       2.403   2.898  21.117  0.00  0.00    +0.000 S 
ATOM     10  O   UNL     1       2.664   3.688  22.300  0.00  0.00    +0.000 OA
ATOM     11  O   UNL     1       2.440   1.448  21.172  0.00  0.00    +0.000 OA
ATOM     12  C   UNL     1       0.845   3.366  20.435  0.00  0.00    +0.000 C 
ATOM     13  C   UNL     1       0.822   4.864  20.276  0.00  0.00    +0.000 C 
ATOM     14  H   UNL     1       3.400   9.009  17.689  0.00  0.00    +0.000 HD
ENDROOT
BRANCH   6  15
ATOM     15  N   UNL     1       5.316   4.942  18.014  0.00  0.00    +0.000 N 
ATOM     16  C   UNL     1       6.510   4.988  18.887  0.00  0.00    +0.000 C 
ATOM     17  C   UNL     1       7.770   5.315  18.065  0.00  0.00    +0.000 C 
ATOM     18  O   UNL     1       7.942   4.403  16.968  0.00  0.00    +0.000 OA
ATOM     19  C   UNL     1       6.816   4.490  16.093  0.00  0.00    +0.000 C 
ATOM     20  C   UNL     1       5.513   4.122  16.812  0.00  0.00    +0.000 C 
ENDBRANCH   6  15
BRANCH   1  22
ATOM     21  C   UNL     1       0.597   9.870  18.113  0.00  0.00    +0.000 C 
ATOM     22  N   UNL     1       1.669   9.448  18.715  0.00  0.00    +0.000 NA
BRANCH  21  27
ATOM     23  C   UNL     1      -1.087  11.714  20.932  0.00  0.00    +0.000 A 
ATOM     24  C   UNL     1      -2.239  12.201  20.322  0.00  0.00    +0.000 A 
ATOM     25  C   UNL     1      -2.476  11.956  18.965  0.00  0.00    +0.000 A 
ATOM     26  C   UNL     1      -1.565  11.223  18.190  0.00  0.00    +0.000 A 
ATOM     27  C   UNL     1      -0.395  10.737  18.799  0.00  0.00    +0.000 A 
ATOM     28  C   UNL     1      -0.164  11.005  20.166  0.00  0.00    +0.000 A 
BRANCH  23  30
ATOM     29  C   UNL     1      -2.219  12.020  23.005  0.00  0.00    +0.000 C 
ATOM     30  O   UNL     1      -0.999  11.966  22.273  0.00  0.00    +0.000 OA
ENDBRANCH  23  30
BRANCH  26  31
ATOM     31  O   UNL     1      -2.027  10.964  16.929  0.00  0.00    +0.000 OA
ATOM     32  C   UNL     1      -2.915   9.869  16.758  0.00  0.00    +0.000 C 
ENDBRANCH  26  31
ENDBRANCH  21  27
ENDBRANCH   1  22
TORSDOF 5
ENDMDL
MODEL 6
REMARK VINA RESULT:      -7.5      3.371      9.928
REMARK  Name = 
REMARK  7 active torsions:
REMARK  status: ('A' for Active; 'I' for Inactive)
REMARK    1  A    between atoms: C_1  and  O_2
REMARK    2  A    between atoms: O_2  and  C_3
REMARK    3  A    between atoms: C_6  and  O_7
REMARK    4  A    between atoms: O_7  and  C_8
REMARK    5  A    between atoms: C_9  and  C_10
REMARK    6  A    between atoms: N_11  and  N_12
REMARK    7  A    between atoms: C_17  and  N_18
REMARK                            x       y       z     vdW  Elec       q    Type
REMARK                         _______ _______ _______ _____ _____    ______ ____
ROOT
ATOM      1  N   UNL     1       1.265   8.750  18.185  0.00  0.00    +0.000 N 
ATOM      2  C   UNL     1       1.226  10.086  18.646  0.00  0.00    +0.000 A 
ATOM      3  N   UNL     1       2.085  10.983  18.157  0.00  0.00    +0.000 NA
ATOM      4  C   UNL     1       2.041  12.235  18.635  0.00  0.00    +0.000 A 
ATOM      5  C   UNL     1       1.138  12.636  19.622  0.00  0.00    +0.000 A 
ATOM      6  C   UNL     1       0.201  11.667  20.029  0.00  0.00    +0.000 A 
ATOM      7  N   UNL     1       0.288  10.405  19.548  0.00  0.00    +0.000 NA
ATOM      8  C   UNL     1       1.142  14.024  20.200  0.00  0.00    +0.000 C 
ATOM      9  S   UNL     1       2.625  14.935  19.907  0.00  0.00    +0.000 S 
ATOM     10  O   UNL     1       3.710  14.352  20.666  0.00  0.00    +0.000 OA
ATOM     11  O   UNL     1       2.306  16.345  20.036  0.00  0.00    +0.000 OA
ATOM     12  C   UNL     1       2.864  14.597  18.193  0.00  0.00    +0.000 C 
ATOM     13  C   UNL     1       3.099  13.119  18.023  0.00  0.00    +0.000 C 
ATOM     14  H   UNL     1       0.706   8.207  18.837  0.00  0.00    +0.000 HD
ENDROOT
BRANCH   6  15
ATOM     15  N   UNL     1      -0.870  11.909  20.869  0.00  0.00    +0.000 N 
ATOM     16  C   UNL     1      -2.162  12.320  20.273  0.00  0.00    +0.000 C 
ATOM     17  C   UNL     1      -2.834  13.405  21.135  0.00  0.00    +0.000 C 
ATOM     18  O   UNL     1      -2.981  12.985  22.501  0.00  0.00    +0.000 OA
ATOM     19  C   UNL     1      -1.694  12.719  23.062  0.00  0.00    +0.000 C 
ATOM     20  C   UNL     1      -0.967  11.604  22.301  0.00  0.00    +0.000 C 
ENDBRANCH   6  15
BRANCH   1  22
ATOM     21  C   UNL     1       2.640   6.973  17.985  0.00  0.00    +0.000 C 
ATOM     22  N   UNL     1       2.480   8.247  17.793  0.00  0.00    +0.000 NA
BRANCH  21  27
ATOM     23  C   UNL     1       6.237   6.548  16.955  0.00  0.00    +0.000 A 
ATOM     24  C   UNL     1       6.319   5.179  16.718  0.00  0.00    +0.000 A 
ATOM     25  C   UNL     1       5.202   4.362  16.915  0.00  0.00    +0.000 A 
ATOM     26  C   UNL     1       3.981   4.895  17.357  0.00  0.00    +0.000 A 
ATOM     27  C   UNL     1       3.895   6.275  17.607  0.00  0.00    +0.000 A 
ATOM     28  C   UNL     1       5.037   7.085  17.417  0.00  0.00    +0.000 A 
BRANCH  23  30
ATOM     29  C   UNL     1       7.858   8.142  17.666  0.00  0.00    +0.000 C 
ATOM     30  O   UNL     1       7.376   7.249  16.668  0.00  0.00    +0.000 OA
ENDBRANCH  23  30
BRANCH  26  31
ATOM     31  O   UNL     1       2.969   3.975  17.358  0.00  0.00    +0.000 OA
ATOM     32  C   UNL     1       3.277   2.647  17.760  0.00  0.00    +0.000 C 
ENDBRANCH  26  31
ENDBRANCH  21  27
ENDBRANCH   1  22
TORSDOF 5
ENDMDL
MODEL 7
REMARK VINA RESULT:      -7.4      1.786      2.902
REMARK  Name = 
REMARK  7 active torsions:
REMARK  status: ('A' for Active; 'I' for Inactive)
REMARK    1  A    between atoms: C_1  and  O_2
REMARK    2  A    between atoms: O_2  and  C_3
REMARK    3  A    between atoms: C_6  and  O_7
REMARK    4  A    between atoms: O_7  and  C_8
REMARK    5  A    between atoms: C_9  and  C_10
REMARK    6  A    between atoms: N_11  and  N_12
REMARK    7  A    between atoms: C_17  and  N_18
REMARK                            x       y       z     vdW  Elec       q    Type
REMARK                         _______ _______ _______ _____ _____    ______ ____
ROOT
ATOM      1  N   UNL     1       2.417   8.542  17.977  0.00  0.00    +0.000 N 
ATOM      2  C   UNL     1       2.656   7.227  18.439  0.00  0.00    +0.000 A 
ATOM      3  N   UNL     1       1.697   6.566  19.089  0.00  0.00    +0.000 NA
ATOM      4  C   UNL     1       1.964   5.331  19.538  0.00  0.00    +0.000 A 
ATOM      5  C   UNL     1       3.203   4.712  19.356  0.00  0.00    +0.000 A 
ATOM      6  C   UNL     1       4.139   5.426  18.584  0.00  0.00    +0.000 A 
ATOM      7  N   UNL     1       3.850   6.681  18.168  0.00  0.00    +0.000 NA
ATOM      8  C   UNL     1       3.516   3.354  19.923  0.00  0.00    +0.000 C 
ATOM      9  S   UNL     1       2.419   2.825  21.199  0.00  0.00    +0.000 S 
ATOM     10  O   UNL     1       2.623   3.634  22.381  0.00  0.00    +0.000 OA
ATOM     11  O   UNL     1       2.499   1.376  21.272  0.00  0.00    +0.000 OA
ATOM     12  C   UNL     1       0.868   3.237  20.470  0.00  0.00    +0.000 C 
ATOM     13  C   UNL     1       0.804   4.732  20.292  0.00  0.00    +0.000 C 
ATOM     14  H   UNL     1       3.325   8.927  17.730  0.00  0.00    +0.000 HD
ENDROOT
BRANCH   6  15
ATOM     15  N   UNL     1       5.354   4.924  18.155  0.00  0.00    +0.000 N 
ATOM     16  C   UNL     1       6.531   5.055  19.043  0.00  0.00    +0.000 C 
ATOM     17  C   UNL     1       7.790   5.401  18.226  0.00  0.00    +0.000 C 
ATOM     18  O   UNL     1       8.017   4.454  17.170  0.00  0.00    +0.000 OA
ATOM     19  C   UNL     1       6.902   4.459  16.276  0.00  0.00    +0.000 C 
ATOM     20  C   UNL     1       5.604   4.066  16.990  0.00  0.00    +0.000 C 
ENDBRANCH   6  15
BRANCH   1  22
ATOM     21  C   UNL     1       0.557   9.816  18.031  0.00  0.00    +0.000 C 
ATOM     22  N   UNL     1       1.554   9.323  18.703  0.00  0.00    +0.000 NA
BRANCH  21  27
ATOM     23  C   UNL     1      -2.743  11.566  18.512  0.00  0.00    +0.000 A 
ATOM     24  C   UNL     1      -2.494  12.371  19.619  0.00  0.00    +0.000 A 
ATOM     25  C   UNL     1      -1.245  12.339  20.248  0.00  0.00    +0.000 A 
ATOM     26  C   UNL     1      -0.221  11.498  19.785  0.00  0.00    +0.000 A 
ATOM     27  C   UNL     1      -0.470  10.676  18.673  0.00  0.00    +0.000 A 
ATOM     28  C   UNL     1      -1.741  10.710  18.059  0.00  0.00    +0.000 A 
BRANCH  23  30
ATOM     29  C   UNL     1      -4.200  11.126  16.680  0.00  0.00    +0.000 C 
ATOM     30  O   UNL     1      -3.979  11.731  17.949  0.00  0.00    +0.000 OA
ENDBRANCH  23  30
BRANCH  26  31
ATOM     31  O   UNL     1       0.967  11.703  20.432  0.00  0.00    +0.000 OA
ATOM     32  C   UNL     1       1.756  12.816  20.034  0.00  0.00    +0.000 C 
ENDBRANCH  26  31
ENDBRANCH  21  27
ENDBRANCH   1  22
TORSDOF 5
ENDMDL
MODEL 8
REMARK VINA RESULT:      -7.4      3.191      9.984
REMARK  Name = 
REMARK  7 active torsions:
REMARK  status: ('A' for Active; 'I' for Inactive)
REMARK    1  A    between atoms: C_1  and  O_2
REMARK    2  A    between atoms: O_2  and  C_3
REMARK    3  A    between atoms: C_6  and  O_7
REMARK    4  A    between atoms: O_7  and  C_8
REMARK    5  A    between atoms: C_9  and  C_10
REMARK    6  A    between atoms: N_11  and  N_12
REMARK    7  A    between atoms: C_17  and  N_18
REMARK                            x       y       z     vdW  Elec       q    Type
REMARK                         _______ _______ _______ _____ _____    ______ ____
ROOT
ATOM      1  N   UNL     1       1.544   8.601  17.757  0.00  0.00    +0.000 N 
ATOM      2  C   UNL     1       1.256   9.928  18.151  0.00  0.00    +0.000 A 
ATOM      3  N   UNL     1       2.186  10.877  18.021  0.00  0.00    +0.000 NA
ATOM      4  C   UNL     1       1.890  12.120  18.430  0.00  0.00    +0.000 A 
ATOM      5  C   UNL     1       0.655  12.459  18.986  0.00  0.00    +0.000 A 
ATOM      6  C   UNL     1      -0.310  11.435  19.011  0.00  0.00    +0.000 A 
ATOM      7  N   UNL     1       0.026  10.185  18.616  0.00  0.00    +0.000 NA
ATOM      8  C   UNL     1       0.358  13.839  19.504  0.00  0.00    +0.000 C 
ATOM      9  S   UNL     1       1.785  14.834  19.797  0.00  0.00    +0.000 S 
ATOM     10  O   UNL     1       2.523  14.305  20.923  0.00  0.00    +0.000 OA
ATOM     11  O   UNL     1       1.363  16.223  19.776  0.00  0.00    +0.000 OA
ATOM     12  C   UNL     1       2.688  14.529  18.312  0.00  0.00    +0.000 C 
ATOM     13  C   UNL     1       3.052  13.068  18.265  0.00  0.00    +0.000 C 
ATOM     14  H   UNL     1       0.808   8.021  18.148  0.00  0.00    +0.000 HD
ENDROOT
BRANCH   6  15
ATOM     15  N   UNL     1      -1.635  11.608  19.368  0.00  0.00    +0.000 N 
ATOM     16  C   UNL     1      -2.687  11.044  18.492  0.00  0.00    +0.000 C 
ATOM     17  C   UNL     1      -3.878  12.015  18.384  0.00  0.00    +0.000 C 
ATOM     18  O   UNL     1      -4.391  12.374  19.677  0.00  0.00    +0.000 OA
ATOM     19  C   UNL     1      -3.368  13.023  20.435  0.00  0.00    +0.000 C 
ATOM     20  C   UNL     1      -2.157  12.108  20.646  0.00  0.00    +0.000 C 
ENDBRANCH   6  15
BRANCH   1  22
ATOM     21  C   UNL     1       3.018   6.894  17.722  0.00  0.00    +0.000 C 
ATOM     22  N   UNL     1       2.842   8.172  17.871  0.00  0.00    +0.000 NA
BRANCH  21  27
ATOM     23  C   UNL     1       6.458   5.822  16.627  0.00  0.00    +0.000 A 
ATOM     24  C   UNL     1       6.877   5.033  17.694  0.00  0.00    +0.000 A 
ATOM     25  C   UNL     1       6.049   4.855  18.807  0.00  0.00    +0.000 A 
ATOM     26  C   UNL     1       4.788   5.466  18.879  0.00  0.00    +0.000 A 
ATOM     27  C   UNL     1       4.364   6.272  17.808  0.00  0.00    +0.000 A 
ATOM     28  C   UNL     1       5.217   6.453  16.698  0.00  0.00    +0.000 A 
BRANCH  23  30
ATOM     29  C   UNL     1       7.098   4.961  14.501  0.00  0.00    +0.000 C 
ATOM     30  O   UNL     1       7.328   5.869  15.573  0.00  0.00    +0.000 OA
ENDBRANCH  23  30
BRANCH  26  31
ATOM     31  O   UNL     1       4.066   5.068  19.971  0.00  0.00    +0.000 OA
ATOM     32  C   UNL     1       3.432   3.798  19.921  0.00  0.00    +0.000 C 
ENDBRANCH  26  31
ENDBRANCH  21  27
ENDBRANCH   1  22
TORSDOF 5
ENDMDL
MODEL 9
REMARK VINA RESULT:      -7.3      3.343     10.053
REMARK  Name = 
REMARK  7 active torsions:
REMARK  status: ('A' for Active; 'I' for Inactive)
REMARK    1  A    between atoms: C_1  and  O_2
REMARK    2  A    between atoms: O_2  and  C_3
REMARK    3  A    between atoms: C_6  and  O_7
REMARK    4  A    between atoms: O_7  and  C_8
REMARK    5  A    between atoms: C_9  and  C_10
REMARK    6  A    between atoms: N_11  and  N_12
REMARK    7  A    between atoms: C_17  and  N_18
REMARK                            x       y       z     vdW  Elec       q    Type
REMARK                         _______ _______ _______ _____ _____    ______ ____
ROOT
ATOM      1  N   UNL     1       1.202   8.855  18.103  0.00  0.00    +0.000 N 
ATOM      2  C   UNL     1       1.144  10.182  18.589  0.00  0.00    +0.000 A 
ATOM      3  N   UNL     1       2.056  11.074  18.198  0.00  0.00    +0.000 NA
ATOM      4  C   UNL     1       1.988  12.317  18.699  0.00  0.00    +0.000 A 
ATOM      5  C   UNL     1       1.007  12.712  19.610  0.00  0.00    +0.000 A 
ATOM      6  C   UNL     1       0.023  11.751  19.911  0.00  0.00    +0.000 A 
ATOM      7  N   UNL     1       0.133  10.498  19.411  0.00  0.00    +0.000 NA
ATOM      8  C   UNL     1       0.981  14.088  20.218  0.00  0.00    +0.000 C 
ATOM      9  S   UNL     1       2.497  14.978  20.079  0.00  0.00    +0.000 S 
ATOM     10  O   UNL     1       3.501  14.361  20.918  0.00  0.00    +0.000 OA
ATOM     11  O   UNL     1       2.190  16.391  20.211  0.00  0.00    +0.000 OA
ATOM     12  C   UNL     1       2.884  14.673  18.385  0.00  0.00    +0.000 C 
ATOM     13  C   UNL     1       3.110  13.195  18.204  0.00  0.00    +0.000 C 
ATOM     14  H   UNL     1       0.579   8.309  18.691  0.00  0.00    +0.000 HD
ENDROOT
BRANCH   6  15
ATOM     15  N   UNL     1      -1.115  11.994  20.657  0.00  0.00    +0.000 N 
ATOM     16  C   UNL     1      -2.360  12.375  19.953  0.00  0.00    +0.000 C 
ATOM     17  C   UNL     1      -3.112  13.466  20.737  0.00  0.00    +0.000 C 
ATOM     18  O   UNL     1      -3.363  13.070  22.094  0.00  0.00    +0.000 OA
ATOM     19  C   UNL     1      -2.122  12.832  22.761  0.00  0.00    +0.000 C 
ATOM     20  C   UNL     1      -1.323  11.713  22.083  0.00  0.00    +0.000 C 
ENDBRANCH   6  15
BRANCH   1  22
ATOM     21  C   UNL     1       2.622   7.103  18.160  0.00  0.00    +0.000 C 
ATOM     22  N   UNL     1       2.440   8.341  17.809  0.00  0.00    +0.000 NA
BRANCH  21  27
ATOM     23  C   UNL     1       5.659   5.932  16.267  0.00  0.00    +0.000 A 
ATOM     24  C   UNL     1       6.232   5.026  17.154  0.00  0.00    +0.000 A 
ATOM     25  C   UNL     1       5.646   4.798  18.404  0.00  0.00    +0.000 A 
ATOM     26  C   UNL     1       4.480   5.474  18.794  0.00  0.00    +0.000 A 
ATOM     27  C   UNL     1       3.903   6.397  17.905  0.00  0.00    +0.000 A 
ATOM     28  C   UNL     1       4.514   6.626  16.653  0.00  0.00    +0.000 A 
BRANCH  23  30
ATOM     29  C   UNL     1       6.986   4.869  14.599  0.00  0.00    +0.000 C 
ATOM     30  O   UNL     1       6.288   6.023  15.055  0.00  0.00    +0.000 OA
ENDBRANCH  23  30
BRANCH  26  31
ATOM     31  O   UNL     1       3.977   5.023  19.983  0.00  0.00    +0.000 OA
ATOM     32  C   UNL     1       3.126   3.885  19.955  0.00  0.00    +0.000 C 
ENDBRANCH  26  31
ENDBRANCH  21  27
ENDBRANCH   1  22
TORSDOF 5
ENDMDL
