MODEL 1
REMARK VINA RESULT:      -7.4      0.000      0.000
REMARK  Name = 
REMARK  4 active torsions:
REMARK  status: ('A' for Active; 'I' for Inactive)
REMARK    1  A    between atoms: C_1  and  N_2
REMARK    2  A    between atoms: N_2  and  C_3
REMARK    3  A    between atoms: C_3  and  C_4
REMARK    4  A    between atoms: N_16  and  C_17
REMARK                            x       y       z     vdW  Elec       q    Type
REMARK                         _______ _______ _______ _____ _____    ______ ____
ROOT
ATOM      1  C   UNL     1       0.977   4.706  20.261  0.00  0.00    +0.000 C 
ATOM      2  N   UNL     1       2.357   4.974  19.828  0.00  0.00    +0.000 N 
ATOM      3  C   UNL     1       3.192   3.879  19.967  0.00  0.00    +0.000 A 
ATOM      4  N   UNL     1       2.953   2.801  20.693  0.00  0.00    +0.000 NA
ATOM      5  N   UNL     1       4.066   2.014  20.630  0.00  0.00    +0.000 NA
ATOM      6  N   UNL     1       4.995   2.559  19.867  0.00  0.00    +0.000 NA
ATOM      7  N   UNL     1       4.451   3.697  19.362  0.00  0.00    +0.000 N 
ENDROOT
BRANCH   7   8
ATOM      8  C   UNL     1       5.169   4.497  18.437  0.00  0.00    +0.000 A 
ATOM      9  C   UNL     1       6.134   5.407  18.878  0.00  0.00    +0.000 A 
ATOM     10  C   UNL     1       7.014   5.999  17.981  0.00  0.00    +0.000 A 
ATOM     11  C   UNL     1       6.881   5.748  16.622  0.00  0.00    +0.000 A 
ATOM     12  C   UNL     1       5.833   4.950  16.159  0.00  0.00    +0.000 A 
ATOM     13  C   UNL     1       4.967   4.329  17.063  0.00  0.00    +0.000 A 
ENDBRANCH   7   8
BRANCH   2  14
ATOM     14  C   UNL     1       2.870   6.295  20.270  0.00  0.00    +0.000 C 
BRANCH  14  15
ATOM     15  C   UNL     1       2.257   7.481  19.534  0.00  0.00    +0.000 A 
ATOM     16  C   UNL     1       2.518   7.755  18.181  0.00  0.00    +0.000 A 
ATOM     17  F   UNL     1       3.288   6.954  17.439  0.00  0.00    +0.000 F 
ATOM     18  C   UNL     1       1.966   8.853  17.519  0.00  0.00    +0.000 A 
ATOM     19  C   UNL     1       1.110   9.712  18.189  0.00  0.00    +0.000 A 
ATOM     20  C   UNL     1       0.841   9.482  19.535  0.00  0.00    +0.000 A 
ATOM     21  C   UNL     1       1.425   8.395  20.207  0.00  0.00    +0.000 A 
ATOM     22 CL   UNL     1       1.071   8.245  21.893  0.00  0.00    +0.000 Cl
ENDBRANCH  14  15
ENDBRANCH   2  14
TORSDOF 3
ENDMDL
MODEL 2
REMARK VINA RESULT:      -7.4      2.809      5.483
REMARK  Name = 
REMARK  4 active torsions:
REMARK  status: ('A' for Active; 'I' for Inactive)
REMARK    1  A    between atoms: C_1  and  N_2
REMARK    2  A    between atoms: N_2  and  C_3
REMARK    3  A    between atoms: C_3  and  C_4
REMARK    4  A    between atoms: N_16  and  C_17
REMARK                            x       y       z     vdW  Elec       q    Type
REMARK                         _______ _______ _______ _____ _____    ______ ____
ROOT
ATOM      1  C   UNL     1       3.558   7.944  17.375  0.00  0.00    +0.000 C 
ATOM      2  N   UNL     1       3.477   6.680  18.122  0.00  0.00    +0.000 N 
ATOM      3  C   UNL     1       2.611   6.741  19.200  0.00  0.00    +0.000 A 
ATOM      4  N   UNL     1       2.134   7.840  19.758  0.00  0.00    +0.000 NA
ATOM      5  N   UNL     1       1.398   7.458  20.842  0.00  0.00    +0.000 NA
ATOM      6  N   UNL     1       1.382   6.145  20.971  0.00  0.00    +0.000 NA
ATOM      7  N   UNL     1       2.066   5.650  19.907  0.00  0.00    +0.000 N 
ENDROOT
BRANCH   7   8
ATOM      8  C   UNL     1       2.180   4.252  19.701  0.00  0.00    +0.000 A 
ATOM      9  C   UNL     1       1.161   3.538  19.064  0.00  0.00    +0.000 A 
ATOM     10  C   UNL     1       1.370   2.236  18.629  0.00  0.00    +0.000 A 
ATOM     11  C   UNL     1       2.577   1.606  18.905  0.00  0.00    +0.000 A 
ATOM     12  C   UNL     1       3.549   2.263  19.662  0.00  0.00    +0.000 A 
ATOM     13  C   UNL     1       3.351   3.583  20.072  0.00  0.00    +0.000 A 
ENDBRANCH   7   8
BRANCH   2  14
ATOM     14  C   UNL     1       4.794   6.029  18.331  0.00  0.00    +0.000 C 
BRANCH  14  15
ATOM     15  C   UNL     1       5.401   5.426  17.069  0.00  0.00    +0.000 A 
ATOM     16  C   UNL     1       4.789   4.383  16.354  0.00  0.00    +0.000 A 
ATOM     17  F   UNL     1       3.602   3.886  16.716  0.00  0.00    +0.000 F 
ATOM     18  C   UNL     1       5.359   3.825  15.208  0.00  0.00    +0.000 A 
ATOM     19  C   UNL     1       6.562   4.309  14.723  0.00  0.00    +0.000 A 
ATOM     20  C   UNL     1       7.206   5.332  15.413  0.00  0.00    +0.000 A 
ATOM     21  C   UNL     1       6.646   5.868  16.584  0.00  0.00    +0.000 A 
ATOM     22 CL   UNL     1       7.566   7.089  17.395  0.00  0.00    +0.000 Cl
ENDBRANCH  14  15
ENDBRANCH   2  14
TORSDOF 3
ENDMDL
MODEL 3
REMARK VINA RESULT:      -7.3      0.302      1.070
REMARK  Name = 
REMARK  4 active torsions:
REMARK  status: ('A' for Active; 'I' for Inactive)
REMARK    1  A    between atoms: C_1  and  N_2
REMARK    2  A    between atoms: N_2  and  C_3
REMARK    3  A    between atoms: C_3  and  C_4
REMARK    4  A    between atoms: N_16  and  C_17
REMARK                            x       y       z     vdW  Elec       q    Type
REMARK                         _______ _______ _______ _____ _____    ______ ____
ROOT
ATOM      1  C   UNL     1       0.974   4.800  20.356  0.00  0.00    +0.000 C 
ATOM      2  N   UNL     1       2.336   5.014  19.847  0.00  0.00    +0.000 N 
ATOM      3  C   UNL     1       3.151   3.904  19.991  0.00  0.00    +0.000 A 
ATOM      4  N   UNL     1       2.921   2.862  20.771  0.00  0.00    +0.000 NA
ATOM      5  N   UNL     1       4.010   2.045  20.687  0.00  0.00    +0.000 NA
ATOM      6  N   UNL     1       4.914   2.534  19.858  0.00  0.00    +0.000 NA
ATOM      7  N   UNL     1       4.374   3.665  19.333  0.00  0.00    +0.000 N 
ENDROOT
BRANCH   7   8
ATOM      8  C   UNL     1       5.064   4.408  18.342  0.00  0.00    +0.000 A 
ATOM      9  C   UNL     1       4.819   4.187  16.984  0.00  0.00    +0.000 A 
ATOM     10  C   UNL     1       5.288   5.075  16.024  0.00  0.00    +0.000 A 
ATOM     11  C   UNL     1       6.080   6.148  16.411  0.00  0.00    +0.000 A 
ATOM     12  C   UNL     1       6.445   6.299  17.750  0.00  0.00    +0.000 A 
ATOM     13  C   UNL     1       5.948   5.424  18.719  0.00  0.00    +0.000 A 
ENDBRANCH   7   8
BRANCH   2  14
ATOM     14  C   UNL     1       2.903   6.337  20.208  0.00  0.00    +0.000 C 
BRANCH  14  15
ATOM     15  C   UNL     1       2.228   7.516  19.515  0.00  0.00    +0.000 A 
ATOM     16  C   UNL     1       2.386   7.785  18.145  0.00  0.00    +0.000 A 
ATOM     17  F   UNL     1       3.106   6.987  17.351  0.00  0.00    +0.000 F 
ATOM     18  C   UNL     1       1.779   8.877  17.521  0.00  0.00    +0.000 A 
ATOM     19  C   UNL     1       0.969   9.732  18.248  0.00  0.00    +0.000 A 
ATOM     20  C   UNL     1       0.801   9.506  19.611  0.00  0.00    +0.000 A 
ATOM     21  C   UNL     1       1.441   8.427  20.243  0.00  0.00    +0.000 A 
ATOM     22 CL   UNL     1       1.213   8.282  21.951  0.00  0.00    +0.000 Cl
ENDBRANCH  14  15
ENDBRANCH   2  14
TORSDOF 3
ENDMDL
MODEL 4
REMARK VINA RESULT:      -7.3      2.902      5.697
REMARK  Name = 
REMARK  4 active torsions:
REMARK  status: ('A' for Active; 'I' for Inactive)
REMARK    1  A    between atoms: C_1  and  N_2
REMARK    2  A    between atoms: N_2  and  C_3
REMARK    3  A    between atoms: C_3  and  C_4
REMARK    4  A    between atoms: N_16  and  C_17
REMARK                            x       y       z     vdW  Elec       q    Type
REMARK                         _______ _______ _______ _____ _____    ______ ____
ROOT
ATOM      1  C   UNL     1       3.460   7.780  17.086  0.00  0.00    +0.000 C 
ATOM      2  N   UNL     1       3.303   6.740  18.114  0.00  0.00    +0.000 N 
ATOM      3  C   UNL     1       2.484   7.129  19.160  0.00  0.00    +0.000 A 
ATOM      4  N   UNL     1       2.118   8.366  19.448  0.00  0.00    +0.000 NA
ATOM      5  N   UNL     1       1.393   8.317  20.603  0.00  0.00    +0.000 NA
ATOM      6  N   UNL     1       1.275   7.078  21.041  0.00  0.00    +0.000 NA
ATOM      7  N   UNL     1       1.878   6.288  20.114  0.00  0.00    +0.000 N 
ENDROOT
BRANCH   7   8
ATOM      8  C   UNL     1       1.871   4.876  20.246  0.00  0.00    +0.000 A 
ATOM      9  C   UNL     1       2.352   4.265  21.407  0.00  0.00    +0.000 A 
ATOM     10  C   UNL     1       2.113   2.919  21.652  0.00  0.00    +0.000 A 
ATOM     11  C   UNL     1       1.461   2.152  20.695  0.00  0.00    +0.000 A 
ATOM     12  C   UNL     1       1.099   2.722  19.473  0.00  0.00    +0.000 A 
ATOM     13  C   UNL     1       1.311   4.083  19.239  0.00  0.00    +0.000 A 
ENDBRANCH   7   8
BRANCH   2  14
ATOM     14  C   UNL     1       4.570   6.045  18.451  0.00  0.00    +0.000 C 
BRANCH  14  15
ATOM     15  C   UNL     1       5.275   5.415  17.254  0.00  0.00    +0.000 A 
ATOM     16  C   UNL     1       4.729   4.345  16.526  0.00  0.00    +0.000 A 
ATOM     17  F   UNL     1       3.524   3.843  16.813  0.00  0.00    +0.000 F 
ATOM     18  C   UNL     1       5.388   3.763  15.442  0.00  0.00    +0.000 A 
ATOM     19  C   UNL     1       6.618   4.249  15.033  0.00  0.00    +0.000 A 
ATOM     20  C   UNL     1       7.198   5.298  15.740  0.00  0.00    +0.000 A 
ATOM     21  C   UNL     1       6.547   5.860  16.851  0.00  0.00    +0.000 A 
ATOM     22 CL   UNL     1       7.391   7.114  17.692  0.00  0.00    +0.000 Cl
ENDBRANCH  14  15
ENDBRANCH   2  14
TORSDOF 3
ENDMDL
MODEL 5
REMARK VINA RESULT:      -7.2      2.821      5.711
REMARK  Name = 
REMARK  4 active torsions:
REMARK  status: ('A' for Active; 'I' for Inactive)
REMARK    1  A    between atoms: C_1  and  N_2
REMARK    2  A    between atoms: N_2  and  C_3
REMARK    3  A    between atoms: C_3  and  C_4
REMARK    4  A    between atoms: N_16  and  C_17
REMARK                            x       y       z     vdW  Elec       q    Type
REMARK                         _______ _______ _______ _____ _____    ______ ____
ROOT
ATOM      1  C   UNL     1       3.410   7.620  17.398  0.00  0.00    +0.000 C 
ATOM      2  N   UNL     1       3.176   6.608  18.439  0.00  0.00    +0.000 N 
ATOM      3  C   UNL     1       2.352   7.057  19.457  0.00  0.00    +0.000 A 
ATOM      4  N   UNL     1       2.043   8.315  19.714  0.00  0.00    +0.000 NA
ATOM      5  N   UNL     1       1.288   8.324  20.851  0.00  0.00    +0.000 NA
ATOM      6  N   UNL     1       1.097   7.100  21.307  0.00  0.00    +0.000 NA
ATOM      7  N   UNL     1       1.681   6.264  20.409  0.00  0.00    +0.000 N 
ENDROOT
BRANCH   7   8
ATOM      8  C   UNL     1       1.599   4.857  20.565  0.00  0.00    +0.000 A 
ATOM      9  C   UNL     1       0.791   4.091  19.720  0.00  0.00    +0.000 A 
ATOM     10  C   UNL     1       0.901   2.707  19.693  0.00  0.00    +0.000 A 
ATOM     11  C   UNL     1       1.765   2.071  20.575  0.00  0.00    +0.000 A 
ATOM     12  C   UNL     1       2.475   2.818  21.517  0.00  0.00    +0.000 A 
ATOM     13  C   UNL     1       2.388   4.212  21.523  0.00  0.00    +0.000 A 
ENDBRANCH   7   8
BRANCH   2  14
ATOM     14  C   UNL     1       4.398   5.856  18.819  0.00  0.00    +0.000 C 
BRANCH  14  15
ATOM     15  C   UNL     1       5.227   5.370  17.635  0.00  0.00    +0.000 A 
ATOM     16  C   UNL     1       6.437   5.975  17.255  0.00  0.00    +0.000 A 
ATOM     17  F   UNL     1       6.961   6.991  17.947  0.00  0.00    +0.000 F 
ATOM     18  C   UNL     1       7.182   5.535  16.160  0.00  0.00    +0.000 A 
ATOM     19  C   UNL     1       6.749   4.452  15.413  0.00  0.00    +0.000 A 
ATOM     20  C   UNL     1       5.547   3.838  15.750  0.00  0.00    +0.000 A 
ATOM     21  C   UNL     1       4.782   4.304  16.832  0.00  0.00    +0.000 A 
ATOM     22 CL   UNL     1       3.275   3.506  17.118  0.00  0.00    +0.000 Cl
ENDBRANCH  14  15
ENDBRANCH   2  14
TORSDOF 3
ENDMDL
MODEL 6
REMARK VINA RESULT:      -7.2      1.585      1.881
REMARK  Name = 
REMARK  4 active torsions:
REMARK  status: ('A' for Active; 'I' for Inactive)
REMARK    1  A    between atoms: C_1  and  N_2
REMARK    2  A    between atoms: N_2  and  C_3
REMARK    3  A    between atoms: C_3  and  C_4
REMARK    4  A    between atoms: N_16  and  C_17
REMARK                            x       y       z     vdW  Elec       q    Type
REMARK                         _______ _______ _______ _____ _____    ______ ____
ROOT
ATOM      1  C   UNL     1       1.103   4.870  20.272  0.00  0.00    +0.000 C 
ATOM      2  N   UNL     1       2.481   4.995  19.773  0.00  0.00    +0.000 N 
ATOM      3  C   UNL     1       3.236   3.851  19.969  0.00  0.00    +0.000 A 
ATOM      4  N   UNL     1       2.944   2.853  20.785  0.00  0.00    +0.000 NA
ATOM      5  N   UNL     1       3.991   1.979  20.746  0.00  0.00    +0.000 NA
ATOM      6  N   UNL     1       4.928   2.390  19.912  0.00  0.00    +0.000 NA
ATOM      7  N   UNL     1       4.452   3.526  19.338  0.00  0.00    +0.000 N 
ENDROOT
BRANCH   7   8
ATOM      8  C   UNL     1       5.191   4.195  18.329  0.00  0.00    +0.000 A 
ATOM      9  C   UNL     1       6.232   5.066  18.665  0.00  0.00    +0.000 A 
ATOM     10  C   UNL     1       7.119   5.519  17.697  0.00  0.00    +0.000 A 
ATOM     11  C   UNL     1       6.922   5.170  16.367  0.00  0.00    +0.000 A 
ATOM     12  C   UNL     1       5.806   4.414  16.004  0.00  0.00    +0.000 A 
ATOM     13  C   UNL     1       4.931   3.932  16.980  0.00  0.00    +0.000 A 
ENDBRANCH   7   8
BRANCH   2  14
ATOM     14  C   UNL     1       3.110   6.301  20.092  0.00  0.00    +0.000 C 
BRANCH  14  15
ATOM     15  C   UNL     1       2.337   7.510  19.575  0.00  0.00    +0.000 A 
ATOM     16  C   UNL     1       1.415   8.217  20.365  0.00  0.00    +0.000 A 
ATOM     17  F   UNL     1       1.194   7.897  21.643  0.00  0.00    +0.000 F 
ATOM     18  C   UNL     1       0.698   9.313  19.879  0.00  0.00    +0.000 A 
ATOM     19  C   UNL     1       0.898   9.755  18.582  0.00  0.00    +0.000 A 
ATOM     20  C   UNL     1       1.793   9.070  17.766  0.00  0.00    +0.000 A 
ATOM     21  C   UNL     1       2.487   7.947  18.247  0.00  0.00    +0.000 A 
ATOM     22 CL   UNL     1       3.522   7.136  17.124  0.00  0.00    +0.000 Cl
ENDBRANCH  14  15
ENDBRANCH   2  14
TORSDOF 3
ENDMDL
MODEL 7
REMARK VINA RESULT:      -7.0      1.612      2.159
REMARK  Name = 
REMARK  4 active torsions:
REMARK  status: ('A' for Active; 'I' for Inactive)
REMARK    1  A    between atoms: C_1  and  N_2
REMARK    2  A    between atoms: N_2  and  C_3
REMARK    3  A    between atoms: C_3  and  C_4
REMARK    4  A    between atoms: N_16  and  C_17
REMARK                            x       y       z     vdW  Elec       q    Type
REMARK                         _______ _______ _______ _____ _____    ______ ____
ROOT
ATOM      1  C   UNL     1       1.223   4.817  19.576  0.00  0.00    +0.000 C 
ATOM      2  N   UNL     1       2.669   5.018  19.400  0.00  0.00    +0.000 N 
ATOM      3  C   UNL     1       3.411   3.878  19.657  0.00  0.00    +0.000 A 
ATOM      4  N   UNL     1       2.993   2.803  20.302  0.00  0.00    +0.000 NA
ATOM      5  N   UNL     1       4.059   1.959  20.417  0.00  0.00    +0.000 NA
ATOM      6  N   UNL     1       5.135   2.466  19.844  0.00  0.00    +0.000 NA
ATOM      7  N   UNL     1       4.747   3.639  19.280  0.00  0.00    +0.000 N 
ENDROOT
BRANCH   7   8
ATOM      8  C   UNL     1       5.657   4.414  18.516  0.00  0.00    +0.000 A 
ATOM      9  C   UNL     1       5.664   4.338  17.121  0.00  0.00    +0.000 A 
ATOM     10  C   UNL     1       6.359   5.271  16.362  0.00  0.00    +0.000 A 
ATOM     11  C   UNL     1       7.124   6.240  16.998  0.00  0.00    +0.000 A 
ATOM     12  C   UNL     1       7.233   6.239  18.390  0.00  0.00    +0.000 A 
ATOM     13  C   UNL     1       6.510   5.321  19.154  0.00  0.00    +0.000 A 
ENDBRANCH   7   8
BRANCH   2  14
ATOM     14  C   UNL     1       3.161   6.302  19.958  0.00  0.00    +0.000 C 
BRANCH  14  15
ATOM     15  C   UNL     1       2.379   7.526  19.493  0.00  0.00    +0.000 A 
ATOM     16  C   UNL     1       1.443   8.185  20.309  0.00  0.00    +0.000 A 
ATOM     17  F   UNL     1       1.217   7.802  21.569  0.00  0.00    +0.000 F 
ATOM     18  C   UNL     1       0.718   9.295  19.870  0.00  0.00    +0.000 A 
ATOM     19  C   UNL     1       0.922   9.801  18.597  0.00  0.00    +0.000 A 
ATOM     20  C   UNL     1       1.830   9.165  17.756  0.00  0.00    +0.000 A 
ATOM     21  C   UNL     1       2.533   8.028  18.188  0.00  0.00    +0.000 A 
ATOM     22 CL   UNL     1       3.585   7.282  17.036  0.00  0.00    +0.000 Cl
ENDBRANCH  14  15
ENDBRANCH   2  14
TORSDOF 3
ENDMDL
MODEL 8
REMARK VINA RESULT:      -7.0      3.093      4.822
REMARK  Name = 
REMARK  4 active torsions:
REMARK  status: ('A' for Active; 'I' for Inactive)
REMARK    1  A    between atoms: C_1  and  N_2
REMARK    2  A    between atoms: N_2  and  C_3
REMARK    3  A    between atoms: C_3  and  C_4
REMARK    4  A    between atoms: N_16  and  C_17
REMARK                            x       y       z     vdW  Elec       q    Type
REMARK                         _______ _______ _______ _____ _____    ______ ____
ROOT
ATOM      1  C   UNL     1       5.309   3.763  19.167  0.00  0.00    +0.000 C 
ATOM      2  N   UNL     1       5.326   4.192  17.761  0.00  0.00    +0.000 N 
ATOM      3  C   UNL     1       6.254   5.188  17.509  0.00  0.00    +0.000 A 
ATOM      4  N   UNL     1       6.852   5.945  18.411  0.00  0.00    +0.000 NA
ATOM      5  N   UNL     1       7.614   6.855  17.737  0.00  0.00    +0.000 NA
ATOM      6  N   UNL     1       7.527   6.678  16.432  0.00  0.00    +0.000 NA
ATOM      7  N   UNL     1       6.745   5.583  16.248  0.00  0.00    +0.000 N 
ENDROOT
BRANCH   7   8
ATOM      8  C   UNL     1       6.503   5.071  14.948  0.00  0.00    +0.000 A 
ATOM      9  C   UNL     1       7.471   5.182  13.946  0.00  0.00    +0.000 A 
ATOM     10  C   UNL     1       7.352   4.465  12.762  0.00  0.00    +0.000 A 
ATOM     11  C   UNL     1       6.218   3.696  12.536  0.00  0.00    +0.000 A 
ATOM     12  C   UNL     1       5.183   3.689  13.472  0.00  0.00    +0.000 A 
ATOM     13  C   UNL     1       5.316   4.384  14.677  0.00  0.00    +0.000 A 
ENDBRANCH   7   8
BRANCH   2  14
ATOM     14  C   UNL     1       3.973   4.344  17.171  0.00  0.00    +0.000 C 
BRANCH  14  15
ATOM     15  C   UNL     1       2.835   3.961  18.111  0.00  0.00    +0.000 A 
ATOM     16  C   UNL     1       2.194   2.711  18.060  0.00  0.00    +0.000 A 
ATOM     17  F   UNL     1       2.583   1.758  17.208  0.00  0.00    +0.000 F 
ATOM     18  C   UNL     1       1.141   2.374  18.913  0.00  0.00    +0.000 A 
ATOM     19  C   UNL     1       0.703   3.276  19.867  0.00  0.00    +0.000 A 
ATOM     20  C   UNL     1       1.303   4.530  19.937  0.00  0.00    +0.000 A 
ATOM     21  C   UNL     1       2.339   4.878  19.056  0.00  0.00    +0.000 A 
ATOM     22 CL   UNL     1       2.965   6.485  19.190  0.00  0.00    +0.000 Cl
ENDBRANCH  14  15
ENDBRANCH   2  14
TORSDOF 3
ENDMDL
MODEL 9
REMARK VINA RESULT:      -7.0      3.528      5.005
REMARK  Name = 
REMARK  4 active torsions:
REMARK  status: ('A' for Active; 'I' for Inactive)
REMARK    1  A    between atoms: C_1  and  N_2
REMARK    2  A    between atoms: N_2  and  C_3
REMARK    3  A    between atoms: C_3  and  C_4
REMARK    4  A    between atoms: N_16  and  C_17
REMARK                            x       y       z     vdW  Elec       q    Type
REMARK                         _______ _______ _______ _____ _____    ______ ____
ROOT
ATOM      1  C   UNL     1       3.243   3.893  16.352  0.00  0.00    +0.000 C 
ATOM      2  N   UNL     1       4.500   4.427  16.897  0.00  0.00    +0.000 N 
ATOM      3  C   UNL     1       5.494   4.559  15.943  0.00  0.00    +0.000 A 
ATOM      4  N   UNL     1       5.509   3.995  14.748  0.00  0.00    +0.000 NA
ATOM      5  N   UNL     1       6.705   4.306  14.168  0.00  0.00    +0.000 NA
ATOM      6  N   UNL     1       7.437   5.069  14.959  0.00  0.00    +0.000 NA
ATOM      7  N   UNL     1       6.674   5.321  16.054  0.00  0.00    +0.000 N 
ENDROOT
BRANCH   7   8
ATOM      8  C   UNL     1       7.140   6.179  17.083  0.00  0.00    +0.000 A 
ATOM      9  C   UNL     1       7.531   5.662  18.321  0.00  0.00    +0.000 A 
ATOM     10  C   UNL     1       8.225   6.448  19.232  0.00  0.00    +0.000 A 
ATOM     11  C   UNL     1       8.459   7.787  18.945  0.00  0.00    +0.000 A 
ATOM     12  C   UNL     1       7.951   8.347  17.772  0.00  0.00    +0.000 A 
ATOM     13  C   UNL     1       7.281   7.549  16.841  0.00  0.00    +0.000 A 
ENDBRANCH   7   8
BRANCH   2  14
ATOM     14  C   UNL     1       4.875   3.838  18.207  0.00  0.00    +0.000 C 
BRANCH  14  15
ATOM     15  C   UNL     1       3.724   3.746  19.204  0.00  0.00    +0.000 A 
ATOM     16  C   UNL     1       3.274   4.848  19.950  0.00  0.00    +0.000 A 
ATOM     17  F   UNL     1       3.802   6.065  19.793  0.00  0.00    +0.000 F 
ATOM     18  C   UNL     1       2.231   4.752  20.873  0.00  0.00    +0.000 A 
ATOM     19  C   UNL     1       1.583   3.543  21.067  0.00  0.00    +0.000 A 
ATOM     20  C   UNL     1       2.011   2.426  20.357  0.00  0.00    +0.000 A 
ATOM     21  C   UNL     1       3.083   2.519  19.454  0.00  0.00    +0.000 A 
ATOM     22 CL   UNL     1       3.572   1.052  18.677  0.00  0.00    +0.000 Cl
ENDBRANCH  14  15
ENDBRANCH   2  14
TORSDOF 3
ENDMDL
