MODEL 1
REMARK VINA RESULT:      -8.1      0.000      0.000
REMARK  Name = 
REMARK  3 active torsions:
REMARK  status: ('A' for Active; 'I' for Inactive)
REMARK    1  A    between atoms: C_2  and  O_3
REMARK    2  A    between atoms: C_2  and  C_4
REMARK    3  A    between atoms: C_8  and  C_9
REMARK                            x       y       z     vdW  Elec       q    Type
REMARK                         _______ _______ _______ _____ _____    ______ ____
ROOT
ATOM      1  C   UNL     1       4.157   3.886  18.314  0.00  0.00    +0.000 A 
ATOM      2  N   UNL     1       4.142   3.457  19.543  0.00  0.00    +0.000 NA
ATOM      3  C   UNL     1       2.906   3.207  20.062  0.00  0.00    +0.000 A 
ATOM      4  C   UNL     1       1.744   3.362  19.427  0.00  0.00    +0.000 A 
ATOM      5  C   UNL     1       1.755   3.833  18.045  0.00  0.00    +0.000 A 
ATOM      6  O   UNL     1       0.732   3.994  17.394  0.00  0.00    +0.000 OA
ATOM      7  N   UNL     1       3.014   4.068  17.562  0.00  0.00    +0.000 N 
ATOM      8  C   UNL     1       0.567   3.004  20.246  0.00  0.00    +0.000 C 
ATOM      9  C   UNL     1       1.189   2.788  21.635  0.00  0.00    +0.000 C 
ATOM     10  C   UNL     1       2.711   2.705  21.449  0.00  0.00    +0.000 C 
ATOM     11  H   UNL     1       3.104   4.397  16.608  0.00  0.00    +0.000 HD
ENDROOT
BRANCH   1  16
ATOM     12  C   UNL     1       6.699   4.496  15.636  0.00  0.00    +0.000 A 
ATOM     13  C   UNL     1       7.816   4.777  16.425  0.00  0.00    +0.000 A 
ATOM     14  C   UNL     1       7.663   4.776  17.800  0.00  0.00    +0.000 A 
ATOM     15  N   UNL     1       6.493   4.511  18.424  0.00  0.00    +0.000 NA
ATOM     16  C   UNL     1       5.435   4.210  17.625  0.00  0.00    +0.000 A 
ATOM     17  C   UNL     1       5.486   4.184  16.240  0.00  0.00    +0.000 A 
BRANCH  12  19
ATOM     18  O   UNL     1       7.437   5.374  13.568  0.00  0.00    +0.000 OA
ATOM     19  C   UNL     1       6.855   4.489  14.166  0.00  0.00    +0.000 C 
BRANCH  19  20
ATOM     20  O   UNL     1       6.260   3.446  13.553  0.00  0.00    +0.000 OA
ATOM     21  H   UNL     1       5.382   3.187  13.890  0.00  0.00    +0.000 HD
ENDBRANCH  19  20
ENDBRANCH  12  19
ENDBRANCH   1  16
TORSDOF 3
ENDMDL
MODEL 2
REMARK VINA RESULT:      -8.0      1.782      2.340
REMARK  Name = 
REMARK  3 active torsions:
REMARK  status: ('A' for Active; 'I' for Inactive)
REMARK    1  A    between atoms: C_2  and  O_3
REMARK    2  A    between atoms: C_2  and  C_4
REMARK    3  A    between atoms: C_8  and  C_9
REMARK                            x       y       z     vdW  Elec       q    Type
REMARK                         _______ _______ _______ _____ _____    ______ ____
ROOT
ATOM      1  C   UNL     1       4.581   3.795  18.101  0.00  0.00    +0.000 A 
ATOM      2  N   UNL     1       3.345   4.186  18.205  0.00  0.00    +0.000 NA
ATOM      3  C   UNL     1       2.675   3.727  19.301  0.00  0.00    +0.000 A 
ATOM      4  C   UNL     1       3.173   2.933  20.248  0.00  0.00    +0.000 A 
ATOM      5  C   UNL     1       4.563   2.500  20.142  0.00  0.00    +0.000 A 
ATOM      6  O   UNL     1       5.095   1.777  20.973  0.00  0.00    +0.000 OA
ATOM      7  N   UNL     1       5.200   2.985  19.032  0.00  0.00    +0.000 N 
ATOM      8  C   UNL     1       2.208   2.608  21.319  0.00  0.00    +0.000 C 
ATOM      9  C   UNL     1       0.896   3.180  20.761  0.00  0.00    +0.000 C 
ATOM     10  C   UNL     1       1.256   4.085  19.575  0.00  0.00    +0.000 C 
ATOM     11  H   UNL     1       6.169   2.728  18.889  0.00  0.00    +0.000 HD
ENDROOT
BRANCH   1  16
ATOM     12  C   UNL     1       5.964   4.129  14.640  0.00  0.00    +0.000 A 
ATOM     13  C   UNL     1       7.043   4.978  14.893  0.00  0.00    +0.000 A 
ATOM     14  C   UNL     1       7.240   5.416  16.190  0.00  0.00    +0.000 A 
ATOM     15  N   UNL     1       6.451   5.063  17.228  0.00  0.00    +0.000 NA
ATOM     16  C   UNL     1       5.429   4.210  16.950  0.00  0.00    +0.000 A 
ATOM     17  C   UNL     1       5.149   3.715  15.687  0.00  0.00    +0.000 A 
BRANCH  12  19
ATOM     18  O   UNL     1       4.682   3.767  12.685  0.00  0.00    +0.000 OA
ATOM     19  C   UNL     1       5.750   3.651  13.256  0.00  0.00    +0.000 C 
BRANCH  19  20
ATOM     20  O   UNL     1       6.821   3.039  12.713  0.00  0.00    +0.000 OA
ATOM     21  H   UNL     1       7.250   2.350  13.253  0.00  0.00    +0.000 HD
ENDBRANCH  19  20
ENDBRANCH  12  19
ENDBRANCH   1  16
TORSDOF 3
ENDMDL
MODEL 3
REMARK VINA RESULT:      -7.8      1.764      2.301
REMARK  Name = 
REMARK  3 active torsions:
REMARK  status: ('A' for Active; 'I' for Inactive)
REMARK    1  A    between atoms: C_2  and  O_3
REMARK    2  A    between atoms: C_2  and  C_4
REMARK    3  A    between atoms: C_8  and  C_9
REMARK                            x       y       z     vdW  Elec       q    Type
REMARK                         _______ _______ _______ _____ _____    ______ ____
ROOT
ATOM      1  C   UNL     1       4.725   4.178  18.790  0.00  0.00    +0.000 A 
ATOM      2  N   UNL     1       3.486   4.551  18.922  0.00  0.00    +0.000 NA
ATOM      3  C   UNL     1       2.755   3.849  19.834  0.00  0.00    +0.000 A 
ATOM      4  C   UNL     1       3.198   2.838  20.582  0.00  0.00    +0.000 A 
ATOM      5  C   UNL     1       4.591   2.420  20.446  0.00  0.00    +0.000 A 
ATOM      6  O   UNL     1       5.074   1.507  21.100  0.00  0.00    +0.000 OA
ATOM      7  N   UNL     1       5.289   3.153  19.524  0.00  0.00    +0.000 N 
ATOM      8  C   UNL     1       2.175   2.275  21.487  0.00  0.00    +0.000 C 
ATOM      9  C   UNL     1       0.897   2.988  21.020  0.00  0.00    +0.000 C 
ATOM     10  C   UNL     1       1.325   4.152  20.113  0.00  0.00    +0.000 C 
ATOM     11  H   UNL     1       6.264   2.924  19.373  0.00  0.00    +0.000 HD
ENDROOT
BRANCH   1  16
ATOM     12  C   UNL     1       6.560   5.044  15.646  0.00  0.00    +0.000 A 
ATOM     13  C   UNL     1       7.352   6.095  16.112  0.00  0.00    +0.000 A 
ATOM     14  C   UNL     1       7.218   6.478  17.434  0.00  0.00    +0.000 A 
ATOM     15  N   UNL     1       6.368   5.888  18.303  0.00  0.00    +0.000 NA
ATOM     16  C   UNL     1       5.635   4.848  17.823  0.00  0.00    +0.000 A 
ATOM     17  C   UNL     1       5.698   4.388  16.517  0.00  0.00    +0.000 A 
BRANCH  12  19
ATOM     18  O   UNL     1       6.107   3.666  13.777  0.00  0.00    +0.000 OA
ATOM     19  C   UNL     1       6.702   4.623  14.235  0.00  0.00    +0.000 C 
BRANCH  19  20
ATOM     20  O   UNL     1       7.577   5.363  13.525  0.00  0.00    +0.000 OA
ATOM     21  H   UNL     1       8.388   4.910  13.226  0.00  0.00    +0.000 HD
ENDBRANCH  19  20
ENDBRANCH  12  19
ENDBRANCH   1  16
TORSDOF 3
ENDMDL
MODEL 4
REMARK VINA RESULT:      -7.7      1.917      2.441
REMARK  Name = 
REMARK  3 active torsions:
REMARK  status: ('A' for Active; 'I' for Inactive)
REMARK    1  A    between atoms: C_2  and  O_3
REMARK    2  A    between atoms: C_2  and  C_4
REMARK    3  A    between atoms: C_8  and  C_9
REMARK                            x       y       z     vdW  Elec       q    Type
REMARK                         _______ _______ _______ _____ _____    ______ ____
ROOT
ATOM      1  C   UNL     1       4.039   4.292  18.450  0.00  0.00    +0.000 A 
ATOM      2  N   UNL     1       2.865   4.545  18.952  0.00  0.00    +0.000 NA
ATOM      3  C   UNL     1       2.498   3.763  20.007  0.00  0.00    +0.000 A 
ATOM      4  C   UNL     1       3.225   2.788  20.551  0.00  0.00    +0.000 A 
ATOM      5  C   UNL     1       4.548   2.506  19.998  0.00  0.00    +0.000 A 
ATOM      6  O   UNL     1       5.278   1.632  20.444  0.00  0.00    +0.000 OA
ATOM      7  N   UNL     1       4.878   3.314  18.944  0.00  0.00    +0.000 N 
ATOM      8  C   UNL     1       2.565   2.118  21.690  0.00  0.00    +0.000 C 
ATOM      9  C   UNL     1       1.150   2.714  21.644  0.00  0.00    +0.000 C 
ATOM     10  C   UNL     1       1.192   3.926  20.702  0.00  0.00    +0.000 C 
ATOM     11  H   UNL     1       5.782   3.180  18.507  0.00  0.00    +0.000 HD
ENDROOT
BRANCH   1  16
ATOM     12  C   UNL     1       5.810   5.166  15.271  0.00  0.00    +0.000 A 
ATOM     13  C   UNL     1       5.527   6.531  15.206  0.00  0.00    +0.000 A 
ATOM     14  C   UNL     1       4.743   7.085  16.202  0.00  0.00    +0.000 A 
ATOM     15  N   UNL     1       4.241   6.379  17.240  0.00  0.00    +0.000 NA
ATOM     16  C   UNL     1       4.564   5.059  17.288  0.00  0.00    +0.000 A 
ATOM     17  C   UNL     1       5.342   4.412  16.341  0.00  0.00    +0.000 A 
BRANCH  12  19
ATOM     18  O   UNL     1       7.541   5.187  13.659  0.00  0.00    +0.000 OA
ATOM     19  C   UNL     1       6.653   4.567  14.213  0.00  0.00    +0.000 C 
BRANCH  19  20
ATOM     20  O   UNL     1       6.317   3.301  13.891  0.00  0.00    +0.000 OA
ATOM     21  H   UNL     1       5.715   2.841  14.506  0.00  0.00    +0.000 HD
ENDBRANCH  19  20
ENDBRANCH  12  19
ENDBRANCH   1  16
TORSDOF 3
ENDMDL
MODEL 5
REMARK VINA RESULT:      -7.7      2.077      2.550
REMARK  Name = 
REMARK  3 active torsions:
REMARK  status: ('A' for Active; 'I' for Inactive)
REMARK    1  A    between atoms: C_2  and  O_3
REMARK    2  A    between atoms: C_2  and  C_4
REMARK    3  A    between atoms: C_8  and  C_9
REMARK                            x       y       z     vdW  Elec       q    Type
REMARK                         _______ _______ _______ _____ _____    ______ ____
ROOT
ATOM      1  C   UNL     1       4.081   4.299  18.266  0.00  0.00    +0.000 A 
ATOM      2  N   UNL     1       4.127   3.816  19.473  0.00  0.00    +0.000 NA
ATOM      3  C   UNL     1       2.933   3.395  19.982  0.00  0.00    +0.000 A 
ATOM      4  C   UNL     1       1.757   3.438  19.357  0.00  0.00    +0.000 A 
ATOM      5  C   UNL     1       1.701   3.970  17.998  0.00  0.00    +0.000 A 
ATOM      6  O   UNL     1       0.662   4.036  17.357  0.00  0.00    +0.000 OA
ATOM      7  N   UNL     1       2.919   4.376  17.525  0.00  0.00    +0.000 N 
ATOM      8  C   UNL     1       0.638   2.904  20.161  0.00  0.00    +0.000 C 
ATOM      9  C   UNL     1       1.291   2.701  21.536  0.00  0.00    +0.000 C 
ATOM     10  C   UNL     1       2.810   2.810  21.345  0.00  0.00    +0.000 C 
ATOM     11  H   UNL     1       2.963   4.757  16.587  0.00  0.00    +0.000 HD
ENDROOT
BRANCH   1  16
ATOM     12  C   UNL     1       7.092   6.360  17.436  0.00  0.00    +0.000 A 
ATOM     13  C   UNL     1       7.522   5.704  16.281  0.00  0.00    +0.000 A 
ATOM     14  C   UNL     1       6.808   4.599  15.852  0.00  0.00    +0.000 A 
ATOM     15  N   UNL     1       5.713   4.123  16.486  0.00  0.00    +0.000 NA
ATOM     16  C   UNL     1       5.306   4.805  17.589  0.00  0.00    +0.000 A 
ATOM     17  C   UNL     1       5.951   5.922  18.097  0.00  0.00    +0.000 A 
BRANCH  12  19
ATOM     18  O   UNL     1       7.830   8.603  17.295  0.00  0.00    +0.000 OA
ATOM     19  C   UNL     1       7.846   7.547  17.897  0.00  0.00    +0.000 C 
BRANCH  19  20
ATOM     20  O   UNL     1       8.581   7.335  19.008  0.00  0.00    +0.000 OA
ATOM     21  H   UNL     1       9.549   7.325  18.893  0.00  0.00    +0.000 HD
ENDBRANCH  19  20
ENDBRANCH  12  19
ENDBRANCH   1  16
TORSDOF 3
ENDMDL
MODEL 6
REMARK VINA RESULT:      -7.6      2.790      3.710
REMARK  Name = 
REMARK  3 active torsions:
REMARK  status: ('A' for Active; 'I' for Inactive)
REMARK    1  A    between atoms: C_2  and  O_3
REMARK    2  A    between atoms: C_2  and  C_4
REMARK    3  A    between atoms: C_8  and  C_9
REMARK                            x       y       z     vdW  Elec       q    Type
REMARK                         _______ _______ _______ _____ _____    ______ ____
ROOT
ATOM      1  C   UNL     1       5.282   4.950  16.307  0.00  0.00    +0.000 A 
ATOM      2  N   UNL     1       4.511   5.981  16.498  0.00  0.00    +0.000 NA
ATOM      3  C   UNL     1       3.949   6.072  17.737  0.00  0.00    +0.000 A 
ATOM      4  C   UNL     1       4.122   5.212  18.741  0.00  0.00    +0.000 A 
ATOM      5  C   UNL     1       4.994   4.058  18.536  0.00  0.00    +0.000 A 
ATOM      6  O   UNL     1       5.208   3.229  19.409  0.00  0.00    +0.000 OA
ATOM      7  N   UNL     1       5.540   4.007  17.282  0.00  0.00    +0.000 N 
ATOM      8  C   UNL     1       3.387   5.577  19.970  0.00  0.00    +0.000 C 
ATOM      9  C   UNL     1       2.514   6.748  19.493  0.00  0.00    +0.000 C 
ATOM     10  C   UNL     1       3.048   7.192  18.124  0.00  0.00    +0.000 C 
ATOM     11  H   UNL     1       6.158   3.235  17.063  0.00  0.00    +0.000 HD
ENDROOT
BRANCH   1  16
ATOM     12  C   UNL     1       6.027   3.676  12.869  0.00  0.00    +0.000 A 
ATOM     13  C   UNL     1       7.252   4.307  12.639  0.00  0.00    +0.000 A 
ATOM     14  C   UNL     1       7.752   5.141  13.623  0.00  0.00    +0.000 A 
ATOM     15  N   UNL     1       7.126   5.374  14.797  0.00  0.00    +0.000 NA
ATOM     16  C   UNL     1       5.952   4.718  14.999  0.00  0.00    +0.000 A 
ATOM     17  C   UNL     1       5.369   3.862  14.078  0.00  0.00    +0.000 A 
BRANCH  12  19
ATOM     18  O   UNL     1       4.403   2.958  11.307  0.00  0.00    +0.000 OA
ATOM     19  C   UNL     1       5.488   2.777  11.825  0.00  0.00    +0.000 C 
BRANCH  19  20
ATOM     20  O   UNL     1       6.282   1.726  11.539  0.00  0.00    +0.000 OA
ATOM     21  H   UNL     1       6.409   1.520  10.594  0.00  0.00    +0.000 HD
ENDBRANCH  19  20
ENDBRANCH  12  19
ENDBRANCH   1  16
TORSDOF 3
ENDMDL
MODEL 7
REMARK VINA RESULT:      -7.6      2.360      6.702
REMARK  Name = 
REMARK  3 active torsions:
REMARK  status: ('A' for Active; 'I' for Inactive)
REMARK    1  A    between atoms: C_2  and  O_3
REMARK    2  A    between atoms: C_2  and  C_4
REMARK    3  A    between atoms: C_8  and  C_9
REMARK                            x       y       z     vdW  Elec       q    Type
REMARK                         _______ _______ _______ _____ _____    ______ ____
ROOT
ATOM      1  C   UNL     1       4.613   5.257  17.587  0.00  0.00    +0.000 A 
ATOM      2  N   UNL     1       4.431   4.445  16.587  0.00  0.00    +0.000 NA
ATOM      3  C   UNL     1       5.397   4.473  15.625  0.00  0.00    +0.000 A 
ATOM      4  C   UNL     1       6.483   5.245  15.628  0.00  0.00    +0.000 A 
ATOM      5  C   UNL     1       6.698   6.152  16.752  0.00  0.00    +0.000 A 
ATOM      6  O   UNL     1       7.673   6.887  16.832  0.00  0.00    +0.000 OA
ATOM      7  N   UNL     1       5.709   6.089  17.696  0.00  0.00    +0.000 N 
ATOM      8  C   UNL     1       7.354   5.050  14.450  0.00  0.00    +0.000 C 
ATOM      9  C   UNL     1       6.498   4.140  13.558  0.00  0.00    +0.000 C 
ATOM     10  C   UNL     1       5.346   3.602  14.419  0.00  0.00    +0.000 C 
ATOM     11  H   UNL     1       5.788   6.689  18.509  0.00  0.00    +0.000 HD
ENDROOT
BRANCH   1  16
ATOM     12  C   UNL     1       2.417   4.325  20.471  0.00  0.00    +0.000 A 
ATOM     13  C   UNL     1       1.801   5.554  20.710  0.00  0.00    +0.000 A 
ATOM     14  C   UNL     1       2.163   6.632  19.923  0.00  0.00    +0.000 A 
ATOM     15  N   UNL     1       3.076   6.561  18.929  0.00  0.00    +0.000 NA
ATOM     16  C   UNL     1       3.633   5.341  18.704  0.00  0.00    +0.000 A 
ATOM     17  C   UNL     1       3.336   4.202  19.435  0.00  0.00    +0.000 A 
BRANCH  12  19
ATOM     18  O   UNL     1       2.834   2.553  21.981  0.00  0.00    +0.000 OA
ATOM     19  C   UNL     1       2.031   3.166  21.304  0.00  0.00    +0.000 C 
BRANCH  19  20
ATOM     20  O   UNL     1       0.729   2.827  21.207  0.00  0.00    +0.000 OA
ATOM     21  H   UNL     1       0.482   1.947  21.549  0.00  0.00    +0.000 HD
ENDBRANCH  19  20
ENDBRANCH  12  19
ENDBRANCH   1  16
TORSDOF 3
ENDMDL
MODEL 8
REMARK VINA RESULT:      -7.5      2.665      3.350
REMARK  Name = 
REMARK  3 active torsions:
REMARK  status: ('A' for Active; 'I' for Inactive)
REMARK    1  A    between atoms: C_2  and  O_3
REMARK    2  A    between atoms: C_2  and  C_4
REMARK    3  A    between atoms: C_8  and  C_9
REMARK                            x       y       z     vdW  Elec       q    Type
REMARK                         _______ _______ _______ _____ _____    ______ ____
ROOT
ATOM      1  C   UNL     1       4.705   4.121  18.914  0.00  0.00    +0.000 A 
ATOM      2  N   UNL     1       3.463   4.489  19.032  0.00  0.00    +0.000 NA
ATOM      3  C   UNL     1       2.719   3.770  19.921  0.00  0.00    +0.000 A 
ATOM      4  C   UNL     1       3.152   2.749  20.659  0.00  0.00    +0.000 A 
ATOM      5  C   UNL     1       4.548   2.337  20.539  0.00  0.00    +0.000 A 
ATOM      6  O   UNL     1       5.023   1.414  21.186  0.00  0.00    +0.000 OA
ATOM      7  N   UNL     1       5.259   3.086  19.641  0.00  0.00    +0.000 N 
ATOM      8  C   UNL     1       2.116   2.169  21.538  0.00  0.00    +0.000 C 
ATOM      9  C   UNL     1       0.844   2.886  21.061  0.00  0.00    +0.000 C 
ATOM     10  C   UNL     1       1.283   4.065  20.181  0.00  0.00    +0.000 C 
ATOM     11  H   UNL     1       6.237   2.862  19.502  0.00  0.00    +0.000 HD
ENDROOT
BRANCH   1  16
ATOM     12  C   UNL     1       7.163   6.552  17.482  0.00  0.00    +0.000 A 
ATOM     13  C   UNL     1       7.278   6.043  16.187  0.00  0.00    +0.000 A 
ATOM     14  C   UNL     1       6.556   4.907  15.864  0.00  0.00    +0.000 A 
ATOM     15  N   UNL     1       5.740   4.267  16.731  0.00  0.00    +0.000 NA
ATOM     16  C   UNL     1       5.629   4.809  17.973  0.00  0.00    +0.000 A 
ATOM     17  C   UNL     1       6.308   5.942  18.392  0.00  0.00    +0.000 A 
BRANCH  12  19
ATOM     18  O   UNL     1       7.931   8.761  17.128  0.00  0.00    +0.000 OA
ATOM     19  C   UNL     1       7.926   7.770  17.833  0.00  0.00    +0.000 C 
BRANCH  19  20
ATOM     20  O   UNL     1       8.644   7.662  18.969  0.00  0.00    +0.000 OA
ATOM     21  H   UNL     1       8.528   8.373  19.627  0.00  0.00    +0.000 HD
ENDBRANCH  19  20
ENDBRANCH  12  19
ENDBRANCH   1  16
TORSDOF 3
ENDMDL
MODEL 9
REMARK VINA RESULT:      -7.5      3.150      4.484
REMARK  Name = 
REMARK  3 active torsions:
REMARK  status: ('A' for Active; 'I' for Inactive)
REMARK    1  A    between atoms: C_2  and  O_3
REMARK    2  A    between atoms: C_2  and  C_4
REMARK    3  A    between atoms: C_8  and  C_9
REMARK                            x       y       z     vdW  Elec       q    Type
REMARK                         _______ _______ _______ _____ _____    ______ ____
ROOT
ATOM      1  C   UNL     1       6.223   4.809  15.778  0.00  0.00    +0.000 A 
ATOM      2  N   UNL     1       4.996   5.063  16.129  0.00  0.00    +0.000 NA
ATOM      3  C   UNL     1       4.791   5.231  17.467  0.00  0.00    +0.000 A 
ATOM      4  C   UNL     1       5.723   5.158  18.417  0.00  0.00    +0.000 A 
ATOM      5  C   UNL     1       7.104   4.883  18.029  0.00  0.00    +0.000 A 
ATOM      6  O   UNL     1       8.016   4.808  18.840  0.00  0.00    +0.000 OA
ATOM      7  N   UNL     1       7.266   4.726  16.679  0.00  0.00    +0.000 N 
ATOM      8  C   UNL     1       5.201   5.391  19.780  0.00  0.00    +0.000 C 
ATOM      9  C   UNL     1       3.683   5.416  19.549  0.00  0.00    +0.000 C 
ATOM     10  C   UNL     1       3.450   5.534  18.036  0.00  0.00    +0.000 C 
ATOM     11  H   UNL     1       8.198   4.533  16.331  0.00  0.00    +0.000 HD
ENDROOT
BRANCH   1  16
ATOM     12  C   UNL     1       6.321   3.433  12.300  0.00  0.00    +0.000 A 
ATOM     13  C   UNL     1       7.337   4.222  11.758  0.00  0.00    +0.000 A 
ATOM     14  C   UNL     1       7.918   5.185  12.564  0.00  0.00    +0.000 A 
ATOM     15  N   UNL     1       7.561   5.400  13.849  0.00  0.00    +0.000 NA
ATOM     16  C   UNL     1       6.590   4.592  14.353  0.00  0.00    +0.000 A 
ATOM     17  C   UNL     1       5.949   3.600  13.629  0.00  0.00    +0.000 A 
BRANCH  12  19
ATOM     18  O   UNL     1       4.543   2.465  11.076  0.00  0.00    +0.000 OA
ATOM     19  C   UNL     1       5.699   2.396  11.447  0.00  0.00    +0.000 C 
BRANCH  19  20
ATOM     20  O   UNL     1       6.510   1.358  11.162  0.00  0.00    +0.000 OA
ATOM     21  H   UNL     1       6.837   1.300  10.245  0.00  0.00    +0.000 HD
ENDBRANCH  19  20
ENDBRANCH  12  19
ENDBRANCH   1  16
TORSDOF 3
ENDMDL
