MODEL 1
REMARK VINA RESULT:      -6.8      0.000      0.000
REMARK  Name = 
REMARK  5 active torsions:
REMARK  status: ('A' for Active; 'I' for Inactive)
REMARK    1  A    between atoms: C_2  and  O_4
REMARK    2  A    between atoms: O_4  and  C_5
REMARK    3  A    between atoms: C_8  and  S_9
REMARK    4  A    between atoms: S_9  and  C_10
REMARK    5  A    between atoms: C_13  and  O_14
REMARK                            x       y       z     vdW  Elec       q    Type
REMARK                         _______ _______ _______ _____ _____    ______ ____
ROOT
ATOM      1  C   UNL     1       6.490   6.211  16.706  0.00  0.00    +0.000 A 
ATOM      2  C   UNL     1       6.713   4.919  16.234  0.00  0.00    +0.000 A 
ATOM      3  C   UNL     1       5.663   3.995  16.236  0.00  0.00    +0.000 A 
ATOM      4  C   UNL     1       4.405   4.350  16.740  0.00  0.00    +0.000 A 
ATOM      5  C   UNL     1       4.191   5.656  17.194  0.00  0.00    +0.000 A 
ATOM      6  C   UNL     1       5.235   6.586  17.187  0.00  0.00    +0.000 A 
ENDROOT
BRANCH   1   7
ATOM      7  O   UNL     1       7.613   7.063  16.809  0.00  0.00    +0.000 OA
BRANCH   7   9
ATOM      8  N   UNL     1       8.282   6.786  19.046  0.00  0.00    +0.000 NA
ATOM      9  C   UNL     1       8.051   7.542  18.037  0.00  0.00    +0.000 C 
ATOM     10  N   UNL     1       8.176   8.887  18.041  0.00  0.00    +0.000 N 
ATOM     11  H   UNL     1       8.604   7.360  19.827  0.00  0.00    +0.000 HD
ATOM     12  H   UNL     1       8.182   9.353  18.936  0.00  0.00    +0.000 HD
ATOM     13  H   UNL     1       7.666   9.368  17.312  0.00  0.00    +0.000 HD
ENDBRANCH   7   9
ENDBRANCH   1   7
BRANCH   4  14
ATOM     14  S   UNL     1       3.069   3.169  16.753  0.00  0.00    +0.000 S 
BRANCH  14  15
ATOM     15  C   UNL     1       2.626   3.104  18.483  0.00  0.00    +0.000 A 
ATOM     16  C   UNL     1       1.304   3.373  18.862  0.00  0.00    +0.000 A 
ATOM     17  C   UNL     1       0.908   3.264  20.201  0.00  0.00    +0.000 A 
ATOM     18  C   UNL     1       1.838   2.877  21.159  0.00  0.00    +0.000 A 
ATOM     19  C   UNL     1       3.152   2.602  20.801  0.00  0.00    +0.000 A 
ATOM     20  C   UNL     1       3.545   2.710  19.463  0.00  0.00    +0.000 A 
BRANCH  18  21
ATOM     21  O   UNL     1       1.497   2.744  22.472  0.00  0.00    +0.000 OA
ATOM     22  H   UNL     1       0.666   2.244  22.528  0.00  0.00    +0.000 HD
ENDBRANCH  18  21
ENDBRANCH  14  15
ENDBRANCH   4  14
TORSDOF 5
ENDMDL
MODEL 2
REMARK VINA RESULT:      -6.8      0.188      1.385
REMARK  Name = 
REMARK  5 active torsions:
REMARK  status: ('A' for Active; 'I' for Inactive)
REMARK    1  A    between atoms: C_2  and  O_4
REMARK    2  A    between atoms: O_4  and  C_5
REMARK    3  A    between atoms: C_8  and  S_9
REMARK    4  A    between atoms: S_9  and  C_10
REMARK    5  A    between atoms: C_13  and  O_14
REMARK                            x       y       z     vdW  Elec       q    Type
REMARK                         _______ _______ _______ _____ _____    ______ ____
ROOT
ATOM      1  C   UNL     1       6.535   6.186  16.827  0.00  0.00    +0.000 A 
ATOM      2  C   UNL     1       5.345   6.487  17.488  0.00  0.00    +0.000 A 
ATOM      3  C   UNL     1       4.304   5.553  17.487  0.00  0.00    +0.000 A 
ATOM      4  C   UNL     1       4.437   4.340  16.800  0.00  0.00    +0.000 A 
ATOM      5  C   UNL     1       5.643   4.045  16.155  0.00  0.00    +0.000 A 
ATOM      6  C   UNL     1       6.691   4.972  16.159  0.00  0.00    +0.000 A 
ENDROOT
BRANCH   1   7
ATOM      7  O   UNL     1       7.502   7.214  16.742  0.00  0.00    +0.000 OA
BRANCH   7   9
ATOM      8  N   UNL     1       8.050   9.144  17.969  0.00  0.00    +0.000 NA
ATOM      9  C   UNL     1       7.967   7.868  17.876  0.00  0.00    +0.000 C 
ATOM     10  N   UNL     1       8.337   7.003  18.845  0.00  0.00    +0.000 N 
ATOM     11  H   UNL     1       8.405   9.390  18.894  0.00  0.00    +0.000 HD
ATOM     12  H   UNL     1       8.960   7.342  19.562  0.00  0.00    +0.000 HD
ATOM     13  H   UNL     1       8.521   6.059  18.530  0.00  0.00    +0.000 HD
ENDBRANCH   7   9
ENDBRANCH   1   7
BRANCH   4  14
ATOM     14  S   UNL     1       3.105   3.154  16.789  0.00  0.00    +0.000 S 
BRANCH  14  15
ATOM     15  C   UNL     1       2.629   3.091  18.511  0.00  0.00    +0.000 A 
ATOM     16  C   UNL     1       1.302   3.369  18.866  0.00  0.00    +0.000 A 
ATOM     17  C   UNL     1       0.880   3.262  20.196  0.00  0.00    +0.000 A 
ATOM     18  C   UNL     1       1.789   2.868  21.171  0.00  0.00    +0.000 A 
ATOM     19  C   UNL     1       3.107   2.584  20.838  0.00  0.00    +0.000 A 
ATOM     20  C   UNL     1       3.526   2.690  19.508  0.00  0.00    +0.000 A 
BRANCH  18  21
ATOM     21  O   UNL     1       1.422   2.736  22.478  0.00  0.00    +0.000 OA
ATOM     22  H   UNL     1       1.169   3.609  22.819  0.00  0.00    +0.000 HD
ENDBRANCH  18  21
ENDBRANCH  14  15
ENDBRANCH   4  14
TORSDOF 5
ENDMDL
MODEL 3
REMARK VINA RESULT:      -6.7      0.229      1.159
REMARK  Name = 
REMARK  5 active torsions:
REMARK  status: ('A' for Active; 'I' for Inactive)
REMARK    1  A    between atoms: C_2  and  O_4
REMARK    2  A    between atoms: O_4  and  C_5
REMARK    3  A    between atoms: C_8  and  S_9
REMARK    4  A    between atoms: S_9  and  C_10
REMARK    5  A    between atoms: C_13  and  O_14
REMARK                            x       y       z     vdW  Elec       q    Type
REMARK                         _______ _______ _______ _____ _____    ______ ____
ROOT
ATOM      1  C   UNL     1       6.448   6.013  16.617  0.00  0.00    +0.000 A 
ATOM      2  C   UNL     1       6.605   4.777  15.991  0.00  0.00    +0.000 A 
ATOM      3  C   UNL     1       5.541   3.868  15.988  0.00  0.00    +0.000 A 
ATOM      4  C   UNL     1       4.340   4.177  16.638  0.00  0.00    +0.000 A 
ATOM      5  C   UNL     1       4.192   5.428  17.248  0.00  0.00    +0.000 A 
ATOM      6  C   UNL     1       5.249   6.344  17.247  0.00  0.00    +0.000 A 
ENDROOT
BRANCH   1   7
ATOM      7  O   UNL     1       7.593   6.837  16.709  0.00  0.00    +0.000 OA
BRANCH   7   9
ATOM      8  N   UNL     1       8.267   6.824  18.961  0.00  0.00    +0.000 NA
ATOM      9  C   UNL     1       7.942   7.463  17.899  0.00  0.00    +0.000 C 
ATOM     10  N   UNL     1       7.876   8.809  17.803  0.00  0.00    +0.000 N 
ATOM     11  H   UNL     1       8.494   7.493  19.698  0.00  0.00    +0.000 HD
ATOM     12  H   UNL     1       7.804   9.336  18.660  0.00  0.00    +0.000 HD
ATOM     13  H   UNL     1       7.311   9.157  17.039  0.00  0.00    +0.000 HD
ENDBRANCH   7   9
ENDBRANCH   1   7
BRANCH   4  14
ATOM     14  S   UNL     1       2.989   3.014  16.645  0.00  0.00    +0.000 S 
BRANCH  14  15
ATOM     15  C   UNL     1       2.562   2.927  18.378  0.00  0.00    +0.000 A 
ATOM     16  C   UNL     1       3.538   2.539  19.306  0.00  0.00    +0.000 A 
ATOM     17  C   UNL     1       3.256   2.526  20.677  0.00  0.00    +0.000 A 
ATOM     18  C   UNL     1       1.995   2.911  21.119  0.00  0.00    +0.000 A 
ATOM     19  C   UNL     1       1.017   3.303  20.215  0.00  0.00    +0.000 A 
ATOM     20  C   UNL     1       1.301   3.316  18.846  0.00  0.00    +0.000 A 
BRANCH  18  21
ATOM     21  O   UNL     1       1.678   2.928  22.445  0.00  0.00    +0.000 OA
ATOM     22  H   UNL     1       1.620   3.851  22.738  0.00  0.00    +0.000 HD
ENDBRANCH  18  21
ENDBRANCH  14  15
ENDBRANCH   4  14
TORSDOF 5
ENDMDL
MODEL 4
REMARK VINA RESULT:      -6.7      0.289      1.633
REMARK  Name = 
REMARK  5 active torsions:
REMARK  status: ('A' for Active; 'I' for Inactive)
REMARK    1  A    between atoms: C_2  and  O_4
REMARK    2  A    between atoms: O_4  and  C_5
REMARK    3  A    between atoms: C_8  and  S_9
REMARK    4  A    between atoms: S_9  and  C_10
REMARK    5  A    between atoms: C_13  and  O_14
REMARK                            x       y       z     vdW  Elec       q    Type
REMARK                         _______ _______ _______ _____ _____    ______ ____
ROOT
ATOM      1  C   UNL     1       6.211   6.399  16.928  0.00  0.00    +0.000 A 
ATOM      2  C   UNL     1       4.951   6.607  17.485  0.00  0.00    +0.000 A 
ATOM      3  C   UNL     1       4.003   5.580  17.443  0.00  0.00    +0.000 A 
ATOM      4  C   UNL     1       4.300   4.363  16.817  0.00  0.00    +0.000 A 
ATOM      5  C   UNL     1       5.576   4.162  16.277  0.00  0.00    +0.000 A 
ATOM      6  C   UNL     1       6.530   5.183  16.323  0.00  0.00    +0.000 A 
ENDROOT
BRANCH   1   7
ATOM      7  O   UNL     1       7.083   7.510  16.875  0.00  0.00    +0.000 OA
BRANCH   7   9
ATOM      8  N   UNL     1       8.278   7.006  18.836  0.00  0.00    +0.000 NA
ATOM      9  C   UNL     1       7.892   7.850  17.952  0.00  0.00    +0.000 C 
ATOM     10  N   UNL     1       8.196   9.166  17.964  0.00  0.00    +0.000 N 
ATOM     11  H   UNL     1       8.870   7.482  19.519  0.00  0.00    +0.000 HD
ATOM     12  H   UNL     1       8.502   9.568  18.837  0.00  0.00    +0.000 HD
ATOM     13  H   UNL     1       7.581   9.753  17.416  0.00  0.00    +0.000 HD
ENDBRANCH   7   9
ENDBRANCH   1   7
BRANCH   4  14
ATOM     14  S   UNL     1       3.088   3.057  16.754  0.00  0.00    +0.000 S 
BRANCH  14  15
ATOM     15  C   UNL     1       2.579   2.918  18.461  0.00  0.00    +0.000 A 
ATOM     16  C   UNL     1       3.528   2.572  19.434  0.00  0.00    +0.000 A 
ATOM     17  C   UNL     1       3.177   2.523  20.788  0.00  0.00    +0.000 A 
ATOM     18  C   UNL     1       1.875   2.827  21.169  0.00  0.00    +0.000 A 
ATOM     19  C   UNL     1       0.923   3.176  20.220  0.00  0.00    +0.000 A 
ATOM     20  C   UNL     1       1.275   3.227  18.868  0.00  0.00    +0.000 A 
BRANCH  18  21
ATOM     21  O   UNL     1       1.491   2.805  22.477  0.00  0.00    +0.000 OA
ATOM     22  H   UNL     1       0.523   2.744  22.515  0.00  0.00    +0.000 HD
ENDBRANCH  18  21
ENDBRANCH  14  15
ENDBRANCH   4  14
TORSDOF 5
ENDMDL
MODEL 5
REMARK VINA RESULT:      -6.6      2.471      3.118
REMARK  Name = 
REMARK  5 active torsions:
REMARK  status: ('A' for Active; 'I' for Inactive)
REMARK    1  A    between atoms: C_2  and  O_4
REMARK    2  A    between atoms: O_4  and  C_5
REMARK    3  A    between atoms: C_8  and  S_9
REMARK    4  A    between atoms: S_9  and  C_10
REMARK    5  A    between atoms: C_13  and  O_14
REMARK                            x       y       z     vdW  Elec       q    Type
REMARK                         _______ _______ _______ _____ _____    ______ ____
ROOT
ATOM      1  C   UNL     1       6.202   5.152  16.268  0.00  0.00    +0.000 A 
ATOM      2  C   UNL     1       5.832   6.491  16.381  0.00  0.00    +0.000 A 
ATOM      3  C   UNL     1       4.616   6.820  16.989  0.00  0.00    +0.000 A 
ATOM      4  C   UNL     1       3.757   5.815  17.452  0.00  0.00    +0.000 A 
ATOM      5  C   UNL     1       4.150   4.476  17.347  0.00  0.00    +0.000 A 
ATOM      6  C   UNL     1       5.368   4.142  16.747  0.00  0.00    +0.000 A 
ENDROOT
BRANCH   1   7
ATOM      7  O   UNL     1       7.371   4.868  15.528  0.00  0.00    +0.000 OA
BRANCH   7   9
ATOM      8  N   UNL     1       8.138   5.673  13.456  0.00  0.00    +0.000 NA
ATOM      9  C   UNL     1       7.376   4.901  14.139  0.00  0.00    +0.000 C 
ATOM     10  N   UNL     1       6.475   4.046  13.607  0.00  0.00    +0.000 N 
ATOM     11  H   UNL     1       7.974   5.512  12.461  0.00  0.00    +0.000 HD
ATOM     12  H   UNL     1       6.181   4.209  12.656  0.00  0.00    +0.000 HD
ATOM     13  H   UNL     1       5.741   3.751  14.237  0.00  0.00    +0.000 HD
ENDBRANCH   7   9
ENDBRANCH   1   7
BRANCH   4  14
ATOM     14  S   UNL     1       2.202   6.233  18.217  0.00  0.00    +0.000 S 
BRANCH  14  15
ATOM     15  C   UNL     1       2.001   4.929  19.422  0.00  0.00    +0.000 A 
ATOM     16  C   UNL     1       2.586   5.069  20.688  0.00  0.00    +0.000 A 
ATOM     17  C   UNL     1       2.389   4.098  21.677  0.00  0.00    +0.000 A 
ATOM     18  C   UNL     1       1.599   2.989  21.399  0.00  0.00    +0.000 A 
ATOM     19  C   UNL     1       1.008   2.836  20.152  0.00  0.00    +0.000 A 
ATOM     20  C   UNL     1       1.203   3.807  19.166  0.00  0.00    +0.000 A 
BRANCH  18  21
ATOM     21  O   UNL     1       1.368   2.025  22.335  0.00  0.00    +0.000 OA
ATOM     22  H   UNL     1       2.202   1.562  22.516  0.00  0.00    +0.000 HD
ENDBRANCH  18  21
ENDBRANCH  14  15
ENDBRANCH   4  14
TORSDOF 5
ENDMDL
MODEL 6
REMARK VINA RESULT:      -6.6      3.144      3.586
REMARK  Name = 
REMARK  5 active torsions:
REMARK  status: ('A' for Active; 'I' for Inactive)
REMARK    1  A    between atoms: C_2  and  O_4
REMARK    2  A    between atoms: O_4  and  C_5
REMARK    3  A    between atoms: C_8  and  S_9
REMARK    4  A    between atoms: S_9  and  C_10
REMARK    5  A    between atoms: C_13  and  O_14
REMARK                            x       y       z     vdW  Elec       q    Type
REMARK                         _______ _______ _______ _____ _____    ______ ____
ROOT
ATOM      1  C   UNL     1       6.870   5.362  15.508  0.00  0.00    +0.000 A 
ATOM      2  C   UNL     1       5.667   6.061  15.593  0.00  0.00    +0.000 A 
ATOM      3  C   UNL     1       4.972   6.087  16.807  0.00  0.00    +0.000 A 
ATOM      4  C   UNL     1       5.457   5.389  17.920  0.00  0.00    +0.000 A 
ATOM      5  C   UNL     1       6.675   4.706  17.824  0.00  0.00    +0.000 A 
ATOM      6  C   UNL     1       7.379   4.683  16.615  0.00  0.00    +0.000 A 
ENDROOT
BRANCH   1   7
ATOM      7  O   UNL     1       7.463   5.254  14.229  0.00  0.00    +0.000 OA
BRANCH   7   9
ATOM      8  N   UNL     1       6.202   3.382  13.572  0.00  0.00    +0.000 NA
ATOM      9  C   UNL     1       6.995   4.347  13.287  0.00  0.00    +0.000 C 
ATOM     10  N   UNL     1       7.493   4.592  12.055  0.00  0.00    +0.000 N 
ATOM     11  H   UNL     1       5.987   2.861  12.721  0.00  0.00    +0.000 HD
ATOM     12  H   UNL     1       7.473   3.839  11.384  0.00  0.00    +0.000 HD
ATOM     13  H   UNL     1       8.330   5.160  12.036  0.00  0.00    +0.000 HD
ENDBRANCH   7   9
ENDBRANCH   1   7
BRANCH   4  14
ATOM     14  S   UNL     1       4.565   5.412  19.463  0.00  0.00    +0.000 S 
BRANCH  14  15
ATOM     15  C   UNL     1       3.262   4.223  19.175  0.00  0.00    +0.000 A 
ATOM     16  C   UNL     1       2.037   4.375  19.839  0.00  0.00    +0.000 A 
ATOM     17  C   UNL     1       0.973   3.502  19.584  0.00  0.00    +0.000 A 
ATOM     18  C   UNL     1       1.135   2.480  18.656  0.00  0.00    +0.000 A 
ATOM     19  C   UNL     1       2.340   2.317  17.985  0.00  0.00    +0.000 A 
ATOM     20  C   UNL     1       3.401   3.191  18.240  0.00  0.00    +0.000 A 
BRANCH  18  21
ATOM     21  O   UNL     1       0.124   1.614  18.364  0.00  0.00    +0.000 OA
ATOM     22  H   UNL     1      -0.684   1.917  18.809  0.00  0.00    +0.000 HD
ENDBRANCH  18  21
ENDBRANCH  14  15
ENDBRANCH   4  14
TORSDOF 5
ENDMDL
MODEL 7
REMARK VINA RESULT:      -6.6      3.089      6.450
REMARK  Name = 
REMARK  5 active torsions:
REMARK  status: ('A' for Active; 'I' for Inactive)
REMARK    1  A    between atoms: C_2  and  O_4
REMARK    2  A    between atoms: O_4  and  C_5
REMARK    3  A    between atoms: C_8  and  S_9
REMARK    4  A    between atoms: S_9  and  C_10
REMARK    5  A    between atoms: C_13  and  O_14
REMARK                            x       y       z     vdW  Elec       q    Type
REMARK                         _______ _______ _______ _____ _____    ______ ____
ROOT
ATOM      1  C   UNL     1       1.970   3.152  19.091  0.00  0.00    +0.000 A 
ATOM      2  C   UNL     1       2.013   4.430  18.535  0.00  0.00    +0.000 A 
ATOM      3  C   UNL     1       2.978   4.726  17.567  0.00  0.00    +0.000 A 
ATOM      4  C   UNL     1       3.917   3.761  17.181  0.00  0.00    +0.000 A 
ATOM      5  C   UNL     1       3.850   2.478  17.735  0.00  0.00    +0.000 A 
ATOM      6  C   UNL     1       2.883   2.174  18.698  0.00  0.00    +0.000 A 
ENDROOT
BRANCH   1   7
ATOM      7  O   UNL     1       1.067   2.945  20.159  0.00  0.00    +0.000 OA
BRANCH   7   9
ATOM      8  N   UNL     1       1.156   2.128  22.362  0.00  0.00    +0.000 NA
ATOM      9  C   UNL     1       1.484   3.002  21.483  0.00  0.00    +0.000 C 
ATOM     10  N   UNL     1       2.247   4.089  21.729  0.00  0.00    +0.000 N 
ATOM     11  H   UNL     1       1.590   2.372  23.254  0.00  0.00    +0.000 HD
ATOM     12  H   UNL     1       2.339   4.388  22.688  0.00  0.00    +0.000 HD
ATOM     13  H   UNL     1       2.158   4.837  21.054  0.00  0.00    +0.000 HD
ENDBRANCH   7   9
ENDBRANCH   1   7
BRANCH   4  14
ATOM     14  S   UNL     1       5.154   4.142  15.955  0.00  0.00    +0.000 S 
BRANCH  14  15
ATOM     15  C   UNL     1       6.277   5.203  16.853  0.00  0.00    +0.000 A 
ATOM     16  C   UNL     1       6.279   6.579  16.588  0.00  0.00    +0.000 A 
ATOM     17  C   UNL     1       7.097   7.447  17.322  0.00  0.00    +0.000 A 
ATOM     18  C   UNL     1       7.907   6.934  18.328  0.00  0.00    +0.000 A 
ATOM     19  C   UNL     1       7.914   5.574  18.609  0.00  0.00    +0.000 A 
ATOM     20  C   UNL     1       7.096   4.709  17.876  0.00  0.00    +0.000 A 
BRANCH  18  21
ATOM     21  O   UNL     1       8.710   7.742  19.079  0.00  0.00    +0.000 OA
ATOM     22  H   UNL     1       9.430   7.207  19.449  0.00  0.00    +0.000 HD
ENDBRANCH  18  21
ENDBRANCH  14  15
ENDBRANCH   4  14
TORSDOF 5
ENDMDL
MODEL 8
REMARK VINA RESULT:      -6.5      3.966      4.948
REMARK  Name = 
REMARK  5 active torsions:
REMARK  status: ('A' for Active; 'I' for Inactive)
REMARK    1  A    between atoms: C_2  and  O_4
REMARK    2  A    between atoms: O_4  and  C_5
REMARK    3  A    between atoms: C_8  and  S_9
REMARK    4  A    between atoms: S_9  and  C_10
REMARK    5  A    between atoms: C_13  and  O_14
REMARK                            x       y       z     vdW  Elec       q    Type
REMARK                         _______ _______ _______ _____ _____    ______ ____
ROOT
ATOM      1  C   UNL     1       5.969   4.532  16.956  0.00  0.00    +0.000 A 
ATOM      2  C   UNL     1       4.644   4.303  16.590  0.00  0.00    +0.000 A 
ATOM      3  C   UNL     1       3.618   4.610  17.490  0.00  0.00    +0.000 A 
ATOM      4  C   UNL     1       3.916   5.110  18.764  0.00  0.00    +0.000 A 
ATOM      5  C   UNL     1       5.250   5.350  19.112  0.00  0.00    +0.000 A 
ATOM      6  C   UNL     1       6.279   5.053  18.212  0.00  0.00    +0.000 A 
ENDROOT
BRANCH   1   7
ATOM      7  O   UNL     1       6.970   4.080  16.067  0.00  0.00    +0.000 OA
BRANCH   7   9
ATOM      8  N   UNL     1       6.317   3.580  13.864  0.00  0.00    +0.000 NA
ATOM      9  C   UNL     1       6.905   4.348  14.705  0.00  0.00    +0.000 C 
ATOM     10  N   UNL     1       7.551   5.489  14.381  0.00  0.00    +0.000 N 
ATOM     11  H   UNL     1       6.390   3.988  12.930  0.00  0.00    +0.000 HD
ATOM     12  H   UNL     1       7.829   5.612  13.419  0.00  0.00    +0.000 HD
ATOM     13  H   UNL     1       8.224   5.810  15.065  0.00  0.00    +0.000 HD
ENDBRANCH   7   9
ENDBRANCH   1   7
BRANCH   4  14
ATOM     14  S   UNL     1       2.610   5.491  19.916  0.00  0.00    +0.000 S 
BRANCH  14  15
ATOM     15  C   UNL     1       2.182   7.169  19.475  0.00  0.00    +0.000 A 
ATOM     16  C   UNL     1       2.430   7.620  18.172  0.00  0.00    +0.000 A 
ATOM     17  C   UNL     1       2.044   8.905  17.774  0.00  0.00    +0.000 A 
ATOM     18  C   UNL     1       1.401   9.737  18.684  0.00  0.00    +0.000 A 
ATOM     19  C   UNL     1       1.142   9.306  19.978  0.00  0.00    +0.000 A 
ATOM     20  C   UNL     1       1.527   8.021  20.373  0.00  0.00    +0.000 A 
BRANCH  18  21
ATOM     21  O   UNL     1       0.994  10.992  18.339  0.00  0.00    +0.000 OA
ATOM     22  H   UNL     1       1.553  11.638  18.800  0.00  0.00    +0.000 HD
ENDBRANCH  18  21
ENDBRANCH  14  15
ENDBRANCH   4  14
TORSDOF 5
ENDMDL
MODEL 9
REMARK VINA RESULT:      -6.5      2.821      3.217
REMARK  Name = 
REMARK  5 active torsions:
REMARK  status: ('A' for Active; 'I' for Inactive)
REMARK    1  A    between atoms: C_2  and  O_4
REMARK    2  A    between atoms: O_4  and  C_5
REMARK    3  A    between atoms: C_8  and  S_9
REMARK    4  A    between atoms: S_9  and  C_10
REMARK    5  A    between atoms: C_13  and  O_14
REMARK                            x       y       z     vdW  Elec       q    Type
REMARK                         _______ _______ _______ _____ _____    ______ ____
ROOT
ATOM      1  C   UNL     1       6.611   5.909  16.605  0.00  0.00    +0.000 A 
ATOM      2  C   UNL     1       5.522   6.671  16.187  0.00  0.00    +0.000 A 
ATOM      3  C   UNL     1       4.443   6.865  17.056  0.00  0.00    +0.000 A 
ATOM      4  C   UNL     1       4.437   6.270  18.324  0.00  0.00    +0.000 A 
ATOM      5  C   UNL     1       5.545   5.522  18.737  0.00  0.00    +0.000 A 
ATOM      6  C   UNL     1       6.630   5.332  17.875  0.00  0.00    +0.000 A 
ENDROOT
BRANCH   1   7
ATOM      7  O   UNL     1       7.610   5.633  15.644  0.00  0.00    +0.000 OA
BRANCH   7   9
ATOM      8  N   UNL     1       6.511   4.003  14.355  0.00  0.00    +0.000 NA
ATOM      9  C   UNL     1       7.308   5.002  14.444  0.00  0.00    +0.000 C 
ATOM     10  N   UNL     1       7.968   5.551  13.401  0.00  0.00    +0.000 N 
ATOM     11  H   UNL     1       6.435   3.719  13.377  0.00  0.00    +0.000 HD
ATOM     12  H   UNL     1       8.066   4.996  12.565  0.00  0.00    +0.000 HD
ATOM     13  H   UNL     1       8.782   6.098  13.650  0.00  0.00    +0.000 HD
ENDBRANCH   7   9
ENDBRANCH   1   7
BRANCH   4  14
ATOM     14  S   UNL     1       3.057   6.507  19.428  0.00  0.00    +0.000 S 
BRANCH  14  15
ATOM     15  C   UNL     1       2.142   4.984  19.236  0.00  0.00    +0.000 A 
ATOM     16  C   UNL     1       2.126   4.346  17.988  0.00  0.00    +0.000 A 
ATOM     17  C   UNL     1       1.476   3.117  17.822  0.00  0.00    +0.000 A 
ATOM     18  C   UNL     1       0.848   2.523  18.911  0.00  0.00    +0.000 A 
ATOM     19  C   UNL     1       0.858   3.138  20.156  0.00  0.00    +0.000 A 
ATOM     20  C   UNL     1       1.509   4.364  20.321  0.00  0.00    +0.000 A 
BRANCH  18  21
ATOM     21  O   UNL     1       0.215   1.321  18.800  0.00  0.00    +0.000 OA
ATOM     22  H   UNL     1       0.756   0.644  19.237  0.00  0.00    +0.000 HD
ENDBRANCH  18  21
ENDBRANCH  14  15
ENDBRANCH   4  14
TORSDOF 5
ENDMDL
