MODEL 1
REMARK VINA RESULT:      -7.0      0.000      0.000
REMARK  Name = 
REMARK  7 active torsions:
REMARK  status: ('A' for Active; 'I' for Inactive)
REMARK    1  A    between atoms: N_12  and  C_13
REMARK    2  A    between atoms: C_13  and  C_14
REMARK    3  A    between atoms: C_14  and  C_15
REMARK    4  A    between atoms: C_15  and  C_16
REMARK    5  A    between atoms: C_16  and  C_17
REMARK    6  A    between atoms: C_17  and  C_18
REMARK    7  A    between atoms: C_18  and  N_19
REMARK                            x       y       z     vdW  Elec       q    Type
REMARK                         _______ _______ _______ _____ _____    ______ ____
ROOT
ATOM      1  O   UNL     1       4.988   2.907  20.091  0.00  0.00    +0.000 OA
ATOM      2  C   UNL     1       4.479   3.297  19.044  0.00  0.00    +0.000 A 
ATOM      3  C   UNL     1       5.123   4.367  18.265  0.00  0.00    +0.000 A 
ATOM      4  C   UNL     1       6.249   5.031  18.759  0.00  0.00    +0.000 A 
ATOM      5  C   UNL     1       6.776   6.096  18.035  0.00  0.00    +0.000 A 
ATOM      6 CL   UNL     1       8.132   6.958  18.649  0.00  0.00    +0.000 Cl
ATOM      7  C   UNL     1       6.199   6.481  16.825  0.00  0.00    +0.000 A 
ATOM      8  C   UNL     1       5.090   5.789  16.328  0.00  0.00    +0.000 A 
ATOM      9  C   UNL     1       4.538   4.727  17.048  0.00  0.00    +0.000 A 
ATOM     10  N   UNL     1       3.407   4.077  16.536  0.00  0.00    +0.000 NA
ATOM     11  C   UNL     1       2.849   3.180  17.277  0.00  0.00    +0.000 A 
ATOM     12  N   UNL     1       3.295   2.797  18.519  0.00  0.00    +0.000 N 
ENDROOT
BRANCH  12  13
ATOM     13  C   UNL     1       2.557   1.803  19.283  0.00  0.00    +0.000 C 
BRANCH  13  14
ATOM     14  C   UNL     1       1.188   2.327  19.710  0.00  0.00    +0.000 C 
BRANCH  14  15
ATOM     15  C   UNL     1       1.326   3.419  20.768  0.00  0.00    +0.000 C 
BRANCH  15  16
ATOM     16  C   UNL     1       0.896   4.774  20.210  0.00  0.00    +0.000 C 
BRANCH  16  17
ATOM     17  C   UNL     1       1.829   5.882  20.686  0.00  0.00    +0.000 C 
BRANCH  17  18
ATOM     18  C   UNL     1       2.607   6.485  19.520  0.00  0.00    +0.000 C 
BRANCH  18  19
ATOM     19  N   UNL     1       2.108   7.796  19.169  0.00  0.00    +0.000 N 
ATOM     20  C   UNL     1       2.231   8.410  17.955  0.00  0.00    +0.000 A 
ATOM     21  C   UNL     1       1.592   9.617  18.104  0.00  0.00    +0.000 A 
ATOM     22  N   UNL     1       1.090   9.750  19.373  0.00  0.00    +0.000 NA
ATOM     23  C   UNL     1       1.417   8.638  19.994  0.00  0.00    +0.000 A 
ENDBRANCH  18  19
ENDBRANCH  17  18
ENDBRANCH  16  17
ENDBRANCH  15  16
ENDBRANCH  14  15
ENDBRANCH  13  14
ENDBRANCH  12  13
TORSDOF 7
ENDMDL
MODEL 2
REMARK VINA RESULT:      -7.0      1.814      2.364
REMARK  Name = 
REMARK  7 active torsions:
REMARK  status: ('A' for Active; 'I' for Inactive)
REMARK    1  A    between atoms: N_12  and  C_13
REMARK    2  A    between atoms: C_13  and  C_14
REMARK    3  A    between atoms: C_14  and  C_15
REMARK    4  A    between atoms: C_15  and  C_16
REMARK    5  A    between atoms: C_16  and  C_17
REMARK    6  A    between atoms: C_17  and  C_18
REMARK    7  A    between atoms: C_18  and  N_19
REMARK                            x       y       z     vdW  Elec       q    Type
REMARK                         _______ _______ _______ _____ _____    ______ ____
ROOT
ATOM      1  O   UNL     1       2.343   3.082  16.891  0.00  0.00    +0.000 OA
ATOM      2  C   UNL     1       3.266   3.183  17.694  0.00  0.00    +0.000 A 
ATOM      3  C   UNL     1       4.534   3.810  17.284  0.00  0.00    +0.000 A 
ATOM      4  C   UNL     1       4.747   4.188  15.956  0.00  0.00    +0.000 A 
ATOM      5  C   UNL     1       5.990   4.695  15.590  0.00  0.00    +0.000 A 
ATOM      6 CL   UNL     1       6.288   5.122  13.951  0.00  0.00    +0.000 Cl
ATOM      7  C   UNL     1       7.001   4.840  16.539  0.00  0.00    +0.000 A 
ATOM      8  C   UNL     1       6.764   4.485  17.871  0.00  0.00    +0.000 A 
ATOM      9  C   UNL     1       5.528   3.960  18.254  0.00  0.00    +0.000 A 
ATOM     10  N   UNL     1       5.337   3.584  19.591  0.00  0.00    +0.000 NA
ATOM     11  C   UNL     1       4.229   2.995  19.891  0.00  0.00    +0.000 A 
ATOM     12  N   UNL     1       3.213   2.730  19.004  0.00  0.00    +0.000 N 
ENDROOT
BRANCH  12  13
ATOM     13  C   UNL     1       2.025   2.019  19.450  0.00  0.00    +0.000 C 
BRANCH  13  14
ATOM     14  C   UNL     1       1.436   2.646  20.710  0.00  0.00    +0.000 C 
BRANCH  14  15
ATOM     15  C   UNL     1       0.838   4.019  20.411  0.00  0.00    +0.000 C 
BRANCH  15  16
ATOM     16  C   UNL     1       1.695   5.128  21.017  0.00  0.00    +0.000 C 
BRANCH  16  17
ATOM     17  C   UNL     1       2.065   6.170  19.966  0.00  0.00    +0.000 C 
BRANCH  17  18
ATOM     18  C   UNL     1       1.855   7.585  20.496  0.00  0.00    +0.000 C 
BRANCH  18  19
ATOM     19  N   UNL     1       1.693   8.537  19.420  0.00  0.00    +0.000 N 
ATOM     20  C   UNL     1       0.885   9.638  19.430  0.00  0.00    +0.000 A 
ATOM     21  C   UNL     1       1.080  10.230  18.205  0.00  0.00    +0.000 A 
ATOM     22  N   UNL     1       1.980   9.516  17.457  0.00  0.00    +0.000 NA
ATOM     23  C   UNL     1       2.332   8.500  18.213  0.00  0.00    +0.000 A 
ENDBRANCH  18  19
ENDBRANCH  17  18
ENDBRANCH  16  17
ENDBRANCH  15  16
ENDBRANCH  14  15
ENDBRANCH  13  14
ENDBRANCH  12  13
TORSDOF 7
ENDMDL
MODEL 3
REMARK VINA RESULT:      -6.8      3.101      5.146
REMARK  Name = 
REMARK  7 active torsions:
REMARK  status: ('A' for Active; 'I' for Inactive)
REMARK    1  A    between atoms: N_12  and  C_13
REMARK    2  A    between atoms: C_13  and  C_14
REMARK    3  A    between atoms: C_14  and  C_15
REMARK    4  A    between atoms: C_15  and  C_16
REMARK    5  A    between atoms: C_16  and  C_17
REMARK    6  A    between atoms: C_17  and  C_18
REMARK    7  A    between atoms: C_18  and  N_19
REMARK                            x       y       z     vdW  Elec       q    Type
REMARK                         _______ _______ _______ _____ _____    ______ ____
ROOT
ATOM      1  O   UNL     1       3.908   3.873  16.364  0.00  0.00    +0.000 OA
ATOM      2  C   UNL     1       4.957   4.500  16.253  0.00  0.00    +0.000 A 
ATOM      3  C   UNL     1       5.715   4.453  14.991  0.00  0.00    +0.000 A 
ATOM      4  C   UNL     1       5.317   3.608  13.952  0.00  0.00    +0.000 A 
ATOM      5  C   UNL     1       6.108   3.525  12.810  0.00  0.00    +0.000 A 
ATOM      6 CL   UNL     1       5.663   2.456  11.539  0.00  0.00    +0.000 Cl
ATOM      7  C   UNL     1       7.270   4.288  12.699  0.00  0.00    +0.000 A 
ATOM      8  C   UNL     1       7.640   5.152  13.736  0.00  0.00    +0.000 A 
ATOM      9  C   UNL     1       6.867   5.237  14.895  0.00  0.00    +0.000 A 
ATOM     10  N   UNL     1       7.286   6.088  15.927  0.00  0.00    +0.000 NA
ATOM     11  C   UNL     1       6.618   6.059  17.031  0.00  0.00    +0.000 A 
ATOM     12  N   UNL     1       5.514   5.274  17.262  0.00  0.00    +0.000 N 
ENDROOT
BRANCH  12  13
ATOM     13  C   UNL     1       4.868   5.293  18.565  0.00  0.00    +0.000 C 
BRANCH  13  14
ATOM     14  C   UNL     1       3.807   6.387  18.649  0.00  0.00    +0.000 C 
BRANCH  14  15
ATOM     15  C   UNL     1       2.419   5.789  18.866  0.00  0.00    +0.000 C 
BRANCH  15  16
ATOM     16  C   UNL     1       2.198   5.449  20.339  0.00  0.00    +0.000 C 
BRANCH  16  17
ATOM     17  C   UNL     1       1.061   4.446  20.504  0.00  0.00    +0.000 C 
BRANCH  17  18
ATOM     18  C   UNL     1       1.560   3.147  21.130  0.00  0.00    +0.000 C 
BRANCH  18  19
ATOM     19  N   UNL     1       2.622   2.553  20.346  0.00  0.00    +0.000 N 
ATOM     20  C   UNL     1       2.504   2.031  19.090  0.00  0.00    +0.000 A 
ATOM     21  C   UNL     1       3.770   1.607  18.765  0.00  0.00    +0.000 A 
ATOM     22  N   UNL     1       4.646   1.856  19.790  0.00  0.00    +0.000 NA
ATOM     23  C   UNL     1       3.926   2.425  20.731  0.00  0.00    +0.000 A 
ENDBRANCH  18  19
ENDBRANCH  17  18
ENDBRANCH  16  17
ENDBRANCH  15  16
ENDBRANCH  14  15
ENDBRANCH  13  14
ENDBRANCH  12  13
TORSDOF 7
ENDMDL
MODEL 4
REMARK VINA RESULT:      -6.8      1.878      2.286
REMARK  Name = 
REMARK  7 active torsions:
REMARK  status: ('A' for Active; 'I' for Inactive)
REMARK    1  A    between atoms: N_12  and  C_13
REMARK    2  A    between atoms: C_13  and  C_14
REMARK    3  A    between atoms: C_14  and  C_15
REMARK    4  A    between atoms: C_15  and  C_16
REMARK    5  A    between atoms: C_16  and  C_17
REMARK    6  A    between atoms: C_17  and  C_18
REMARK    7  A    between atoms: C_18  and  N_19
REMARK                            x       y       z     vdW  Elec       q    Type
REMARK                         _______ _______ _______ _____ _____    ______ ____
ROOT
ATOM      1  O   UNL     1       2.892   3.097  16.568  0.00  0.00    +0.000 OA
ATOM      2  C   UNL     1       3.806   3.328  17.355  0.00  0.00    +0.000 A 
ATOM      3  C   UNL     1       5.061   3.926  16.872  0.00  0.00    +0.000 A 
ATOM      4  C   UNL     1       5.275   4.130  15.506  0.00  0.00    +0.000 A 
ATOM      5  C   UNL     1       6.509   4.615  15.082  0.00  0.00    +0.000 A 
ATOM      6 CL   UNL     1       6.809   4.829  13.402  0.00  0.00    +0.000 Cl
ATOM      7  C   UNL     1       7.508   4.910  16.008  0.00  0.00    +0.000 A 
ATOM      8  C   UNL     1       7.270   4.728  17.374  0.00  0.00    +0.000 A 
ATOM      9  C   UNL     1       6.044   4.228  17.818  0.00  0.00    +0.000 A 
ATOM     10  N   UNL     1       5.851   4.027  19.192  0.00  0.00    +0.000 NA
ATOM     11  C   UNL     1       4.756   3.456  19.562  0.00  0.00    +0.000 A 
ATOM     12  N   UNL     1       3.753   3.051  18.713  0.00  0.00    +0.000 N 
ENDROOT
BRANCH  12  13
ATOM     13  C   UNL     1       2.580   2.375  19.244  0.00  0.00    +0.000 C 
BRANCH  13  14
ATOM     14  C   UNL     1       2.387   2.669  20.730  0.00  0.00    +0.000 C 
BRANCH  14  15
ATOM     15  C   UNL     1       1.033   3.326  20.986  0.00  0.00    +0.000 C 
BRANCH  15  16
ATOM     16  C   UNL     1       0.905   4.630  20.202  0.00  0.00    +0.000 C 
BRANCH  16  17
ATOM     17  C   UNL     1       1.930   5.656  20.674  0.00  0.00    +0.000 C 
BRANCH  17  18
ATOM     18  C   UNL     1       2.597   6.350  19.490  0.00  0.00    +0.000 C 
BRANCH  18  19
ATOM     19  N   UNL     1       2.070   7.682  19.288  0.00  0.00    +0.000 N 
ATOM     20  C   UNL     1       2.098   8.394  18.124  0.00  0.00    +0.000 A 
ATOM     21  C   UNL     1       1.470   9.580  18.420  0.00  0.00    +0.000 A 
ATOM     22  N   UNL     1       1.066   9.603  19.731  0.00  0.00    +0.000 NA
ATOM     23  C   UNL     1       1.442   8.446  20.230  0.00  0.00    +0.000 A 
ENDBRANCH  18  19
ENDBRANCH  17  18
ENDBRANCH  16  17
ENDBRANCH  15  16
ENDBRANCH  14  15
ENDBRANCH  13  14
ENDBRANCH  12  13
TORSDOF 7
ENDMDL
MODEL 5
REMARK VINA RESULT:      -6.7      4.965      7.065
REMARK  Name = 
REMARK  7 active torsions:
REMARK  status: ('A' for Active; 'I' for Inactive)
REMARK    1  A    between atoms: N_12  and  C_13
REMARK    2  A    between atoms: C_13  and  C_14
REMARK    3  A    between atoms: C_14  and  C_15
REMARK    4  A    between atoms: C_15  and  C_16
REMARK    5  A    between atoms: C_16  and  C_17
REMARK    6  A    between atoms: C_17  and  C_18
REMARK    7  A    between atoms: C_18  and  N_19
REMARK                            x       y       z     vdW  Elec       q    Type
REMARK                         _______ _______ _______ _____ _____    ______ ____
ROOT
ATOM      1  O   UNL     1       5.497   5.445  19.683  0.00  0.00    +0.000 OA
ATOM      2  C   UNL     1       5.097   4.822  18.704  0.00  0.00    +0.000 A 
ATOM      3  C   UNL     1       3.860   4.028  18.791  0.00  0.00    +0.000 A 
ATOM      4  C   UNL     1       3.192   3.878  20.010  0.00  0.00    +0.000 A 
ATOM      5  C   UNL     1       2.077   3.048  20.070  0.00  0.00    +0.000 A 
ATOM      6 CL   UNL     1       1.270   2.811  21.570  0.00  0.00    +0.000 Cl
ATOM      7  C   UNL     1       1.623   2.392  18.927  0.00  0.00    +0.000 A 
ATOM      8  C   UNL     1       2.284   2.574  17.708  0.00  0.00    +0.000 A 
ATOM      9  C   UNL     1       3.413   3.391  17.631  0.00  0.00    +0.000 A 
ATOM     10  N   UNL     1       4.070   3.525  16.399  0.00  0.00    +0.000 NA
ATOM     11  C   UNL     1       5.176   4.190  16.383  0.00  0.00    +0.000 A 
ATOM     12  N   UNL     1       5.745   4.796  17.478  0.00  0.00    +0.000 N 
ENDROOT
BRANCH  12  13
ATOM     13  C   UNL     1       7.021   5.483  17.347  0.00  0.00    +0.000 C 
BRANCH  13  14
ATOM     14  C   UNL     1       6.856   6.997  17.454  0.00  0.00    +0.000 C 
BRANCH  14  15
ATOM     15  C   UNL     1       8.027   7.623  18.206  0.00  0.00    +0.000 C 
BRANCH  15  16
ATOM     16  C   UNL     1       8.211   9.085  17.806  0.00  0.00    +0.000 C 
BRANCH  16  17
ATOM     17  C   UNL     1       8.920   9.869  18.906  0.00  0.00    +0.000 C 
BRANCH  17  18
ATOM     18  C   UNL     1       9.017  11.349  18.551  0.00  0.00    +0.000 C 
BRANCH  18  19
ATOM     19  N   UNL     1      10.357  11.857  18.748  0.00  0.00    +0.000 N 
ATOM     20  C   UNL     1      11.039  11.901  19.931  0.00  0.00    +0.000 A 
ATOM     21  C   UNL     1      12.260  12.444  19.613  0.00  0.00    +0.000 A 
ATOM     22  N   UNL     1      12.333  12.730  18.274  0.00  0.00    +0.000 NA
ATOM     23  C   UNL     1      11.171  12.367  17.778  0.00  0.00    +0.000 A 
ENDBRANCH  18  19
ENDBRANCH  17  18
ENDBRANCH  16  17
ENDBRANCH  15  16
ENDBRANCH  14  15
ENDBRANCH  13  14
ENDBRANCH  12  13
TORSDOF 7
ENDMDL
MODEL 6
REMARK VINA RESULT:      -6.7      5.568      7.509
REMARK  Name = 
REMARK  7 active torsions:
REMARK  status: ('A' for Active; 'I' for Inactive)
REMARK    1  A    between atoms: N_12  and  C_13
REMARK    2  A    between atoms: C_13  and  C_14
REMARK    3  A    between atoms: C_14  and  C_15
REMARK    4  A    between atoms: C_15  and  C_16
REMARK    5  A    between atoms: C_16  and  C_17
REMARK    6  A    between atoms: C_17  and  C_18
REMARK    7  A    between atoms: C_18  and  N_19
REMARK                            x       y       z     vdW  Elec       q    Type
REMARK                         _______ _______ _______ _____ _____    ______ ____
ROOT
ATOM      1  O   UNL     1       6.554   4.167  18.473  0.00  0.00    +0.000 OA
ATOM      2  C   UNL     1       5.715   4.980  18.100  0.00  0.00    +0.000 A 
ATOM      3  C   UNL     1       4.281   4.691  18.268  0.00  0.00    +0.000 A 
ATOM      4  C   UNL     1       3.855   3.447  18.742  0.00  0.00    +0.000 A 
ATOM      5  C   UNL     1       2.491   3.179  18.803  0.00  0.00    +0.000 A 
ATOM      6 CL   UNL     1       1.947   1.638  19.339  0.00  0.00    +0.000 Cl
ATOM      7  C   UNL     1       1.564   4.145  18.414  0.00  0.00    +0.000 A 
ATOM      8  C   UNL     1       2.004   5.396  17.969  0.00  0.00    +0.000 A 
ATOM      9  C   UNL     1       3.369   5.678  17.886  0.00  0.00    +0.000 A 
ATOM     10  N   UNL     1       3.774   6.930  17.404  0.00  0.00    +0.000 NA
ATOM     11  C   UNL     1       5.039   7.120  17.228  0.00  0.00    +0.000 A 
ATOM     12  N   UNL     1       6.018   6.195  17.500  0.00  0.00    +0.000 N 
ENDROOT
BRANCH  12  13
ATOM     13  C   UNL     1       7.411   6.506  17.219  0.00  0.00    +0.000 C 
BRANCH  13  14
ATOM     14  C   UNL     1       8.021   7.382  18.310  0.00  0.00    +0.000 C 
BRANCH  14  15
ATOM     15  C   UNL     1       8.117   8.836  17.855  0.00  0.00    +0.000 C 
BRANCH  15  16
ATOM     16  C   UNL     1       8.951   9.659  18.836  0.00  0.00    +0.000 C 
BRANCH  16  17
ATOM     17  C   UNL     1       9.402  10.971  18.203  0.00  0.00    +0.000 C 
BRANCH  17  18
ATOM     18  C   UNL     1      10.663  11.502  18.879  0.00  0.00    +0.000 C 
BRANCH  18  19
ATOM     19  N   UNL     1      11.029  12.806  18.372  0.00  0.00    +0.000 N 
ATOM     20  C   UNL     1      11.200  13.942  19.112  0.00  0.00    +0.000 A 
ATOM     21  C   UNL     1      11.555  14.906  18.200  0.00  0.00    +0.000 A 
ATOM     22  N   UNL     1      11.600  14.385  16.932  0.00  0.00    +0.000 NA
ATOM     23  C   UNL     1      11.277  13.118  17.066  0.00  0.00    +0.000 A 
ENDBRANCH  18  19
ENDBRANCH  17  18
ENDBRANCH  16  17
ENDBRANCH  15  16
ENDBRANCH  14  15
ENDBRANCH  13  14
ENDBRANCH  12  13
TORSDOF 7
ENDMDL
MODEL 7
REMARK VINA RESULT:      -6.7      4.652      6.668
REMARK  Name = 
REMARK  7 active torsions:
REMARK  status: ('A' for Active; 'I' for Inactive)
REMARK    1  A    between atoms: N_12  and  C_13
REMARK    2  A    between atoms: C_13  and  C_14
REMARK    3  A    between atoms: C_14  and  C_15
REMARK    4  A    between atoms: C_15  and  C_16
REMARK    5  A    between atoms: C_16  and  C_17
REMARK    6  A    between atoms: C_17  and  C_18
REMARK    7  A    between atoms: C_18  and  N_19
REMARK                            x       y       z     vdW  Elec       q    Type
REMARK                         _______ _______ _______ _____ _____    ______ ____
ROOT
ATOM      1  O   UNL     1       5.929   4.924  19.997  0.00  0.00    +0.000 OA
ATOM      2  C   UNL     1       5.490   4.649  18.884  0.00  0.00    +0.000 A 
ATOM      3  C   UNL     1       4.127   4.110  18.741  0.00  0.00    +0.000 A 
ATOM      4  C   UNL     1       3.362   3.795  19.868  0.00  0.00    +0.000 A 
ATOM      5  C   UNL     1       2.115   3.205  19.693  0.00  0.00    +0.000 A 
ATOM      6 CL   UNL     1       1.178   2.766  21.066  0.00  0.00    +0.000 Cl
ATOM      7  C   UNL     1       1.628   2.950  18.411  0.00  0.00    +0.000 A 
ATOM      8  C   UNL     1       2.392   3.297  17.292  0.00  0.00    +0.000 A 
ATOM      9  C   UNL     1       3.652   3.876  17.448  0.00  0.00    +0.000 A 
ATOM     10  N   UNL     1       4.404   4.180  16.305  0.00  0.00    +0.000 NA
ATOM     11  C   UNL     1       5.610   4.604  16.481  0.00  0.00    +0.000 A 
ATOM     12  N   UNL     1       6.204   4.802  17.704  0.00  0.00    +0.000 N 
ENDROOT
BRANCH  12  13
ATOM     13  C   UNL     1       7.589   5.242  17.778  0.00  0.00    +0.000 C 
BRANCH  13  14
ATOM     14  C   UNL     1       7.702   6.639  18.382  0.00  0.00    +0.000 C 
BRANCH  14  15
ATOM     15  C   UNL     1       7.834   7.699  17.292  0.00  0.00    +0.000 C 
BRANCH  15  16
ATOM     16  C   UNL     1       7.828   9.102  17.894  0.00  0.00    +0.000 C 
BRANCH  16  17
ATOM     17  C   UNL     1       9.070   9.337  18.748  0.00  0.00    +0.000 C 
BRANCH  17  18
ATOM     18  C   UNL     1       9.052  10.727  19.375  0.00  0.00    +0.000 C 
BRANCH  18  19
ATOM     19  N   UNL     1       9.749  11.691  18.552  0.00  0.00    +0.000 N 
ATOM     20  C   UNL     1      10.998  11.546  18.019  0.00  0.00    +0.000 A 
ATOM     21  C   UNL     1      11.216  12.703  17.312  0.00  0.00    +0.000 A 
ATOM     22  N   UNL     1      10.136  13.543  17.405  0.00  0.00    +0.000 NA
ATOM     23  C   UNL     1       9.267  12.908  18.160  0.00  0.00    +0.000 A 
ENDBRANCH  18  19
ENDBRANCH  17  18
ENDBRANCH  16  17
ENDBRANCH  15  16
ENDBRANCH  14  15
ENDBRANCH  13  14
ENDBRANCH  12  13
TORSDOF 7
ENDMDL
MODEL 8
REMARK VINA RESULT:      -6.6      2.933      6.377
REMARK  Name = 
REMARK  7 active torsions:
REMARK  status: ('A' for Active; 'I' for Inactive)
REMARK    1  A    between atoms: N_12  and  C_13
REMARK    2  A    between atoms: C_13  and  C_14
REMARK    3  A    between atoms: C_14  and  C_15
REMARK    4  A    between atoms: C_15  and  C_16
REMARK    5  A    between atoms: C_16  and  C_17
REMARK    6  A    between atoms: C_17  and  C_18
REMARK    7  A    between atoms: C_18  and  N_19
REMARK                            x       y       z     vdW  Elec       q    Type
REMARK                         _______ _______ _______ _____ _____    ______ ____
ROOT
ATOM      1  O   UNL     1       1.880   6.532  20.747  0.00  0.00    +0.000 OA
ATOM      2  C   UNL     1       1.825   7.438  19.921  0.00  0.00    +0.000 A 
ATOM      3  C   UNL     1       1.192   8.720  20.273  0.00  0.00    +0.000 A 
ATOM      4  C   UNL     1       0.546   8.882  21.502  0.00  0.00    +0.000 A 
ATOM      5  C   UNL     1      -0.117  10.078  21.762  0.00  0.00    +0.000 A 
ATOM      6 CL   UNL     1      -0.958  10.281  23.247  0.00  0.00    +0.000 Cl
ATOM      7  C   UNL     1      -0.119  11.104  20.817  0.00  0.00    +0.000 A 
ATOM      8  C   UNL     1       0.557  10.938  19.604  0.00  0.00    +0.000 A 
ATOM      9  C   UNL     1       1.214   9.740  19.319  0.00  0.00    +0.000 A 
ATOM     10  N   UNL     1       1.853   9.596  18.079  0.00  0.00    +0.000 NA
ATOM     11  C   UNL     1       2.351   8.439  17.796  0.00  0.00    +0.000 A 
ATOM     12  N   UNL     1       2.322   7.345  18.628  0.00  0.00    +0.000 N 
ENDROOT
BRANCH  12  13
ATOM     13  C   UNL     1       2.878   6.077  18.182  0.00  0.00    +0.000 C 
BRANCH  13  14
ATOM     14  C   UNL     1       4.397   6.147  18.047  0.00  0.00    +0.000 C 
BRANCH  14  15
ATOM     15  C   UNL     1       4.976   4.788  17.666  0.00  0.00    +0.000 C 
BRANCH  15  16
ATOM     16  C   UNL     1       3.933   3.935  16.947  0.00  0.00    +0.000 C 
BRANCH  16  17
ATOM     17  C   UNL     1       3.836   2.546  17.571  0.00  0.00    +0.000 C 
BRANCH  17  18
ATOM     18  C   UNL     1       2.409   2.240  18.014  0.00  0.00    +0.000 C 
BRANCH  18  19
ATOM     19  N   UNL     1       2.199   2.584  19.404  0.00  0.00    +0.000 N 
ATOM     20  C   UNL     1       3.159   2.664  20.371  0.00  0.00    +0.000 A 
ATOM     21  C   UNL     1       2.484   3.035  21.509  0.00  0.00    +0.000 A 
ATOM     22  N   UNL     1       1.143   3.177  21.255  0.00  0.00    +0.000 NA
ATOM     23  C   UNL     1       1.000   2.898  19.979  0.00  0.00    +0.000 A 
ENDBRANCH  18  19
ENDBRANCH  17  18
ENDBRANCH  16  17
ENDBRANCH  15  16
ENDBRANCH  14  15
ENDBRANCH  13  14
ENDBRANCH  12  13
TORSDOF 7
ENDMDL
MODEL 9
REMARK VINA RESULT:      -6.5      4.385      6.529
REMARK  Name = 
REMARK  7 active torsions:
REMARK  status: ('A' for Active; 'I' for Inactive)
REMARK    1  A    between atoms: N_12  and  C_13
REMARK    2  A    between atoms: C_13  and  C_14
REMARK    3  A    between atoms: C_14  and  C_15
REMARK    4  A    between atoms: C_15  and  C_16
REMARK    5  A    between atoms: C_16  and  C_17
REMARK    6  A    between atoms: C_17  and  C_18
REMARK    7  A    between atoms: C_18  and  N_19
REMARK                            x       y       z     vdW  Elec       q    Type
REMARK                         _______ _______ _______ _____ _____    ______ ____
ROOT
ATOM      1  O   UNL     1       5.925   4.647  19.904  0.00  0.00    +0.000 OA
ATOM      2  C   UNL     1       5.305   4.359  18.884  0.00  0.00    +0.000 A 
ATOM      3  C   UNL     1       3.933   3.834  18.979  0.00  0.00    +0.000 A 
ATOM      4  C   UNL     1       3.364   3.545  20.223  0.00  0.00    +0.000 A 
ATOM      5  C   UNL     1       2.100   2.966  20.268  0.00  0.00    +0.000 A 
ATOM      6 CL   UNL     1       1.401   2.559  21.786  0.00  0.00    +0.000 Cl
ATOM      7  C   UNL     1       1.404   2.696  19.090  0.00  0.00    +0.000 A 
ATOM      8  C   UNL     1       1.974   3.017  17.853  0.00  0.00    +0.000 A 
ATOM      9  C   UNL     1       3.248   3.585  17.788  0.00  0.00    +0.000 A 
ATOM     10  N   UNL     1       3.802   3.863  16.530  0.00  0.00    +0.000 NA
ATOM     11  C   UNL     1       5.024   4.276  16.496  0.00  0.00    +0.000 A 
ATOM     12  N   UNL     1       5.815   4.486  17.600  0.00  0.00    +0.000 N 
ENDROOT
BRANCH  12  13
ATOM     13  C   UNL     1       7.196   4.912  17.435  0.00  0.00    +0.000 C 
BRANCH  13  14
ATOM     14  C   UNL     1       7.295   6.178  16.586  0.00  0.00    +0.000 C 
BRANCH  14  15
ATOM     15  C   UNL     1       6.951   7.417  17.409  0.00  0.00    +0.000 C 
BRANCH  15  16
ATOM     16  C   UNL     1       8.216   8.076  17.953  0.00  0.00    +0.000 C 
BRANCH  16  17
ATOM     17  C   UNL     1       8.009   9.573  18.158  0.00  0.00    +0.000 C 
BRANCH  17  18
ATOM     18  C   UNL     1       9.256  10.359  17.765  0.00  0.00    +0.000 C 
BRANCH  18  19
ATOM     19  N   UNL     1       9.876  10.982  18.914  0.00  0.00    +0.000 N 
ATOM     20  C   UNL     1      11.071  11.643  18.928  0.00  0.00    +0.000 A 
ATOM     21  C   UNL     1      11.225  12.066  20.226  0.00  0.00    +0.000 A 
ATOM     22  N   UNL     1      10.158  11.677  20.995  0.00  0.00    +0.000 NA
ATOM     23  C   UNL     1       9.361  11.024  20.178  0.00  0.00    +0.000 A 
ENDBRANCH  18  19
ENDBRANCH  17  18
ENDBRANCH  16  17
ENDBRANCH  15  16
ENDBRANCH  14  15
ENDBRANCH  13  14
ENDBRANCH  12  13
TORSDOF 7
ENDMDL
