MODEL 1
REMARK VINA RESULT:      -7.7      0.000      0.000
REMARK  Name = 
REMARK  8 active torsions:
REMARK  status: ('A' for Active; 'I' for Inactive)
REMARK    1  A    between atoms: C_1  and  N_2
REMARK    2  A    between atoms: N_2  and  C_3
REMARK    3  A    between atoms: N_2  and  C_4
REMARK    4  A    between atoms: C_4  and  C_5
REMARK    5  A    between atoms: C_5  and  N_6
REMARK    6  A    between atoms: C_7  and  C_9
REMARK    7  A    between atoms: C_12  and  N_13
REMARK    8  A    between atoms: C_14  and  C_15
REMARK                            x       y       z     vdW  Elec       q    Type
REMARK                         _______ _______ _______ _____ _____    ______ ____
ROOT
ATOM      1  N   UNL     1       0.569  12.116  18.966  0.00  0.00    +0.000 N 
ATOM      2  C   UNL     1      -0.694  12.513  18.486  0.00  0.00    +0.000 A 
ATOM      3  C   UNL     1      -0.671  13.895  18.393  0.00  0.00    +0.000 A 
ATOM      4  C   UNL     1       0.560  14.381  18.888  0.00  0.00    +0.000 A 
ATOM      5  C   UNL     1       1.313  13.275  19.258  0.00  0.00    +0.000 A 
ATOM      6  C   UNL     1       2.701  13.274  19.838  0.00  0.00    +0.000 C 
ATOM      7  C   UNL     1       3.714  14.274  19.282  0.00  0.00    +0.000 C 
ATOM      8  C   UNL     1       3.279  15.164  18.128  0.00  0.00    +0.000 C 
ATOM      9  C   UNL     1       2.310  16.256  18.563  0.00  0.00    +0.000 C 
ATOM     10  C   UNL     1       0.914  15.827  19.019  0.00  0.00    +0.000 C 
ENDROOT
BRANCH   1  14
ATOM     11  C   UNL     1       1.937   8.118  19.402  0.00  0.00    +0.000 A 
ATOM     12  C   UNL     1       1.270   8.757  20.450  0.00  0.00    +0.000 A 
ATOM     13  C   UNL     1       0.778  10.052  20.284  0.00  0.00    +0.000 A 
ATOM     14  C   UNL     1       1.026  10.760  19.099  0.00  0.00    +0.000 A 
ATOM     15  C   UNL     1       1.758  10.136  18.079  0.00  0.00    +0.000 A 
ATOM     16  C   UNL     1       2.184   8.810  18.214  0.00  0.00    +0.000 A 
BRANCH  11  18
ATOM     17  N   UNL     1       1.861   6.076  20.729  0.00  0.00    +0.000 N 
ATOM     18  C   UNL     1       2.349   6.702  19.610  0.00  0.00    +0.000 C 
ATOM     19  O   UNL     1       3.126   6.173  18.830  0.00  0.00    +0.000 OA
ATOM     20  H   UNL     1       1.237   6.536  21.378  0.00  0.00    +0.000 HD
BRANCH  17  21
ATOM     21  C   UNL     1       2.311   4.740  21.071  0.00  0.00    +0.000 C 
BRANCH  21  22
ATOM     22  C   UNL     1       1.245   3.671  20.788  0.00  0.00    +0.000 C 
BRANCH  22  24
ATOM     23  C   UNL     1       1.046   2.605  18.611  0.00  0.00    +0.000 C 
ATOM     24  N   UNL     1       1.700   2.560  19.923  0.00  0.00    +0.000 NA
ATOM     25  C   UNL     1       3.154   2.636  19.745  0.00  0.00    +0.000 C 
ENDBRANCH  22  24
ENDBRANCH  21  22
ENDBRANCH  17  21
ENDBRANCH  11  18
ENDBRANCH   1  14
BRANCH   2  26
ATOM     26  C   UNL     1      -1.855  11.639  18.201  0.00  0.00    +0.000 A 
ATOM     27  C   UNL     1      -1.761  10.539  17.333  0.00  0.00    +0.000 A 
ATOM     28  C   UNL     1      -2.893   9.800  16.976  0.00  0.00    +0.000 A 
ATOM     29  C   UNL     1      -4.125  10.094  17.553  0.00  0.00    +0.000 A 
ATOM     30  C   UNL     1      -4.223  11.126  18.482  0.00  0.00    +0.000 A 
ATOM     31  C   UNL     1      -3.100  11.900  18.796  0.00  0.00    +0.000 A 
ENDBRANCH   2  26
TORSDOF 6
ENDMDL
MODEL 2
REMARK VINA RESULT:      -7.5      0.269      1.272
REMARK  Name = 
REMARK  8 active torsions:
REMARK  status: ('A' for Active; 'I' for Inactive)
REMARK    1  A    between atoms: C_1  and  N_2
REMARK    2  A    between atoms: N_2  and  C_3
REMARK    3  A    between atoms: N_2  and  C_4
REMARK    4  A    between atoms: C_4  and  C_5
REMARK    5  A    between atoms: C_5  and  N_6
REMARK    6  A    between atoms: C_7  and  C_9
REMARK    7  A    between atoms: C_12  and  N_13
REMARK    8  A    between atoms: C_14  and  C_15
REMARK                            x       y       z     vdW  Elec       q    Type
REMARK                         _______ _______ _______ _____ _____    ______ ____
ROOT
ATOM      1  N   UNL     1       0.527  12.103  19.134  0.00  0.00    +0.000 N 
ATOM      2  C   UNL     1      -0.683  12.507  18.539  0.00  0.00    +0.000 A 
ATOM      3  C   UNL     1      -0.636  13.887  18.431  0.00  0.00    +0.000 A 
ATOM      4  C   UNL     1       0.552  14.367  19.027  0.00  0.00    +0.000 A 
ATOM      5  C   UNL     1       1.256  13.258  19.476  0.00  0.00    +0.000 A 
ATOM      6  C   UNL     1       2.587  13.250  20.177  0.00  0.00    +0.000 C 
ATOM      7  C   UNL     1       3.657  14.232  19.700  0.00  0.00    +0.000 C 
ATOM      8  C   UNL     1       3.336  15.110  18.502  0.00  0.00    +0.000 C 
ATOM      9  C   UNL     1       2.346  16.219  18.835  0.00  0.00    +0.000 C 
ATOM     10  C   UNL     1       0.910  15.811  19.171  0.00  0.00    +0.000 C 
ENDROOT
BRANCH   1  14
ATOM     11  C   UNL     1       1.773   8.075  19.654  0.00  0.00    +0.000 A 
ATOM     12  C   UNL     1       1.979   8.729  18.437  0.00  0.00    +0.000 A 
ATOM     13  C   UNL     1       1.614  10.067  18.288  0.00  0.00    +0.000 A 
ATOM     14  C   UNL     1       0.955  10.744  19.324  0.00  0.00    +0.000 A 
ATOM     15  C   UNL     1       0.688  10.057  20.518  0.00  0.00    +0.000 A 
ATOM     16  C   UNL     1       1.124   8.741  20.697  0.00  0.00    +0.000 A 
BRANCH  11  18
ATOM     17  N   UNL     1       1.814   5.950  20.845  0.00  0.00    +0.000 N 
ATOM     18  C   UNL     1       2.275   6.679  19.778  0.00  0.00    +0.000 C 
ATOM     19  O   UNL     1       3.097   6.254  18.980  0.00  0.00    +0.000 OA
ATOM     20  H   UNL     1       1.152   6.326  21.511  0.00  0.00    +0.000 HD
BRANCH  17  21
ATOM     21  C   UNL     1       2.347   4.627  21.109  0.00  0.00    +0.000 C 
BRANCH  21  22
ATOM     22  C   UNL     1       1.372   3.511  20.706  0.00  0.00    +0.000 C 
BRANCH  22  24
ATOM     23  C   UNL     1       1.433   3.124  18.306  0.00  0.00    +0.000 C 
ATOM     24  N   UNL     1       1.856   2.630  19.620  0.00  0.00    +0.000 NA
ATOM     25  C   UNL     1       3.321   2.554  19.663  0.00  0.00    +0.000 C 
ENDBRANCH  22  24
ENDBRANCH  21  22
ENDBRANCH  17  21
ENDBRANCH  11  18
ENDBRANCH   1  14
BRANCH   2  26
ATOM     26  C   UNL     1      -1.824  11.641  18.162  0.00  0.00    +0.000 A 
ATOM     27  C   UNL     1      -3.123  11.873  18.644  0.00  0.00    +0.000 A 
ATOM     28  C   UNL     1      -4.162  10.976  18.381  0.00  0.00    +0.000 A 
ATOM     29  C   UNL     1      -3.941   9.878  17.555  0.00  0.00    +0.000 A 
ATOM     30  C   UNL     1      -2.682   9.677  16.996  0.00  0.00    +0.000 A 
ATOM     31  C   UNL     1      -1.629  10.546  17.305  0.00  0.00    +0.000 A 
ENDBRANCH   2  26
TORSDOF 6
ENDMDL
MODEL 3
REMARK VINA RESULT:      -7.4      6.496     10.565
REMARK  Name = 
REMARK  8 active torsions:
REMARK  status: ('A' for Active; 'I' for Inactive)
REMARK    1  A    between atoms: C_1  and  N_2
REMARK    2  A    between atoms: N_2  and  C_3
REMARK    3  A    between atoms: N_2  and  C_4
REMARK    4  A    between atoms: C_4  and  C_5
REMARK    5  A    between atoms: C_5  and  N_6
REMARK    6  A    between atoms: C_7  and  C_9
REMARK    7  A    between atoms: C_12  and  N_13
REMARK    8  A    between atoms: C_14  and  C_15
REMARK                            x       y       z     vdW  Elec       q    Type
REMARK                         _______ _______ _______ _____ _____    ______ ____
ROOT
ATOM      1  N   UNL     1       5.210   4.714  17.279  0.00  0.00    +0.000 N 
ATOM      2  C   UNL     1       5.115   4.018  16.058  0.00  0.00    +0.000 A 
ATOM      3  C   UNL     1       4.122   3.065  16.215  0.00  0.00    +0.000 A 
ATOM      4  C   UNL     1       3.646   3.095  17.546  0.00  0.00    +0.000 A 
ATOM      5  C   UNL     1       4.338   4.104  18.201  0.00  0.00    +0.000 A 
ATOM      6  C   UNL     1       4.184   4.527  19.636  0.00  0.00    +0.000 C 
ATOM      7  C   UNL     1       2.775   4.564  20.228  0.00  0.00    +0.000 C 
ATOM      8  C   UNL     1       1.607   4.237  19.311  0.00  0.00    +0.000 C 
ATOM      9  C   UNL     1       1.521   2.753  18.977  0.00  0.00    +0.000 C 
ATOM     10  C   UNL     1       2.628   2.156  18.107  0.00  0.00    +0.000 C 
ENDROOT
BRANCH   1  14
ATOM     11  C   UNL     1       7.626   8.141  17.957  0.00  0.00    +0.000 A 
ATOM     12  C   UNL     1       6.436   8.246  17.234  0.00  0.00    +0.000 A 
ATOM     13  C   UNL     1       5.621   7.128  17.058  0.00  0.00    +0.000 A 
ATOM     14  C   UNL     1       6.029   5.870  17.523  0.00  0.00    +0.000 A 
ATOM     15  C   UNL     1       7.260   5.761  18.186  0.00  0.00    +0.000 A 
ATOM     16  C   UNL     1       8.041   6.895  18.432  0.00  0.00    +0.000 A 
BRANCH  11  18
ATOM     17  N   UNL     1       9.239   9.402  19.278  0.00  0.00    +0.000 N 
ATOM     18  C   UNL     1       8.400   9.392  18.193  0.00  0.00    +0.000 C 
ATOM     19  O   UNL     1       8.230  10.359  17.466  0.00  0.00    +0.000 OA
ATOM     20  H   UNL     1       9.350   8.600  19.884  0.00  0.00    +0.000 HD
BRANCH  17  21
ATOM     21  C   UNL     1       9.934  10.620  19.650  0.00  0.00    +0.000 C 
BRANCH  21  22
ATOM     22  C   UNL     1       9.313  11.297  20.880  0.00  0.00    +0.000 C 
BRANCH  22  24
ATOM     23  C   UNL     1      10.630  13.161  20.041  0.00  0.00    +0.000 C 
ATOM     24  N   UNL     1       9.814  12.663  21.153  0.00  0.00    +0.000 NA
ATOM     25  C   UNL     1       8.681  13.570  21.369  0.00  0.00    +0.000 C 
ENDBRANCH  22  24
ENDBRANCH  21  22
ENDBRANCH  17  21
ENDBRANCH  11  18
ENDBRANCH   1  14
BRANCH   2  26
ATOM     26  C   UNL     1       5.958   4.209  14.855  0.00  0.00    +0.000 A 
ATOM     27  C   UNL     1       7.126   4.988  14.882  0.00  0.00    +0.000 A 
ATOM     28  C   UNL     1       7.840   5.261  13.713  0.00  0.00    +0.000 A 
ATOM     29  C   UNL     1       7.449   4.685  12.508  0.00  0.00    +0.000 A 
ATOM     30  C   UNL     1       6.343   3.839  12.475  0.00  0.00    +0.000 A 
ATOM     31  C   UNL     1       5.597   3.611  13.637  0.00  0.00    +0.000 A 
ENDBRANCH   2  26
TORSDOF 6
ENDMDL
MODEL 4
REMARK VINA RESULT:      -7.4      0.950      1.545
REMARK  Name = 
REMARK  8 active torsions:
REMARK  status: ('A' for Active; 'I' for Inactive)
REMARK    1  A    between atoms: C_1  and  N_2
REMARK    2  A    between atoms: N_2  and  C_3
REMARK    3  A    between atoms: N_2  and  C_4
REMARK    4  A    between atoms: C_4  and  C_5
REMARK    5  A    between atoms: C_5  and  N_6
REMARK    6  A    between atoms: C_7  and  C_9
REMARK    7  A    between atoms: C_12  and  N_13
REMARK    8  A    between atoms: C_14  and  C_15
REMARK                            x       y       z     vdW  Elec       q    Type
REMARK                         _______ _______ _______ _____ _____    ______ ____
ROOT
ATOM      1  N   UNL     1       0.589  12.117  18.934  0.00  0.00    +0.000 N 
ATOM      2  C   UNL     1      -0.681  12.514  18.474  0.00  0.00    +0.000 A 
ATOM      3  C   UNL     1      -0.658  13.895  18.373  0.00  0.00    +0.000 A 
ATOM      4  C   UNL     1       0.582  14.382  18.844  0.00  0.00    +0.000 A 
ATOM      5  C   UNL     1       1.340  13.277  19.207  0.00  0.00    +0.000 A 
ATOM      6  C   UNL     1       2.738  13.277  19.762  0.00  0.00    +0.000 C 
ATOM      7  C   UNL     1       3.743  14.272  19.183  0.00  0.00    +0.000 C 
ATOM      8  C   UNL     1       3.289  15.156  18.032  0.00  0.00    +0.000 C 
ATOM      9  C   UNL     1       2.329  16.253  18.478  0.00  0.00    +0.000 C 
ATOM     10  C   UNL     1       0.941  15.828  18.961  0.00  0.00    +0.000 C 
ENDROOT
BRANCH   1  14
ATOM     11  C   UNL     1       1.924   8.099  19.283  0.00  0.00    +0.000 A 
ATOM     12  C   UNL     1       2.123   8.812  18.098  0.00  0.00    +0.000 A 
ATOM     13  C   UNL     1       1.728  10.147  18.006  0.00  0.00    +0.000 A 
ATOM     14  C   UNL     1       1.047  10.761  19.066  0.00  0.00    +0.000 A 
ATOM     15  C   UNL     1       0.788  10.016  20.226  0.00  0.00    +0.000 A 
ATOM     16  C   UNL     1       1.253   8.702  20.349  0.00  0.00    +0.000 A 
BRANCH  11  18
ATOM     17  N   UNL     1       3.198   6.283  18.277  0.00  0.00    +0.000 N 
ATOM     18  C   UNL     1       2.457   6.710  19.348  0.00  0.00    +0.000 C 
ATOM     19  O   UNL     1       2.183   5.998  20.302  0.00  0.00    +0.000 OA
ATOM     20  H   UNL     1       3.395   6.878  17.483  0.00  0.00    +0.000 HD
BRANCH  17  21
ATOM     21  C   UNL     1       3.649   4.906  18.205  0.00  0.00    +0.000 C 
BRANCH  21  22
ATOM     22  C   UNL     1       2.618   3.985  17.535  0.00  0.00    +0.000 C 
BRANCH  22  24
ATOM     23  C   UNL     1       3.333   2.519  19.338  0.00  0.00    +0.000 C 
ATOM     24  N   UNL     1       2.371   2.712  18.249  0.00  0.00    +0.000 NA
ATOM     25  C   UNL     1       1.009   2.709  18.795  0.00  0.00    +0.000 C 
ENDBRANCH  22  24
ENDBRANCH  21  22
ENDBRANCH  17  21
ENDBRANCH  11  18
ENDBRANCH   1  14
BRANCH   2  26
ATOM     26  C   UNL     1      -1.848  11.640  18.213  0.00  0.00    +0.000 A 
ATOM     27  C   UNL     1      -1.759  10.510  17.384  0.00  0.00    +0.000 A 
ATOM     28  C   UNL     1      -2.896   9.769  17.048  0.00  0.00    +0.000 A 
ATOM     29  C   UNL     1      -4.128  10.092  17.609  0.00  0.00    +0.000 A 
ATOM     30  C   UNL     1      -4.221  11.156  18.502  0.00  0.00    +0.000 A 
ATOM     31  C   UNL     1      -3.093  11.930  18.794  0.00  0.00    +0.000 A 
ENDBRANCH   2  26
TORSDOF 6
ENDMDL
MODEL 5
REMARK VINA RESULT:      -7.3      0.326      1.115
REMARK  Name = 
REMARK  8 active torsions:
REMARK  status: ('A' for Active; 'I' for Inactive)
REMARK    1  A    between atoms: C_1  and  N_2
REMARK    2  A    between atoms: N_2  and  C_3
REMARK    3  A    between atoms: N_2  and  C_4
REMARK    4  A    between atoms: C_4  and  C_5
REMARK    5  A    between atoms: C_5  and  N_6
REMARK    6  A    between atoms: C_7  and  C_9
REMARK    7  A    between atoms: C_12  and  N_13
REMARK    8  A    between atoms: C_14  and  C_15
REMARK                            x       y       z     vdW  Elec       q    Type
REMARK                         _______ _______ _______ _____ _____    ______ ____
ROOT
ATOM      1  N   UNL     1       0.548  12.193  19.105  0.00  0.00    +0.000 N 
ATOM      2  C   UNL     1      -0.682  12.613  18.564  0.00  0.00    +0.000 A 
ATOM      3  C   UNL     1      -0.662  13.998  18.549  0.00  0.00    +0.000 A 
ATOM      4  C   UNL     1       0.530  14.459  19.152  0.00  0.00    +0.000 A 
ATOM      5  C   UNL     1       1.264  13.336  19.510  0.00  0.00    +0.000 A 
ATOM      6  C   UNL     1       2.609  13.306  20.181  0.00  0.00    +0.000 C 
ATOM      7  C   UNL     1       3.652  14.338  19.750  0.00  0.00    +0.000 C 
ATOM      8  C   UNL     1       3.289  15.289  18.621  0.00  0.00    +0.000 C 
ATOM      9  C   UNL     1       2.287  16.354  19.049  0.00  0.00    +0.000 C 
ATOM     10  C   UNL     1       0.866  15.896  19.386  0.00  0.00    +0.000 C 
ENDROOT
BRANCH   1  14
ATOM     11  C   UNL     1       1.911   8.181  19.409  0.00  0.00    +0.000 A 
ATOM     12  C   UNL     1       1.243   8.785  20.477  0.00  0.00    +0.000 A 
ATOM     13  C   UNL     1       0.753  10.085  20.353  0.00  0.00    +0.000 A 
ATOM     14  C   UNL     1       1.004  10.832  19.193  0.00  0.00    +0.000 A 
ATOM     15  C   UNL     1       1.738  10.242  18.155  0.00  0.00    +0.000 A 
ATOM     16  C   UNL     1       2.161   8.912  18.245  0.00  0.00    +0.000 A 
BRANCH  11  18
ATOM     17  N   UNL     1       1.860   6.106  20.685  0.00  0.00    +0.000 N 
ATOM     18  C   UNL     1       2.322   6.759  19.571  0.00  0.00    +0.000 C 
ATOM     19  O   UNL     1       3.077   6.247  18.758  0.00  0.00    +0.000 OA
ATOM     20  H   UNL     1       1.254   6.552  21.361  0.00  0.00    +0.000 HD
BRANCH  17  21
ATOM     21  C   UNL     1       2.312   4.760  20.981  0.00  0.00    +0.000 C 
BRANCH  21  22
ATOM     22  C   UNL     1       1.389   3.687  20.384  0.00  0.00    +0.000 C 
BRANCH  22  24
ATOM     23  C   UNL     1       3.223   2.469  19.351  0.00  0.00    +0.000 C 
ATOM     24  N   UNL     1       1.896   3.057  19.144  0.00  0.00    +0.000 NA
ATOM     25  C   UNL     1       0.964   2.012  18.705  0.00  0.00    +0.000 C 
ENDBRANCH  22  24
ENDBRANCH  21  22
ENDBRANCH  17  21
ENDBRANCH  11  18
ENDBRANCH   1  14
BRANCH   2  26
ATOM     26  C   UNL     1      -1.816  11.753  18.153  0.00  0.00    +0.000 A 
ATOM     27  C   UNL     1      -3.108  11.929  18.673  0.00  0.00    +0.000 A 
ATOM     28  C   UNL     1      -4.138  11.033  18.372  0.00  0.00    +0.000 A 
ATOM     29  C   UNL     1      -3.915   9.995  17.472  0.00  0.00    +0.000 A 
ATOM     30  C   UNL     1      -2.663   9.854  16.878  0.00  0.00    +0.000 A 
ATOM     31  C   UNL     1      -1.619  10.720  17.223  0.00  0.00    +0.000 A 
ENDBRANCH   2  26
TORSDOF 6
ENDMDL
MODEL 6
REMARK VINA RESULT:      -7.3      0.815      1.142
REMARK  Name = 
REMARK  8 active torsions:
REMARK  status: ('A' for Active; 'I' for Inactive)
REMARK    1  A    between atoms: C_1  and  N_2
REMARK    2  A    between atoms: N_2  and  C_3
REMARK    3  A    between atoms: N_2  and  C_4
REMARK    4  A    between atoms: C_4  and  C_5
REMARK    5  A    between atoms: C_5  and  N_6
REMARK    6  A    between atoms: C_7  and  C_9
REMARK    7  A    between atoms: C_12  and  N_13
REMARK    8  A    between atoms: C_14  and  C_15
REMARK                            x       y       z     vdW  Elec       q    Type
REMARK                         _______ _______ _______ _____ _____    ______ ____
ROOT
ATOM      1  N   UNL     1       0.539  12.006  19.005  0.00  0.00    +0.000 N 
ATOM      2  C   UNL     1      -0.732  12.407  18.550  0.00  0.00    +0.000 A 
ATOM      3  C   UNL     1      -0.764  13.790  18.615  0.00  0.00    +0.000 A 
ATOM      4  C   UNL     1       0.439  14.264  19.184  0.00  0.00    +0.000 A 
ATOM      5  C   UNL     1       1.232  13.153  19.440  0.00  0.00    +0.000 A 
ATOM      6  C   UNL     1       2.610  13.140  20.041  0.00  0.00    +0.000 C 
ATOM      7  C   UNL     1       3.590  14.235  19.620  0.00  0.00    +0.000 C 
ATOM      8  C   UNL     1       3.134  15.233  18.568  0.00  0.00    +0.000 C 
ATOM      9  C   UNL     1       2.116  16.231  19.106  0.00  0.00    +0.000 C 
ATOM     10  C   UNL     1       0.732  15.698  19.484  0.00  0.00    +0.000 C 
ENDROOT
BRANCH   1  14
ATOM     11  C   UNL     1       2.064   8.041  19.009  0.00  0.00    +0.000 A 
ATOM     12  C   UNL     1       1.368   8.534  20.115  0.00  0.00    +0.000 A 
ATOM     13  C   UNL     1       0.825   9.819  20.089  0.00  0.00    +0.000 A 
ATOM     14  C   UNL     1       1.050  10.663  18.991  0.00  0.00    +0.000 A 
ATOM     15  C   UNL     1       1.811  10.185  17.915  0.00  0.00    +0.000 A 
ATOM     16  C   UNL     1       2.288   8.870  17.907  0.00  0.00    +0.000 A 
BRANCH  11  18
ATOM     17  N   UNL     1       2.313   5.863  17.947  0.00  0.00    +0.000 N 
ATOM     18  C   UNL     1       2.531   6.628  19.063  0.00  0.00    +0.000 C 
ATOM     19  O   UNL     1       3.033   6.192  20.089  0.00  0.00    +0.000 OA
ATOM     20  H   UNL     1       1.874   6.234  17.114  0.00  0.00    +0.000 HD
BRANCH  17  21
ATOM     21  C   UNL     1       2.625   4.446  17.961  0.00  0.00    +0.000 C 
BRANCH  21  22
ATOM     22  C   UNL     1       1.456   3.594  18.476  0.00  0.00    +0.000 C 
BRANCH  22  24
ATOM     23  C   UNL     1       3.240   2.586  19.783  0.00  0.00    +0.000 C 
ATOM     24  N   UNL     1       1.790   2.712  19.617  0.00  0.00    +0.000 NA
ATOM     25  C   UNL     1       1.204   3.255  20.848  0.00  0.00    +0.000 C 
ENDBRANCH  22  24
ENDBRANCH  21  22
ENDBRANCH  17  21
ENDBRANCH  11  18
ENDBRANCH   1  14
BRANCH   2  26
ATOM     26  C   UNL     1      -1.852  11.526  18.145  0.00  0.00    +0.000 A 
ATOM     27  C   UNL     1      -1.669  10.447  17.266  0.00  0.00    +0.000 A 
ATOM     28  C   UNL     1      -2.755   9.704  16.796  0.00  0.00    +0.000 A 
ATOM     29  C   UNL     1      -4.037   9.971  17.270  0.00  0.00    +0.000 A 
ATOM     30  C   UNL     1      -4.229  10.981  18.209  0.00  0.00    +0.000 A 
ATOM     31  C   UNL     1      -3.147  11.759  18.636  0.00  0.00    +0.000 A 
ENDBRANCH   2  26
TORSDOF 6
ENDMDL
MODEL 7
REMARK VINA RESULT:      -7.3      1.857      2.240
REMARK  Name = 
REMARK  8 active torsions:
REMARK  status: ('A' for Active; 'I' for Inactive)
REMARK    1  A    between atoms: C_1  and  N_2
REMARK    2  A    between atoms: N_2  and  C_3
REMARK    3  A    between atoms: N_2  and  C_4
REMARK    4  A    between atoms: C_4  and  C_5
REMARK    5  A    between atoms: C_5  and  N_6
REMARK    6  A    between atoms: C_7  and  C_9
REMARK    7  A    between atoms: C_12  and  N_13
REMARK    8  A    between atoms: C_14  and  C_15
REMARK                            x       y       z     vdW  Elec       q    Type
REMARK                         _______ _______ _______ _____ _____    ______ ____
ROOT
ATOM      1  N   UNL     1       0.574  12.167  19.022  0.00  0.00    +0.000 N 
ATOM      2  C   UNL     1      -0.678  12.560  18.511  0.00  0.00    +0.000 A 
ATOM      3  C   UNL     1      -0.663  13.943  18.431  0.00  0.00    +0.000 A 
ATOM      4  C   UNL     1       0.551  14.433  18.964  0.00  0.00    +0.000 A 
ATOM      5  C   UNL     1       1.302  13.328  19.344  0.00  0.00    +0.000 A 
ATOM      6  C   UNL     1       2.673  13.332  19.961  0.00  0.00    +0.000 C 
ATOM      7  C   UNL     1       3.695  14.343  19.442  0.00  0.00    +0.000 C 
ATOM      8  C   UNL     1       3.284  15.241  18.285  0.00  0.00    +0.000 C 
ATOM      9  C   UNL     1       2.296  16.323  18.703  0.00  0.00    +0.000 C 
ATOM     10  C   UNL     1       0.891  15.880  19.117  0.00  0.00    +0.000 C 
ENDROOT
BRANCH   1  14
ATOM     11  C   UNL     1       1.926   8.155  19.372  0.00  0.00    +0.000 A 
ATOM     12  C   UNL     1       2.144   8.876  18.196  0.00  0.00    +0.000 A 
ATOM     13  C   UNL     1       1.743  10.209  18.105  0.00  0.00    +0.000 A 
ATOM     14  C   UNL     1       1.037  10.813  19.155  0.00  0.00    +0.000 A 
ATOM     15  C   UNL     1       0.759  10.059  20.304  0.00  0.00    +0.000 A 
ATOM     16  C   UNL     1       1.229   8.747  20.429  0.00  0.00    +0.000 A 
BRANCH  11  18
ATOM     17  N   UNL     1       3.361   6.407  18.467  0.00  0.00    +0.000 N 
ATOM     18  C   UNL     1       2.466   6.769  19.440  0.00  0.00    +0.000 C 
ATOM     19  O   UNL     1       2.068   6.002  20.304  0.00  0.00    +0.000 OA
ATOM     20  H   UNL     1       3.662   7.047  17.743  0.00  0.00    +0.000 HD
BRANCH  17  21
ATOM     21  C   UNL     1       3.840   5.040  18.387  0.00  0.00    +0.000 C 
BRANCH  21  22
ATOM     22  C   UNL     1       5.270   4.888  18.925  0.00  0.00    +0.000 C 
BRANCH  22  24
ATOM     23  C   UNL     1       5.760   4.508  16.574  0.00  0.00    +0.000 C 
ATOM     24  N   UNL     1       6.243   4.348  17.948  0.00  0.00    +0.000 NA
ATOM     25  C   UNL     1       7.527   5.043  18.097  0.00  0.00    +0.000 C 
ENDBRANCH  22  24
ENDBRANCH  21  22
ENDBRANCH  17  21
ENDBRANCH  11  18
ENDBRANCH   1  14
BRANCH   2  26
ATOM     26  C   UNL     1      -1.825  11.681  18.186  0.00  0.00    +0.000 A 
ATOM     27  C   UNL     1      -1.692  10.570  17.338  0.00  0.00    +0.000 A 
ATOM     28  C   UNL     1      -2.806   9.825  16.942  0.00  0.00    +0.000 A 
ATOM     29  C   UNL     1      -4.062  10.124  17.460  0.00  0.00    +0.000 A 
ATOM     30  C   UNL     1      -4.203  11.168  18.370  0.00  0.00    +0.000 A 
ATOM     31  C   UNL     1      -3.094  11.947  18.723  0.00  0.00    +0.000 A 
ENDBRANCH   2  26
TORSDOF 6
ENDMDL
MODEL 8
REMARK VINA RESULT:      -7.2      6.515      9.003
REMARK  Name = 
REMARK  8 active torsions:
REMARK  status: ('A' for Active; 'I' for Inactive)
REMARK    1  A    between atoms: C_1  and  N_2
REMARK    2  A    between atoms: N_2  and  C_3
REMARK    3  A    between atoms: N_2  and  C_4
REMARK    4  A    between atoms: C_4  and  C_5
REMARK    5  A    between atoms: C_5  and  N_6
REMARK    6  A    between atoms: C_7  and  C_9
REMARK    7  A    between atoms: C_12  and  N_13
REMARK    8  A    between atoms: C_14  and  C_15
REMARK                            x       y       z     vdW  Elec       q    Type
REMARK                         _______ _______ _______ _____ _____    ______ ____
ROOT
ATOM      1  N   UNL     1       9.982  13.221  19.725  0.00  0.00    +0.000 N 
ATOM      2  C   UNL     1       9.491  13.943  20.829  0.00  0.00    +0.000 A 
ATOM      3  C   UNL     1      10.168  15.151  20.851  0.00  0.00    +0.000 A 
ATOM      4  C   UNL     1      11.139  15.167  19.825  0.00  0.00    +0.000 A 
ATOM      5  C   UNL     1      11.030  13.961  19.146  0.00  0.00    +0.000 A 
ATOM      6  C   UNL     1      11.847  13.506  17.967  0.00  0.00    +0.000 C 
ATOM      7  C   UNL     1      12.196  14.535  16.893  0.00  0.00    +0.000 C 
ATOM      8  C   UNL     1      11.640  15.942  17.045  0.00  0.00    +0.000 C 
ATOM      9  C   UNL     1      12.333  16.732  18.148  0.00  0.00    +0.000 C 
ATOM     10  C   UNL     1      12.114  16.275  19.592  0.00  0.00    +0.000 C 
ENDROOT
BRANCH   1  14
ATOM     11  C   UNL     1       8.519   9.482  18.336  0.00  0.00    +0.000 A 
ATOM     12  C   UNL     1       9.348   9.546  19.459  0.00  0.00    +0.000 A 
ATOM     13  C   UNL     1       9.783  10.780  19.941  0.00  0.00    +0.000 A 
ATOM     14  C   UNL     1       9.472  11.962  19.253  0.00  0.00    +0.000 A 
ATOM     15  C   UNL     1       8.700  11.881  18.085  0.00  0.00    +0.000 A 
ATOM     16  C   UNL     1       8.196  10.653  17.646  0.00  0.00    +0.000 A 
BRANCH  11  18
ATOM     17  N   UNL     1       8.155   7.127  18.843  0.00  0.00    +0.000 N 
ATOM     18  C   UNL     1       8.009   8.142  17.933  0.00  0.00    +0.000 C 
ATOM     19  O   UNL     1       7.538   7.981  16.817  0.00  0.00    +0.000 OA
ATOM     20  H   UNL     1       8.570   7.272  19.755  0.00  0.00    +0.000 HD
BRANCH  17  21
ATOM     21  C   UNL     1       7.798   5.768  18.484  0.00  0.00    +0.000 C 
BRANCH  21  22
ATOM     22  C   UNL     1       6.533   5.283  19.206  0.00  0.00    +0.000 C 
BRANCH  22  24
ATOM     23  C   UNL     1       5.078   4.491  17.426  0.00  0.00    +0.000 C 
ATOM     24  N   UNL     1       5.272   5.508  18.463  0.00  0.00    +0.000 NA
ATOM     25  C   UNL     1       4.139   5.476  19.394  0.00  0.00    +0.000 C 
ENDBRANCH  22  24
ENDBRANCH  21  22
ENDBRANCH  17  21
ENDBRANCH  11  18
ENDBRANCH   1  14
BRANCH   2  26
ATOM     26  C   UNL     1       8.496  13.483  21.825  0.00  0.00    +0.000 A 
ATOM     27  C   UNL     1       8.807  12.514  22.792  0.00  0.00    +0.000 A 
ATOM     28  C   UNL     1       7.824  11.999  23.642  0.00  0.00    +0.000 A 
ATOM     29  C   UNL     1       6.531  12.511  23.600  0.00  0.00    +0.000 A 
ATOM     30  C   UNL     1       6.222  13.534  22.707  0.00  0.00    +0.000 A 
ATOM     31  C   UNL     1       7.194  14.009  21.819  0.00  0.00    +0.000 A 
ENDBRANCH   2  26
TORSDOF 6
ENDMDL
MODEL 9
REMARK VINA RESULT:      -7.2      2.024      2.609
REMARK  Name = 
REMARK  8 active torsions:
REMARK  status: ('A' for Active; 'I' for Inactive)
REMARK    1  A    between atoms: C_1  and  N_2
REMARK    2  A    between atoms: N_2  and  C_3
REMARK    3  A    between atoms: N_2  and  C_4
REMARK    4  A    between atoms: C_4  and  C_5
REMARK    5  A    between atoms: C_5  and  N_6
REMARK    6  A    between atoms: C_7  and  C_9
REMARK    7  A    between atoms: C_12  and  N_13
REMARK    8  A    between atoms: C_14  and  C_15
REMARK                            x       y       z     vdW  Elec       q    Type
REMARK                         _______ _______ _______ _____ _____    ______ ____
ROOT
ATOM      1  N   UNL     1       0.554  12.030  19.140  0.00  0.00    +0.000 N 
ATOM      2  C   UNL     1      -0.689  12.429  18.612  0.00  0.00    +0.000 A 
ATOM      3  C   UNL     1      -0.742  13.810  18.709  0.00  0.00    +0.000 A 
ATOM      4  C   UNL     1       0.417  14.281  19.367  0.00  0.00    +0.000 A 
ATOM      5  C   UNL     1       1.203  13.172  19.647  0.00  0.00    +0.000 A 
ATOM      6  C   UNL     1       2.540  13.157  20.337  0.00  0.00    +0.000 C 
ATOM      7  C   UNL     1       3.532  14.272  20.009  0.00  0.00    +0.000 C 
ATOM      8  C   UNL     1       3.135  15.292  18.953  0.00  0.00    +0.000 C 
ATOM      9  C   UNL     1       2.072  16.265  19.448  0.00  0.00    +0.000 C 
ATOM     10  C   UNL     1       0.673  15.710  19.722  0.00  0.00    +0.000 C 
ENDROOT
BRANCH   1  14
ATOM     11  C   UNL     1       2.090   8.070  19.058  0.00  0.00    +0.000 A 
ATOM     12  C   UNL     1       2.283   8.928  17.972  0.00  0.00    +0.000 A 
ATOM     13  C   UNL     1       1.821  10.243  18.025  0.00  0.00    +0.000 A 
ATOM     14  C   UNL     1       1.079  10.692  19.127  0.00  0.00    +0.000 A 
ATOM     15  C   UNL     1       0.829   9.802  20.182  0.00  0.00    +0.000 A 
ATOM     16  C   UNL     1       1.359   8.508  20.165  0.00  0.00    +0.000 A 
BRANCH  11  18
ATOM     17  N   UNL     1       3.874   6.601  18.287  0.00  0.00    +0.000 N 
ATOM     18  C   UNL     1       2.695   6.711  18.978  0.00  0.00    +0.000 C 
ATOM     19  O   UNL     1       2.113   5.757  19.471  0.00  0.00    +0.000 OA
ATOM     20  H   UNL     1       4.330   7.398  17.863  0.00  0.00    +0.000 HD
BRANCH  17  21
ATOM     21  C   UNL     1       4.464   5.296  18.056  0.00  0.00    +0.000 C 
BRANCH  21  22
ATOM     22  C   UNL     1       5.486   4.914  19.137  0.00  0.00    +0.000 C 
BRANCH  22  24
ATOM     23  C   UNL     1       6.886   4.591  17.175  0.00  0.00    +0.000 C 
ATOM     24  N   UNL     1       6.862   4.699  18.637  0.00  0.00    +0.000 NA
ATOM     25  C   UNL     1       7.719   5.815  19.056  0.00  0.00    +0.000 C 
ENDBRANCH  22  24
ENDBRANCH  21  22
ENDBRANCH  17  21
ENDBRANCH  11  18
ENDBRANCH   1  14
BRANCH   2  26
ATOM     26  C   UNL     1      -1.771  11.548  18.114  0.00  0.00    +0.000 A 
ATOM     27  C   UNL     1      -3.101  11.694  18.537  0.00  0.00    +0.000 A 
ATOM     28  C   UNL     1      -4.086  10.778  18.156  0.00  0.00    +0.000 A 
ATOM     29  C   UNL     1      -3.775   9.751  17.270  0.00  0.00    +0.000 A 
ATOM     30  C   UNL     1      -2.480   9.640  16.770  0.00  0.00    +0.000 A 
ATOM     31  C   UNL     1      -1.483  10.525  17.197  0.00  0.00    +0.000 A 
ENDBRANCH   2  26
TORSDOF 6
ENDMDL
