MODEL 1
REMARK VINA RESULT:      -7.4      0.000      0.000
REMARK  Name = 
REMARK  9 active torsions:
REMARK  status: ('A' for Active; 'I' for Inactive)
REMARK    1  A    between atoms: C_1  and  C_2
REMARK    2  A    between atoms: C_4  and  C_5
REMARK    3  A    between atoms: C_5  and  O_6
REMARK    4  A    between atoms: O_6  and  C_7
REMARK    5  A    between atoms: C_10  and  C_11
REMARK    6  A    between atoms: C_11  and  C_12
REMARK    7  A    between atoms: C_11  and  C_13
REMARK    8  A    between atoms: C_11  and  C_14
REMARK    9  A    between atoms: N_18  and  C_19
REMARK                            x       y       z     vdW  Elec       q    Type
REMARK                         _______ _______ _______ _____ _____    ______ ____
ROOT
ATOM      1  C   UNL     1       4.329   4.023  16.720  0.00  0.00    +0.000 A 
ATOM      2  C   UNL     1       3.691   5.117  17.255  0.00  0.00    +0.000 A 
ATOM      3  C   UNL     1       2.966   5.053  18.429  0.00  0.00    +0.000 A 
ATOM      4  C   UNL     1       2.818   3.839  19.132  0.00  0.00    +0.000 A 
ATOM      5  C   UNL     1       3.474   2.721  18.597  0.00  0.00    +0.000 A 
ATOM      6  C   UNL     1       4.216   2.788  17.393  0.00  0.00    +0.000 A 
ENDROOT
BRANCH   4   7
ATOM      7  C   UNL     1       1.920   3.779  20.384  0.00  0.00    +0.000 C 
ATOM      8  C   UNL     1       2.538   2.879  21.480  0.00  0.00    +0.000 C 
ATOM      9  C   UNL     1       1.748   5.199  20.964  0.00  0.00    +0.000 C 
ATOM     10  C   UNL     1       0.511   3.229  20.084  0.00  0.00    +0.000 C 
ENDBRANCH   4   7
BRANCH   1  11
ATOM     11  O   UNL     1       5.041   4.131  15.549  0.00  0.00    +0.000 OA
BRANCH  11  12
ATOM     12  C   UNL     1       6.492   3.985  15.699  0.00  0.00    +0.000 C 
BRANCH  12  16
ATOM     13  C   UNL     1       8.041   8.166  17.941  0.00  0.00    +0.000 C 
ATOM     14  C   UNL     1       7.656   6.772  17.605  0.00  0.00    +0.000 A 
ATOM     15  N   UNL     1       7.212   6.298  16.456  0.00  0.00    +0.000 NA
ATOM     16  C   UNL     1       7.017   4.956  16.712  0.00  0.00    +0.000 A 
ATOM     17  N   UNL     1       7.344   4.581  17.956  0.00  0.00    +0.000 NA
ATOM     18  N   UNL     1       7.723   5.745  18.503  0.00  0.00    +0.000 N 
ATOM     19  C   UNL     1       8.140   5.795  19.880  0.00  0.00    +0.000 C 
ENDBRANCH  12  16
ENDBRANCH  11  12
ENDBRANCH   1  11
TORSDOF 4
ENDMDL
MODEL 2
REMARK VINA RESULT:      -7.3      2.175      3.430
REMARK  Name = 
REMARK  9 active torsions:
REMARK  status: ('A' for Active; 'I' for Inactive)
REMARK    1  A    between atoms: C_1  and  C_2
REMARK    2  A    between atoms: C_4  and  C_5
REMARK    3  A    between atoms: C_5  and  O_6
REMARK    4  A    between atoms: O_6  and  C_7
REMARK    5  A    between atoms: C_10  and  C_11
REMARK    6  A    between atoms: C_11  and  C_12
REMARK    7  A    between atoms: C_11  and  C_13
REMARK    8  A    between atoms: C_11  and  C_14
REMARK    9  A    between atoms: N_18  and  C_19
REMARK                            x       y       z     vdW  Elec       q    Type
REMARK                         _______ _______ _______ _____ _____    ______ ____
ROOT
ATOM      1  C   UNL     1       5.135   5.108  17.979  0.00  0.00    +0.000 A 
ATOM      2  C   UNL     1       5.221   4.080  18.886  0.00  0.00    +0.000 A 
ATOM      3  C   UNL     1       4.106   3.519  19.480  0.00  0.00    +0.000 A 
ATOM      4  C   UNL     1       2.810   4.000  19.203  0.00  0.00    +0.000 A 
ATOM      5  C   UNL     1       2.715   5.044  18.270  0.00  0.00    +0.000 A 
ATOM      6  C   UNL     1       3.857   5.617  17.662  0.00  0.00    +0.000 A 
ENDROOT
BRANCH   4   7
ATOM      7  C   UNL     1       1.595   3.421  19.957  0.00  0.00    +0.000 C 
ATOM      8  C   UNL     1       2.034   2.622  21.206  0.00  0.00    +0.000 C 
ATOM      9  C   UNL     1       0.678   4.574  20.417  0.00  0.00    +0.000 C 
ATOM     10  C   UNL     1       0.746   2.475  19.085  0.00  0.00    +0.000 C 
ENDBRANCH   4   7
BRANCH   1  11
ATOM     11  O   UNL     1       6.270   5.637  17.410  0.00  0.00    +0.000 OA
BRANCH  11  12
ATOM     12  C   UNL     1       7.192   4.646  16.847  0.00  0.00    +0.000 C 
BRANCH  12  16
ATOM     13  C   UNL     1       7.819   5.524  11.974  0.00  0.00    +0.000 C 
ATOM     14  C   UNL     1       7.385   5.015  13.300  0.00  0.00    +0.000 A 
ATOM     15  N   UNL     1       7.790   5.396  14.497  0.00  0.00    +0.000 NA
ATOM     16  C   UNL     1       7.063   4.596  15.356  0.00  0.00    +0.000 A 
ATOM     17  N   UNL     1       6.215   3.760  14.741  0.00  0.00    +0.000 NA
ATOM     18  N   UNL     1       6.452   4.029  13.449  0.00  0.00    +0.000 N 
ATOM     19  C   UNL     1       5.749   3.309  12.419  0.00  0.00    +0.000 C 
ENDBRANCH  12  16
ENDBRANCH  11  12
ENDBRANCH   1  11
TORSDOF 4
ENDMDL
MODEL 3
REMARK VINA RESULT:      -7.3      0.163      1.104
REMARK  Name = 
REMARK  9 active torsions:
REMARK  status: ('A' for Active; 'I' for Inactive)
REMARK    1  A    between atoms: C_1  and  C_2
REMARK    2  A    between atoms: C_4  and  C_5
REMARK    3  A    between atoms: C_5  and  O_6
REMARK    4  A    between atoms: O_6  and  C_7
REMARK    5  A    between atoms: C_10  and  C_11
REMARK    6  A    between atoms: C_11  and  C_12
REMARK    7  A    between atoms: C_11  and  C_13
REMARK    8  A    between atoms: C_11  and  C_14
REMARK    9  A    between atoms: N_18  and  C_19
REMARK                            x       y       z     vdW  Elec       q    Type
REMARK                         _______ _______ _______ _____ _____    ______ ____
ROOT
ATOM      1  C   UNL     1       4.335   4.140  16.608  0.00  0.00    +0.000 A 
ATOM      2  C   UNL     1       4.062   2.921  17.179  0.00  0.00    +0.000 A 
ATOM      3  C   UNL     1       3.280   2.789  18.311  0.00  0.00    +0.000 A 
ATOM      4  C   UNL     1       2.740   3.918  18.961  0.00  0.00    +0.000 A 
ATOM      5  C   UNL     1       3.008   5.165  18.379  0.00  0.00    +0.000 A 
ATOM      6  C   UNL     1       3.809   5.298  17.219  0.00  0.00    +0.000 A 
ENDROOT
BRANCH   4   7
ATOM      7  C   UNL     1       1.956   3.746  20.279  0.00  0.00    +0.000 C 
ATOM      8  C   UNL     1       2.712   2.832  21.271  0.00  0.00    +0.000 C 
ATOM      9  C   UNL     1       1.759   5.125  20.944  0.00  0.00    +0.000 C 
ATOM     10  C   UNL     1       0.558   3.131  20.066  0.00  0.00    +0.000 C 
ENDBRANCH   4   7
BRANCH   1  11
ATOM     11  O   UNL     1       5.118   4.226  15.480  0.00  0.00    +0.000 OA
BRANCH  11  12
ATOM     12  C   UNL     1       6.549   4.010  15.711  0.00  0.00    +0.000 C 
BRANCH  12  16
ATOM     13  C   UNL     1       8.074   8.173  18.003  0.00  0.00    +0.000 C 
ATOM     14  C   UNL     1       7.697   6.781  17.651  0.00  0.00    +0.000 A 
ATOM     15  N   UNL     1       7.255   6.318  16.496  0.00  0.00    +0.000 NA
ATOM     16  C   UNL     1       7.068   4.971  16.736  0.00  0.00    +0.000 A 
ATOM     17  N   UNL     1       7.398   4.584  17.975  0.00  0.00    +0.000 NA
ATOM     18  N   UNL     1       7.771   5.743  18.536  0.00  0.00    +0.000 N 
ATOM     19  C   UNL     1       8.187   5.779  19.914  0.00  0.00    +0.000 C 
ENDBRANCH  12  16
ENDBRANCH  11  12
ENDBRANCH   1  11
TORSDOF 4
ENDMDL
MODEL 4
REMARK VINA RESULT:      -7.3      2.148      3.633
REMARK  Name = 
REMARK  9 active torsions:
REMARK  status: ('A' for Active; 'I' for Inactive)
REMARK    1  A    between atoms: C_1  and  C_2
REMARK    2  A    between atoms: C_4  and  C_5
REMARK    3  A    between atoms: C_5  and  O_6
REMARK    4  A    between atoms: O_6  and  C_7
REMARK    5  A    between atoms: C_10  and  C_11
REMARK    6  A    between atoms: C_11  and  C_12
REMARK    7  A    between atoms: C_11  and  C_13
REMARK    8  A    between atoms: C_11  and  C_14
REMARK    9  A    between atoms: N_18  and  C_19
REMARK                            x       y       z     vdW  Elec       q    Type
REMARK                         _______ _______ _______ _____ _____    ______ ____
ROOT
ATOM      1  C   UNL     1       5.099   5.302  17.945  0.00  0.00    +0.000 A 
ATOM      2  C   UNL     1       3.804   5.657  17.652  0.00  0.00    +0.000 A 
ATOM      3  C   UNL     1       2.717   5.110  18.307  0.00  0.00    +0.000 A 
ATOM      4  C   UNL     1       2.884   4.124  19.302  0.00  0.00    +0.000 A 
ATOM      5  C   UNL     1       4.203   3.763  19.612  0.00  0.00    +0.000 A 
ATOM      6  C   UNL     1       5.315   4.326  18.941  0.00  0.00    +0.000 A 
ENDROOT
BRANCH   4   7
ATOM      7  C   UNL     1       1.648   3.460  19.943  0.00  0.00    +0.000 C 
ATOM      8  C   UNL     1       0.615   4.514  20.404  0.00  0.00    +0.000 C 
ATOM      9  C   UNL     1       0.969   2.534  18.912  0.00  0.00    +0.000 C 
ATOM     10  C   UNL     1       2.003   2.600  21.172  0.00  0.00    +0.000 C 
ENDBRANCH   4   7
BRANCH   1  11
ATOM     11  O   UNL     1       6.152   5.873  17.269  0.00  0.00    +0.000 OA
BRANCH  11  12
ATOM     12  C   UNL     1       7.158   4.922  16.790  0.00  0.00    +0.000 C 
BRANCH  12  16
ATOM     13  C   UNL     1       5.690   3.233  12.329  0.00  0.00    +0.000 C 
ATOM     14  C   UNL     1       6.347   3.952  13.449  0.00  0.00    +0.000 A 
ATOM     15  N   UNL     1       6.162   3.793  14.746  0.00  0.00    +0.000 NA
ATOM     16  C   UNL     1       7.023   4.712  15.313  0.00  0.00    +0.000 A 
ATOM     17  N   UNL     1       7.744   5.408  14.424  0.00  0.00    +0.000 NA
ATOM     18  N   UNL     1       7.286   4.926  13.260  0.00  0.00    +0.000 N 
ATOM     19  C   UNL     1       7.793   5.440  12.014  0.00  0.00    +0.000 C 
ENDBRANCH  12  16
ENDBRANCH  11  12
ENDBRANCH   1  11
TORSDOF 4
ENDMDL
MODEL 5
REMARK VINA RESULT:      -7.2      2.049      3.382
REMARK  Name = 
REMARK  9 active torsions:
REMARK  status: ('A' for Active; 'I' for Inactive)
REMARK    1  A    between atoms: C_1  and  C_2
REMARK    2  A    between atoms: C_4  and  C_5
REMARK    3  A    between atoms: C_5  and  O_6
REMARK    4  A    between atoms: O_6  and  C_7
REMARK    5  A    between atoms: C_10  and  C_11
REMARK    6  A    between atoms: C_11  and  C_12
REMARK    7  A    between atoms: C_11  and  C_13
REMARK    8  A    between atoms: C_11  and  C_14
REMARK    9  A    between atoms: N_18  and  C_19
REMARK                            x       y       z     vdW  Elec       q    Type
REMARK                         _______ _______ _______ _____ _____    ______ ____
ROOT
ATOM      1  C   UNL     1       5.195   5.319  18.155  0.00  0.00    +0.000 A 
ATOM      2  C   UNL     1       4.032   6.006  18.410  0.00  0.00    +0.000 A 
ATOM      3  C   UNL     1       2.950   5.425  19.042  0.00  0.00    +0.000 A 
ATOM      4  C   UNL     1       2.974   4.072  19.437  0.00  0.00    +0.000 A 
ATOM      5  C   UNL     1       4.161   3.367  19.188  0.00  0.00    +0.000 A 
ATOM      6  C   UNL     1       5.269   3.963  18.540  0.00  0.00    +0.000 A 
ENDROOT
BRANCH   4   7
ATOM      7  C   UNL     1       1.714   3.425  20.049  0.00  0.00    +0.000 C 
ATOM      8  C   UNL     1       2.062   2.583  21.299  0.00  0.00    +0.000 C 
ATOM      9  C   UNL     1       0.721   4.529  20.469  0.00  0.00    +0.000 C 
ATOM     10  C   UNL     1       0.980   2.495  19.063  0.00  0.00    +0.000 C 
ENDBRANCH   4   7
BRANCH   1  11
ATOM     11  O   UNL     1       6.249   5.936  17.523  0.00  0.00    +0.000 OA
BRANCH  11  12
ATOM     12  C   UNL     1       7.278   5.023  17.016  0.00  0.00    +0.000 C 
BRANCH  12  16
ATOM     13  C   UNL     1       5.745   3.323  12.581  0.00  0.00    +0.000 C 
ATOM     14  C   UNL     1       6.414   4.049  13.690  0.00  0.00    +0.000 A 
ATOM     15  N   UNL     1       6.257   3.885  14.990  0.00  0.00    +0.000 NA
ATOM     16  C   UNL     1       7.116   4.814  15.542  0.00  0.00    +0.000 A 
ATOM     17  N   UNL     1       7.810   5.522  14.641  0.00  0.00    +0.000 NA
ATOM     18  N   UNL     1       7.335   5.037  13.485  0.00  0.00    +0.000 N 
ATOM     19  C   UNL     1       7.810   5.560  12.230  0.00  0.00    +0.000 C 
ENDBRANCH  12  16
ENDBRANCH  11  12
ENDBRANCH   1  11
TORSDOF 4
ENDMDL
MODEL 6
REMARK VINA RESULT:      -7.2      2.136      3.689
REMARK  Name = 
REMARK  9 active torsions:
REMARK  status: ('A' for Active; 'I' for Inactive)
REMARK    1  A    between atoms: C_1  and  C_2
REMARK    2  A    between atoms: C_4  and  C_5
REMARK    3  A    between atoms: C_5  and  O_6
REMARK    4  A    between atoms: O_6  and  C_7
REMARK    5  A    between atoms: C_10  and  C_11
REMARK    6  A    between atoms: C_11  and  C_12
REMARK    7  A    between atoms: C_11  and  C_13
REMARK    8  A    between atoms: C_11  and  C_14
REMARK    9  A    between atoms: N_18  and  C_19
REMARK                            x       y       z     vdW  Elec       q    Type
REMARK                         _______ _______ _______ _____ _____    ______ ____
ROOT
ATOM      1  C   UNL     1       5.051   5.191  17.871  0.00  0.00    +0.000 A 
ATOM      2  C   UNL     1       5.049   4.959  19.225  0.00  0.00    +0.000 A 
ATOM      3  C   UNL     1       3.982   4.372  19.877  0.00  0.00    +0.000 A 
ATOM      4  C   UNL     1       2.813   4.003  19.179  0.00  0.00    +0.000 A 
ATOM      5  C   UNL     1       2.812   4.228  17.795  0.00  0.00    +0.000 A 
ATOM      6  C   UNL     1       3.906   4.829  17.129  0.00  0.00    +0.000 A 
ENDROOT
BRANCH   4   7
ATOM      7  C   UNL     1       1.600   3.442  19.950  0.00  0.00    +0.000 C 
ATOM      8  C   UNL     1       0.686   4.577  20.467  0.00  0.00    +0.000 C 
ATOM      9  C   UNL     1       0.769   2.538  19.015  0.00  0.00    +0.000 C 
ATOM     10  C   UNL     1       2.008   2.593  21.171  0.00  0.00    +0.000 C 
ENDBRANCH   4   7
BRANCH   1  11
ATOM     11  O   UNL     1       6.136   5.777  17.262  0.00  0.00    +0.000 OA
BRANCH  11  12
ATOM     12  C   UNL     1       7.147   4.836  16.774  0.00  0.00    +0.000 C 
BRANCH  12  16
ATOM     13  C   UNL     1       5.769   3.220  12.258  0.00  0.00    +0.000 C 
ATOM     14  C   UNL     1       6.394   3.929  13.403  0.00  0.00    +0.000 A 
ATOM     15  N   UNL     1       6.202   3.731  14.693  0.00  0.00    +0.000 NA
ATOM     16  C   UNL     1       7.031   4.660  15.291  0.00  0.00    +0.000 A 
ATOM     17  N   UNL     1       7.740   5.399  14.427  0.00  0.00    +0.000 NA
ATOM     18  N   UNL     1       7.305   4.934  13.247  0.00  0.00    +0.000 N 
ATOM     19  C   UNL     1       7.809   5.494  12.020  0.00  0.00    +0.000 C 
ENDBRANCH  12  16
ENDBRANCH  11  12
ENDBRANCH   1  11
TORSDOF 4
ENDMDL
MODEL 7
REMARK VINA RESULT:      -7.2      2.087      3.607
REMARK  Name = 
REMARK  9 active torsions:
REMARK  status: ('A' for Active; 'I' for Inactive)
REMARK    1  A    between atoms: C_1  and  C_2
REMARK    2  A    between atoms: C_4  and  C_5
REMARK    3  A    between atoms: C_5  and  O_6
REMARK    4  A    between atoms: O_6  and  C_7
REMARK    5  A    between atoms: C_10  and  C_11
REMARK    6  A    between atoms: C_11  and  C_12
REMARK    7  A    between atoms: C_11  and  C_13
REMARK    8  A    between atoms: C_11  and  C_14
REMARK    9  A    between atoms: N_18  and  C_19
REMARK                            x       y       z     vdW  Elec       q    Type
REMARK                         _______ _______ _______ _____ _____    ______ ____
ROOT
ATOM      1  C   UNL     1       5.101   5.234  17.981  0.00  0.00    +0.000 A 
ATOM      2  C   UNL     1       5.037   3.876  18.175  0.00  0.00    +0.000 A 
ATOM      3  C   UNL     1       3.970   3.266  18.808  0.00  0.00    +0.000 A 
ATOM      4  C   UNL     1       2.894   4.021  19.318  0.00  0.00    +0.000 A 
ATOM      5  C   UNL     1       2.949   5.408  19.114  0.00  0.00    +0.000 A 
ATOM      6  C   UNL     1       4.042   6.031  18.466  0.00  0.00    +0.000 A 
ENDROOT
BRANCH   4   7
ATOM      7  C   UNL     1       1.768   3.323  20.107  0.00  0.00    +0.000 C 
ATOM      8  C   UNL     1       2.302   2.686  21.411  0.00  0.00    +0.000 C 
ATOM      9  C   UNL     1       0.683   4.355  20.481  0.00  0.00    +0.000 C 
ATOM     10  C   UNL     1       1.079   2.202  19.301  0.00  0.00    +0.000 C 
ENDBRANCH   4   7
BRANCH   1  11
ATOM     11  O   UNL     1       6.181   5.800  17.345  0.00  0.00    +0.000 OA
BRANCH  11  12
ATOM     12  C   UNL     1       7.170   4.840  16.847  0.00  0.00    +0.000 C 
BRANCH  12  16
ATOM     13  C   UNL     1       5.706   3.256  12.347  0.00  0.00    +0.000 C 
ATOM     14  C   UNL     1       6.361   3.950  13.484  0.00  0.00    +0.000 A 
ATOM     15  N   UNL     1       6.177   3.758  14.777  0.00  0.00    +0.000 NA
ATOM     16  C   UNL     1       7.035   4.666  15.366  0.00  0.00    +0.000 A 
ATOM     17  N   UNL     1       7.753   5.386  14.494  0.00  0.00    +0.000 NA
ATOM     18  N   UNL     1       7.295   4.931  13.318  0.00  0.00    +0.000 N 
ATOM     19  C   UNL     1       7.800   5.478  12.085  0.00  0.00    +0.000 C 
ENDBRANCH  12  16
ENDBRANCH  11  12
ENDBRANCH   1  11
TORSDOF 4
ENDMDL
MODEL 8
REMARK VINA RESULT:      -7.1      2.185      3.418
REMARK  Name = 
REMARK  9 active torsions:
REMARK  status: ('A' for Active; 'I' for Inactive)
REMARK    1  A    between atoms: C_1  and  C_2
REMARK    2  A    between atoms: C_4  and  C_5
REMARK    3  A    between atoms: C_5  and  O_6
REMARK    4  A    between atoms: O_6  and  C_7
REMARK    5  A    between atoms: C_10  and  C_11
REMARK    6  A    between atoms: C_11  and  C_12
REMARK    7  A    between atoms: C_11  and  C_13
REMARK    8  A    between atoms: C_11  and  C_14
REMARK    9  A    between atoms: N_18  and  C_19
REMARK                            x       y       z     vdW  Elec       q    Type
REMARK                         _______ _______ _______ _____ _____    ______ ____
ROOT
ATOM      1  C   UNL     1       5.199   5.176  18.019  0.00  0.00    +0.000 A 
ATOM      2  C   UNL     1       3.979   5.808  18.042  0.00  0.00    +0.000 A 
ATOM      3  C   UNL     1       2.885   5.287  18.705  0.00  0.00    +0.000 A 
ATOM      4  C   UNL     1       2.958   4.048  19.375  0.00  0.00    +0.000 A 
ATOM      5  C   UNL     1       4.202   3.401  19.363  0.00  0.00    +0.000 A 
ATOM      6  C   UNL     1       5.323   3.937  18.684  0.00  0.00    +0.000 A 
ENDROOT
BRANCH   4   7
ATOM      7  C   UNL     1       1.693   3.445  20.020  0.00  0.00    +0.000 C 
ATOM      8  C   UNL     1       0.956   2.499  19.043  0.00  0.00    +0.000 C 
ATOM      9  C   UNL     1       2.090   2.634  21.272  0.00  0.00    +0.000 C 
ATOM     10  C   UNL     1       0.680   4.518  20.467  0.00  0.00    +0.000 C 
ENDBRANCH   4   7
BRANCH   1  11
ATOM     11  O   UNL     1       6.263   5.730  17.347  0.00  0.00    +0.000 OA
BRANCH  11  12
ATOM     12  C   UNL     1       7.217   4.759  16.804  0.00  0.00    +0.000 C 
BRANCH  12  16
ATOM     13  C   UNL     1       7.760   5.434  11.889  0.00  0.00    +0.000 C 
ATOM     14  C   UNL     1       7.351   4.979  13.242  0.00  0.00    +0.000 A 
ATOM     15  N   UNL     1       7.772   5.412  14.415  0.00  0.00    +0.000 NA
ATOM     16  C   UNL     1       7.064   4.645  15.319  0.00  0.00    +0.000 A 
ATOM     17  N   UNL     1       6.211   3.780  14.754  0.00  0.00    +0.000 NA
ATOM     18  N   UNL     1       6.426   3.995  13.448  0.00  0.00    +0.000 N 
ATOM     19  C   UNL     1       5.710   3.229  12.461  0.00  0.00    +0.000 C 
ENDBRANCH  12  16
ENDBRANCH  11  12
ENDBRANCH   1  11
TORSDOF 4
ENDMDL
MODEL 9
REMARK VINA RESULT:      -7.1      0.456      1.327
REMARK  Name = 
REMARK  9 active torsions:
REMARK  status: ('A' for Active; 'I' for Inactive)
REMARK    1  A    between atoms: C_1  and  C_2
REMARK    2  A    between atoms: C_4  and  C_5
REMARK    3  A    between atoms: C_5  and  O_6
REMARK    4  A    between atoms: O_6  and  C_7
REMARK    5  A    between atoms: C_10  and  C_11
REMARK    6  A    between atoms: C_11  and  C_12
REMARK    7  A    between atoms: C_11  and  C_13
REMARK    8  A    between atoms: C_11  and  C_14
REMARK    9  A    between atoms: N_18  and  C_19
REMARK                            x       y       z     vdW  Elec       q    Type
REMARK                         _______ _______ _______ _____ _____    ______ ____
ROOT
ATOM      1  C   UNL     1       4.339   4.115  16.641  0.00  0.00    +0.000 A 
ATOM      2  C   UNL     1       3.837   5.235  17.260  0.00  0.00    +0.000 A 
ATOM      3  C   UNL     1       3.090   5.170  18.421  0.00  0.00    +0.000 A 
ATOM      4  C   UNL     1       2.778   3.932  19.021  0.00  0.00    +0.000 A 
ATOM      5  C   UNL     1       3.295   2.786  18.400  0.00  0.00    +0.000 A 
ATOM      6  C   UNL     1       4.060   2.854  17.210  0.00  0.00    +0.000 A 
ENDROOT
BRANCH   4   7
ATOM      7  C   UNL     1       1.860   3.885  20.259  0.00  0.00    +0.000 C 
ATOM      8  C   UNL     1       2.525   3.123  21.429  0.00  0.00    +0.000 C 
ATOM      9  C   UNL     1       1.556   5.324  20.729  0.00  0.00    +0.000 C 
ATOM     10  C   UNL     1       0.509   3.197  19.976  0.00  0.00    +0.000 C 
ENDBRANCH   4   7
BRANCH   1  11
ATOM     11  O   UNL     1       5.078   4.226  15.487  0.00  0.00    +0.000 OA
BRANCH  11  12
ATOM     12  C   UNL     1       6.522   4.055  15.666  0.00  0.00    +0.000 C 
BRANCH  12  16
ATOM     13  C   UNL     1       8.248   5.826  20.001  0.00  0.00    +0.000 C 
ATOM     14  C   UNL     1       7.768   5.654  18.607  0.00  0.00    +0.000 A 
ATOM     15  N   UNL     1       7.352   4.551  18.013  0.00  0.00    +0.000 NA
ATOM     16  C   UNL     1       7.031   4.970  16.737  0.00  0.00    +0.000 A 
ATOM     17  N   UNL     1       7.209   6.282  16.530  0.00  0.00    +0.000 NA
ATOM     18  N   UNL     1       7.693   6.685  17.714  0.00  0.00    +0.000 N 
ATOM     19  C   UNL     1       8.053   8.064  17.917  0.00  0.00    +0.000 C 
ENDBRANCH  12  16
ENDBRANCH  11  12
ENDBRANCH   1  11
TORSDOF 4
ENDMDL
