MODEL 1
REMARK VINA RESULT:      -7.0      0.000      0.000
REMARK  Name = 
REMARK  6 active torsions:
REMARK  status: ('A' for Active; 'I' for Inactive)
REMARK    1  A    between atoms: C_1  and  O_2
REMARK    2  A    between atoms: O_2  and  C_3
REMARK    3  A    between atoms: C_6  and  C_7
REMARK    4  A    between atoms: C_11  and  C_12
REMARK    5  A    between atoms: C_12  and  S_13
REMARK    6  A    between atoms: S_13  and  C_16
REMARK                            x       y       z     vdW  Elec       q    Type
REMARK                         _______ _______ _______ _____ _____    ______ ____
ROOT
ATOM      1  C   UNL     1       6.806   6.129  16.767  0.00  0.00    +0.000 C 
ATOM      2  C   UNL     1       6.837   4.786  17.515  0.00  0.00    +0.000 C 
ATOM      3  C   UNL     1       5.643   4.524  18.420  0.00  0.00    +0.000 C 
ATOM      4  O   UNL     1       5.767   3.824  19.427  0.00  0.00    +0.000 OA
ATOM      5  C   UNL     1       4.282   4.960  17.944  0.00  0.00    +0.000 C 
ATOM      6  C   UNL     1       4.388   6.333  17.330  0.00  0.00    +0.000 C 
ATOM      7  O   UNL     1       3.680   7.261  17.709  0.00  0.00    +0.000 OA
ATOM      8  C   UNL     1       5.414   6.495  16.234  0.00  0.00    +0.000 C 
ENDROOT
BRANCH   1  12
ATOM      9  C   UNL     1       8.743   9.426  18.797  0.00  0.00    +0.000 A 
ATOM     10  C   UNL     1       8.894   8.118  19.247  0.00  0.00    +0.000 A 
ATOM     11  C   UNL     1       8.226   7.075  18.608  0.00  0.00    +0.000 A 
ATOM     12  C   UNL     1       7.378   7.323  17.514  0.00  0.00    +0.000 A 
ATOM     13  C   UNL     1       7.187   8.647  17.108  0.00  0.00    +0.000 A 
ATOM     14  C   UNL     1       7.866   9.691  17.746  0.00  0.00    +0.000 A 
BRANCH   9  16
ATOM     15  C   UNL     1      10.326  11.163  18.648  0.00  0.00    +0.000 C 
ATOM     16  O   UNL     1       9.473  10.370  19.467  0.00  0.00    +0.000 OA
ENDBRANCH   9  16
ENDBRANCH   1  12
BRANCH   5  17
ATOM     17  C   UNL     1       3.748   3.921  16.969  0.00  0.00    +0.000 C 
BRANCH  17  18
ATOM     18  S   UNL     1       2.143   3.314  17.438  0.00  0.00    +0.000 S 
ATOM     19  O   UNL     1       1.140   4.221  16.920  0.00  0.00    +0.000 OA
ATOM     20  O   UNL     1       2.107   1.891  17.161  0.00  0.00    +0.000 OA
BRANCH  18  21
ATOM     21  C   UNL     1       2.177   3.488  19.206  0.00  0.00    +0.000 A 
ATOM     22  C   UNL     1       1.743   4.679  19.791  0.00  0.00    +0.000 A 
ATOM     23  C   UNL     1       1.822   4.824  21.174  0.00  0.00    +0.000 A 
ATOM     24  C   UNL     1       2.319   3.783  21.960  0.00  0.00    +0.000 A 
ATOM     25  C   UNL     1       2.721   2.582  21.369  0.00  0.00    +0.000 A 
ATOM     26  C   UNL     1       2.645   2.428  19.988  0.00  0.00    +0.000 A 
ENDBRANCH  18  21
ENDBRANCH  17  18
ENDBRANCH   5  17
TORSDOF 5
ENDMDL
MODEL 2
REMARK VINA RESULT:      -6.7      0.445      1.051
REMARK  Name = 
REMARK  6 active torsions:
REMARK  status: ('A' for Active; 'I' for Inactive)
REMARK    1  A    between atoms: C_1  and  O_2
REMARK    2  A    between atoms: O_2  and  C_3
REMARK    3  A    between atoms: C_6  and  C_7
REMARK    4  A    between atoms: C_11  and  C_12
REMARK    5  A    between atoms: C_12  and  S_13
REMARK    6  A    between atoms: S_13  and  C_16
REMARK                            x       y       z     vdW  Elec       q    Type
REMARK                         _______ _______ _______ _____ _____    ______ ____
ROOT
ATOM      1  C   UNL     1       6.806   6.142  16.750  0.00  0.00    +0.000 C 
ATOM      2  C   UNL     1       6.825   4.780  17.464  0.00  0.00    +0.000 C 
ATOM      3  C   UNL     1       5.642   4.516  18.383  0.00  0.00    +0.000 C 
ATOM      4  O   UNL     1       5.770   3.790  19.370  0.00  0.00    +0.000 OA
ATOM      5  C   UNL     1       4.281   4.989  17.942  0.00  0.00    +0.000 C 
ATOM      6  C   UNL     1       4.402   6.375  17.360  0.00  0.00    +0.000 C 
ATOM      7  O   UNL     1       3.718   7.306  17.775  0.00  0.00    +0.000 OA
ATOM      8  C   UNL     1       5.411   6.546  16.251  0.00  0.00    +0.000 C 
ENDROOT
BRANCH   1  12
ATOM      9  C   UNL     1       8.839   9.338  18.847  0.00  0.00    +0.000 A 
ATOM     10  C   UNL     1       8.904   8.025  19.304  0.00  0.00    +0.000 A 
ATOM     11  C   UNL     1       8.205   7.017  18.642  0.00  0.00    +0.000 A 
ATOM     12  C   UNL     1       7.412   7.306  17.516  0.00  0.00    +0.000 A 
ATOM     13  C   UNL     1       7.307   8.638  17.102  0.00  0.00    +0.000 A 
ATOM     14  C   UNL     1       8.016   9.646  17.764  0.00  0.00    +0.000 A 
BRANCH   9  16
ATOM     15  C   UNL     1       8.847  11.178  20.315  0.00  0.00    +0.000 C 
ATOM     16  O   UNL     1       9.593  10.244  19.542  0.00  0.00    +0.000 OA
ENDBRANCH   9  16
ENDBRANCH   1  12
BRANCH   5  17
ATOM     17  C   UNL     1       3.711   3.984  16.951  0.00  0.00    +0.000 C 
BRANCH  17  18
ATOM     18  S   UNL     1       2.129   3.352  17.462  0.00  0.00    +0.000 S 
ATOM     19  O   UNL     1       1.100   4.254  16.989  0.00  0.00    +0.000 OA
ATOM     20  O   UNL     1       2.101   1.933  17.166  0.00  0.00    +0.000 OA
BRANCH  18  21
ATOM     21  C   UNL     1       2.217   3.502  19.230  0.00  0.00    +0.000 A 
ATOM     22  C   UNL     1       2.658   2.420  19.994  0.00  0.00    +0.000 A 
ATOM     23  C   UNL     1       2.674   2.531  21.382  0.00  0.00    +0.000 A 
ATOM     24  C   UNL     1       2.263   3.716  21.995  0.00  0.00    +0.000 A 
ATOM     25  C   UNL     1       1.853   4.806  21.222  0.00  0.00    +0.000 A 
ATOM     26  C   UNL     1       1.835   4.704  19.833  0.00  0.00    +0.000 A 
ENDBRANCH  18  21
ENDBRANCH  17  18
ENDBRANCH   5  17
TORSDOF 5
ENDMDL
MODEL 3
REMARK VINA RESULT:      -6.7      3.103      6.288
REMARK  Name = 
REMARK  6 active torsions:
REMARK  status: ('A' for Active; 'I' for Inactive)
REMARK    1  A    between atoms: C_1  and  O_2
REMARK    2  A    between atoms: O_2  and  C_3
REMARK    3  A    between atoms: C_6  and  C_7
REMARK    4  A    between atoms: C_11  and  C_12
REMARK    5  A    between atoms: C_12  and  S_13
REMARK    6  A    between atoms: S_13  and  C_16
REMARK                            x       y       z     vdW  Elec       q    Type
REMARK                         _______ _______ _______ _____ _____    ______ ____
ROOT
ATOM      1  C   UNL     1       2.623   6.100  20.034  0.00  0.00    +0.000 C 
ATOM      2  C   UNL     1       1.978   4.825  19.464  0.00  0.00    +0.000 C 
ATOM      3  C   UNL     1       1.964   4.733  17.946  0.00  0.00    +0.000 C 
ATOM      4  O   UNL     1       1.070   4.113  17.368  0.00  0.00    +0.000 OA
ATOM      5  C   UNL     1       3.170   5.232  17.193  0.00  0.00    +0.000 C 
ATOM      6  C   UNL     1       3.626   6.536  17.797  0.00  0.00    +0.000 C 
ATOM      7  O   UNL     1       3.766   7.545  17.112  0.00  0.00    +0.000 OA
ATOM      8  C   UNL     1       3.892   6.526  19.283  0.00  0.00    +0.000 C 
ENDROOT
BRANCH   1  12
ATOM      9  C   UNL     1       0.191   9.614  20.727  0.00  0.00    +0.000 A 
ATOM     10  C   UNL     1       0.137   8.523  21.589  0.00  0.00    +0.000 A 
ATOM     11  C   UNL     1       0.893   7.382  21.324  0.00  0.00    +0.000 A 
ATOM     12  C   UNL     1       1.707   7.304  20.180  0.00  0.00    +0.000 A 
ATOM     13  C   UNL     1       1.708   8.382  19.290  0.00  0.00    +0.000 A 
ATOM     14  C   UNL     1       0.954   9.529  19.563  0.00  0.00    +0.000 A 
BRANCH   9  16
ATOM     15  C   UNL     1      -0.801  11.642  20.061  0.00  0.00    +0.000 C 
ATOM     16  O   UNL     1      -0.557  10.698  21.098  0.00  0.00    +0.000 OA
ENDBRANCH   9  16
ENDBRANCH   1  12
BRANCH   5  17
ATOM     17  C   UNL     1       4.249   4.159  17.230  0.00  0.00    +0.000 C 
BRANCH  17  18
ATOM     18  S   UNL     1       5.598   4.517  16.127  0.00  0.00    +0.000 S 
ATOM     19  O   UNL     1       6.287   3.279  15.830  0.00  0.00    +0.000 OA
ATOM     20  O   UNL     1       5.097   5.387  15.080  0.00  0.00    +0.000 OA
BRANCH  18  21
ATOM     21  C   UNL     1       6.665   5.506  17.146  0.00  0.00    +0.000 A 
ATOM     22  C   UNL     1       7.166   4.979  18.338  0.00  0.00    +0.000 A 
ATOM     23  C   UNL     1       7.959   5.781  19.154  0.00  0.00    +0.000 A 
ATOM     24  C   UNL     1       8.256   7.091  18.774  0.00  0.00    +0.000 A 
ATOM     25  C   UNL     1       7.777   7.601  17.564  0.00  0.00    +0.000 A 
ATOM     26  C   UNL     1       6.984   6.806  16.741  0.00  0.00    +0.000 A 
ENDBRANCH  18  21
ENDBRANCH  17  18
ENDBRANCH   5  17
TORSDOF 5
ENDMDL
MODEL 4
REMARK VINA RESULT:      -6.6      3.035      6.292
REMARK  Name = 
REMARK  6 active torsions:
REMARK  status: ('A' for Active; 'I' for Inactive)
REMARK    1  A    between atoms: C_1  and  O_2
REMARK    2  A    between atoms: O_2  and  C_3
REMARK    3  A    between atoms: C_6  and  C_7
REMARK    4  A    between atoms: C_11  and  C_12
REMARK    5  A    between atoms: C_12  and  S_13
REMARK    6  A    between atoms: S_13  and  C_16
REMARK                            x       y       z     vdW  Elec       q    Type
REMARK                         _______ _______ _______ _____ _____    ______ ____
ROOT
ATOM      1  C   UNL     1       2.604   6.086  20.063  0.00  0.00    +0.000 C 
ATOM      2  C   UNL     1       1.956   4.821  19.474  0.00  0.00    +0.000 C 
ATOM      3  C   UNL     1       1.935   4.756  17.955  0.00  0.00    +0.000 C 
ATOM      4  O   UNL     1       1.039   4.145  17.370  0.00  0.00    +0.000 OA
ATOM      5  C   UNL     1       3.136   5.270  17.205  0.00  0.00    +0.000 C 
ATOM      6  C   UNL     1       3.594   6.564  17.829  0.00  0.00    +0.000 C 
ATOM      7  O   UNL     1       3.730   7.584  17.161  0.00  0.00    +0.000 OA
ATOM      8  C   UNL     1       3.868   6.527  19.313  0.00  0.00    +0.000 C 
ENDROOT
BRANCH   1  12
ATOM      9  C   UNL     1       0.172   9.585  20.831  0.00  0.00    +0.000 A 
ATOM     10  C   UNL     1       0.123   8.479  21.674  0.00  0.00    +0.000 A 
ATOM     11  C   UNL     1       0.880   7.344  21.385  0.00  0.00    +0.000 A 
ATOM     12  C   UNL     1       1.687   7.286  20.235  0.00  0.00    +0.000 A 
ATOM     13  C   UNL     1       1.681   8.380  19.364  0.00  0.00    +0.000 A 
ATOM     14  C   UNL     1       0.928   9.521  19.661  0.00  0.00    +0.000 A 
BRANCH   9  16
ATOM     15  C   UNL     1      -0.830  10.736  22.624  0.00  0.00    +0.000 C 
ATOM     16  O   UNL     1      -0.575  10.661  21.225  0.00  0.00    +0.000 OA
ENDBRANCH   9  16
ENDBRANCH   1  12
BRANCH   5  17
ATOM     17  C   UNL     1       4.217   4.198  17.217  0.00  0.00    +0.000 C 
BRANCH  17  18
ATOM     18  S   UNL     1       5.576   4.594  16.140  0.00  0.00    +0.000 S 
ATOM     19  O   UNL     1       6.290   3.372  15.834  0.00  0.00    +0.000 OA
ATOM     20  O   UNL     1       5.078   5.473  15.100  0.00  0.00    +0.000 OA
BRANCH  18  21
ATOM     21  C   UNL     1       6.612   5.583  17.191  0.00  0.00    +0.000 A 
ATOM     22  C   UNL     1       6.952   6.881  16.802  0.00  0.00    +0.000 A 
ATOM     23  C   UNL     1       7.807   7.628  17.608  0.00  0.00    +0.000 A 
ATOM     24  C   UNL     1       8.304   7.087  18.795  0.00  0.00    +0.000 A 
ATOM     25  C   UNL     1       7.933   5.799  19.193  0.00  0.00    +0.000 A 
ATOM     26  C   UNL     1       7.079   5.044  18.394  0.00  0.00    +0.000 A 
ENDBRANCH  18  21
ENDBRANCH  17  18
ENDBRANCH   5  17
TORSDOF 5
ENDMDL
MODEL 5
REMARK VINA RESULT:      -6.6      5.363      7.205
REMARK  Name = 
REMARK  6 active torsions:
REMARK  status: ('A' for Active; 'I' for Inactive)
REMARK    1  A    between atoms: C_1  and  O_2
REMARK    2  A    between atoms: O_2  and  C_3
REMARK    3  A    between atoms: C_6  and  C_7
REMARK    4  A    between atoms: C_11  and  C_12
REMARK    5  A    between atoms: C_12  and  S_13
REMARK    6  A    between atoms: S_13  and  C_16
REMARK                            x       y       z     vdW  Elec       q    Type
REMARK                         _______ _______ _______ _____ _____    ______ ____
ROOT
ATOM      1  C   UNL     1       1.848   6.746  18.850  0.00  0.00    +0.000 C 
ATOM      2  C   UNL     1       1.447   7.019  20.309  0.00  0.00    +0.000 C 
ATOM      3  C   UNL     1       1.528   8.476  20.738  0.00  0.00    +0.000 C 
ATOM      4  O   UNL     1       1.765   8.767  21.912  0.00  0.00    +0.000 OA
ATOM      5  C   UNL     1       1.107   9.532  19.750  0.00  0.00    +0.000 C 
ATOM      6  C   UNL     1       1.660   9.186  18.390  0.00  0.00    +0.000 C 
ATOM      7  O   UNL     1       2.339   9.985  17.752  0.00  0.00    +0.000 OA
ATOM      8  C   UNL     1       1.332   7.808  17.869  0.00  0.00    +0.000 C 
ENDROOT
BRANCH   1  12
ATOM      9  C   UNL     1       5.996   5.768  18.086  0.00  0.00    +0.000 A 
ATOM     10  C   UNL     1       5.359   5.336  19.245  0.00  0.00    +0.000 A 
ATOM     11  C   UNL     1       4.037   5.699  19.495  0.00  0.00    +0.000 A 
ATOM     12  C   UNL     1       3.329   6.518  18.597  0.00  0.00    +0.000 A 
ATOM     13  C   UNL     1       3.999   6.996  17.466  0.00  0.00    +0.000 A 
ATOM     14  C   UNL     1       5.323   6.623  17.213  0.00  0.00    +0.000 A 
BRANCH   9  16
ATOM     15  C   UNL     1       7.503   4.577  16.723  0.00  0.00    +0.000 C 
ATOM     16  O   UNL     1       7.279   5.323  17.915  0.00  0.00    +0.000 OA
ENDBRANCH   9  16
ENDBRANCH   1  12
BRANCH   5  17
ATOM     17  C   UNL     1      -0.411   9.634  19.758  0.00  0.00    +0.000 C 
BRANCH  17  18
ATOM     18  S   UNL     1      -0.981  11.281  19.403  0.00  0.00    +0.000 S 
ATOM     19  O   UNL     1      -1.737  11.760  20.541  0.00  0.00    +0.000 OA
ATOM     20  O   UNL     1       0.132  12.028  18.851  0.00  0.00    +0.000 OA
BRANCH  18  21
ATOM     21  C   UNL     1      -2.121  11.005  18.068  0.00  0.00    +0.000 A 
ATOM     22  C   UNL     1      -1.784  10.116  17.045  0.00  0.00    +0.000 A 
ATOM     23  C   UNL     1      -2.662   9.946  15.977  0.00  0.00    +0.000 A 
ATOM     24  C   UNL     1      -3.867  10.650  15.942  0.00  0.00    +0.000 A 
ATOM     25  C   UNL     1      -4.211  11.513  16.985  0.00  0.00    +0.000 A 
ATOM     26  C   UNL     1      -3.340  11.689  18.057  0.00  0.00    +0.000 A 
ENDBRANCH  18  21
ENDBRANCH  17  18
ENDBRANCH   5  17
TORSDOF 5
ENDMDL
MODEL 6
REMARK VINA RESULT:      -6.5      6.043      8.852
REMARK  Name = 
REMARK  6 active torsions:
REMARK  status: ('A' for Active; 'I' for Inactive)
REMARK    1  A    between atoms: C_1  and  O_2
REMARK    2  A    between atoms: O_2  and  C_3
REMARK    3  A    between atoms: C_6  and  C_7
REMARK    4  A    between atoms: C_11  and  C_12
REMARK    5  A    between atoms: C_12  and  S_13
REMARK    6  A    between atoms: S_13  and  C_16
REMARK                            x       y       z     vdW  Elec       q    Type
REMARK                         _______ _______ _______ _____ _____    ______ ____
ROOT
ATOM      1  C   UNL     1       2.199   7.970  19.923  0.00  0.00    +0.000 C 
ATOM      2  C   UNL     1       1.900   8.925  18.756  0.00  0.00    +0.000 C 
ATOM      3  C   UNL     1       0.473   9.449  18.700  0.00  0.00    +0.000 C 
ATOM      4  O   UNL     1      -0.040   9.744  17.619  0.00  0.00    +0.000 OA
ATOM      5  C   UNL     1      -0.209   9.791  19.999  0.00  0.00    +0.000 C 
ATOM      6  C   UNL     1       0.087   8.716  21.013  0.00  0.00    +0.000 C 
ATOM      7  O   UNL     1      -0.812   8.132  21.609  0.00  0.00    +0.000 OA
ATOM      8  C   UNL     1       1.546   8.402  21.244  0.00  0.00    +0.000 C 
ENDROOT
BRANCH   1  12
ATOM      9  C   UNL     1       1.657   3.747  19.139  0.00  0.00    +0.000 A 
ATOM     10  C   UNL     1       1.911   4.642  18.104  0.00  0.00    +0.000 A 
ATOM     11  C   UNL     1       2.037   6.004  18.371  0.00  0.00    +0.000 A 
ATOM     12  C   UNL     1       1.894   6.502  19.679  0.00  0.00    +0.000 A 
ATOM     13  C   UNL     1       1.580   5.601  20.701  0.00  0.00    +0.000 A 
ATOM     14  C   UNL     1       1.462   4.233  20.432  0.00  0.00    +0.000 A 
BRANCH   9  16
ATOM     15  C   UNL     1       2.654   1.981  17.942  0.00  0.00    +0.000 C 
ATOM     16  O   UNL     1       1.591   2.429  18.778  0.00  0.00    +0.000 OA
ENDBRANCH   9  16
ENDBRANCH   1  12
BRANCH   5  17
ATOM     17  C   UNL     1       0.258  11.168  20.449  0.00  0.00    +0.000 C 
BRANCH  17  18
ATOM     18  S   UNL     1      -0.871  12.457  19.970  0.00  0.00    +0.000 S 
ATOM     19  O   UNL     1      -0.168  13.722  20.016  0.00  0.00    +0.000 OA
ATOM     20  O   UNL     1      -1.575  12.013  18.782  0.00  0.00    +0.000 OA
BRANCH  18  21
ATOM     21  C   UNL     1      -2.050  12.437  21.298  0.00  0.00    +0.000 A 
ATOM     22  C   UNL     1      -3.348  12.902  21.077  0.00  0.00    +0.000 A 
ATOM     23  C   UNL     1      -4.249  12.931  22.138  0.00  0.00    +0.000 A 
ATOM     24  C   UNL     1      -3.857  12.488  23.402  0.00  0.00    +0.000 A 
ATOM     25  C   UNL     1      -2.566  11.994  23.608  0.00  0.00    +0.000 A 
ATOM     26  C   UNL     1      -1.658  11.961  22.553  0.00  0.00    +0.000 A 
ENDBRANCH  18  21
ENDBRANCH  17  18
ENDBRANCH   5  17
TORSDOF 5
ENDMDL
MODEL 7
REMARK VINA RESULT:      -6.5      6.284      9.028
REMARK  Name = 
REMARK  6 active torsions:
REMARK  status: ('A' for Active; 'I' for Inactive)
REMARK    1  A    between atoms: C_1  and  O_2
REMARK    2  A    between atoms: O_2  and  C_3
REMARK    3  A    between atoms: C_6  and  C_7
REMARK    4  A    between atoms: C_11  and  C_12
REMARK    5  A    between atoms: C_12  and  S_13
REMARK    6  A    between atoms: S_13  and  C_16
REMARK                            x       y       z     vdW  Elec       q    Type
REMARK                         _______ _______ _______ _____ _____    ______ ____
ROOT
ATOM      1  C   UNL     1       2.131   8.088  19.917  0.00  0.00    +0.000 C 
ATOM      2  C   UNL     1       1.748   9.043  18.774  0.00  0.00    +0.000 C 
ATOM      3  C   UNL     1       0.299   9.506  18.779  0.00  0.00    +0.000 C 
ATOM      4  O   UNL     1      -0.268   9.791  17.723  0.00  0.00    +0.000 OA
ATOM      5  C   UNL     1      -0.346   9.805  20.107  0.00  0.00    +0.000 C 
ATOM      6  C   UNL     1       0.034   8.732  21.096  0.00  0.00    +0.000 C 
ATOM      7  O   UNL     1      -0.817   8.104  21.718  0.00  0.00    +0.000 OA
ATOM      8  C   UNL     1       1.512   8.477  21.267  0.00  0.00    +0.000 C 
ENDROOT
BRANCH   1  12
ATOM      9  C   UNL     1       1.743   3.850  19.123  0.00  0.00    +0.000 A 
ATOM     10  C   UNL     1       2.004   4.751  18.095  0.00  0.00    +0.000 A 
ATOM     11  C   UNL     1       2.080   6.117  18.363  0.00  0.00    +0.000 A 
ATOM     12  C   UNL     1       1.879   6.611  19.665  0.00  0.00    +0.000 A 
ATOM     13  C   UNL     1       1.559   5.702  20.678  0.00  0.00    +0.000 A 
ATOM     14  C   UNL     1       1.491   4.331  20.408  0.00  0.00    +0.000 A 
BRANCH   9  16
ATOM     15  C   UNL     1       2.647   2.179  17.732  0.00  0.00    +0.000 C 
ATOM     16  O   UNL     1       1.729   2.530  18.762  0.00  0.00    +0.000 OA
ENDBRANCH   9  16
ENDBRANCH   1  12
BRANCH   5  17
ATOM     17  C   UNL     1       0.080  11.195  20.557  0.00  0.00    +0.000 C 
BRANCH  17  18
ATOM     18  S   UNL     1      -1.089  12.449  20.082  0.00  0.00    +0.000 S 
ATOM     19  O   UNL     1      -0.366  13.537  19.458  0.00  0.00    +0.000 OA
ATOM     20  O   UNL     1      -2.204  11.792  19.426  0.00  0.00    +0.000 OA
BRANCH  18  21
ATOM     21  C   UNL     1      -1.688  13.020  21.654  0.00  0.00    +0.000 A 
ATOM     22  C   UNL     1      -0.861  13.798  22.467  0.00  0.00    +0.000 A 
ATOM     23  C   UNL     1      -1.321  14.197  23.719  0.00  0.00    +0.000 A 
ATOM     24  C   UNL     1      -2.598  13.831  24.146  0.00  0.00    +0.000 A 
ATOM     25  C   UNL     1      -3.432  13.079  23.313  0.00  0.00    +0.000 A 
ATOM     26  C   UNL     1      -2.981  12.676  22.059  0.00  0.00    +0.000 A 
ENDBRANCH  18  21
ENDBRANCH  17  18
ENDBRANCH   5  17
TORSDOF 5
ENDMDL
MODEL 8
REMARK VINA RESULT:      -6.4      5.705      9.101
REMARK  Name = 
REMARK  6 active torsions:
REMARK  status: ('A' for Active; 'I' for Inactive)
REMARK    1  A    between atoms: C_1  and  O_2
REMARK    2  A    between atoms: O_2  and  C_3
REMARK    3  A    between atoms: C_6  and  C_7
REMARK    4  A    between atoms: C_11  and  C_12
REMARK    5  A    between atoms: C_12  and  S_13
REMARK    6  A    between atoms: S_13  and  C_16
REMARK                            x       y       z     vdW  Elec       q    Type
REMARK                         _______ _______ _______ _____ _____    ______ ____
ROOT
ATOM      1  C   UNL     1       2.258   7.852  20.049  0.00  0.00    +0.000 C 
ATOM      2  C   UNL     1       2.043   8.897  18.941  0.00  0.00    +0.000 C 
ATOM      3  C   UNL     1       0.644   9.490  18.876  0.00  0.00    +0.000 C 
ATOM      4  O   UNL     1       0.183   9.881  17.802  0.00  0.00    +0.000 OA
ATOM      5  C   UNL     1      -0.067   9.776  20.173  0.00  0.00    +0.000 C 
ATOM      6  C   UNL     1       0.146   8.622  21.120  0.00  0.00    +0.000 C 
ATOM      7  O   UNL     1      -0.800   8.043  21.646  0.00  0.00    +0.000 OA
ATOM      8  C   UNL     1       1.580   8.225  21.374  0.00  0.00    +0.000 C 
ENDROOT
BRANCH   1  12
ATOM      9  C   UNL     1       1.552   3.724  18.950  0.00  0.00    +0.000 A 
ATOM     10  C   UNL     1       1.850   4.682  17.986  0.00  0.00    +0.000 A 
ATOM     11  C   UNL     1       2.030   6.015  18.353  0.00  0.00    +0.000 A 
ATOM     12  C   UNL     1       1.896   6.420  19.694  0.00  0.00    +0.000 A 
ATOM     13  C   UNL     1       1.537   5.459  20.645  0.00  0.00    +0.000 A 
ATOM     14  C   UNL     1       1.366   4.121  20.274  0.00  0.00    +0.000 A 
BRANCH   9  16
ATOM     15  C   UNL     1       2.610   1.910  17.885  0.00  0.00    +0.000 C 
ATOM     16  O   UNL     1       1.436   2.441  18.491  0.00  0.00    +0.000 OA
ENDBRANCH   9  16
ENDBRANCH   1  12
BRANCH   5  17
ATOM     17  C   UNL     1       0.446  11.096  20.732  0.00  0.00    +0.000 C 
BRANCH  17  18
ATOM     18  S   UNL     1      -0.594  12.469  20.289  0.00  0.00    +0.000 S 
ATOM     19  O   UNL     1      -1.561  12.015  19.311  0.00  0.00    +0.000 OA
ATOM     20  O   UNL     1      -0.995  13.136  21.512  0.00  0.00    +0.000 OA
BRANCH  18  21
ATOM     21  C   UNL     1       0.546  13.555  19.467  0.00  0.00    +0.000 A 
ATOM     22  C   UNL     1       1.647  13.020  18.795  0.00  0.00    +0.000 A 
ATOM     23  C   UNL     1       2.563  13.883  18.198  0.00  0.00    +0.000 A 
ATOM     24  C   UNL     1       2.370  15.264  18.264  0.00  0.00    +0.000 A 
ATOM     25  C   UNL     1       1.249  15.790  18.911  0.00  0.00    +0.000 A 
ATOM     26  C   UNL     1       0.328  14.935  19.510  0.00  0.00    +0.000 A 
ENDBRANCH  18  21
ENDBRANCH  17  18
ENDBRANCH   5  17
TORSDOF 5
ENDMDL
MODEL 9
REMARK VINA RESULT:      -6.4      6.387      9.051
REMARK  Name = 
REMARK  6 active torsions:
REMARK  status: ('A' for Active; 'I' for Inactive)
REMARK    1  A    between atoms: C_1  and  O_2
REMARK    2  A    between atoms: O_2  and  C_3
REMARK    3  A    between atoms: C_6  and  C_7
REMARK    4  A    between atoms: C_11  and  C_12
REMARK    5  A    between atoms: C_12  and  S_13
REMARK    6  A    between atoms: S_13  and  C_16
REMARK                            x       y       z     vdW  Elec       q    Type
REMARK                         _______ _______ _______ _____ _____    ______ ____
ROOT
ATOM      1  C   UNL     1       2.026   8.542  19.795  0.00  0.00    +0.000 C 
ATOM      2  C   UNL     1       1.515   9.428  18.647  0.00  0.00    +0.000 C 
ATOM      3  C   UNL     1       0.021   9.712  18.667  0.00  0.00    +0.000 C 
ATOM      4  O   UNL     1      -0.589   9.911  17.615  0.00  0.00    +0.000 OA
ATOM      5  C   UNL     1      -0.640   9.947  20.000  0.00  0.00    +0.000 C 
ATOM      6  C   UNL     1      -0.119   8.941  20.996  0.00  0.00    +0.000 C 
ATOM      7  O   UNL     1      -0.879   8.223  21.638  0.00  0.00    +0.000 OA
ATOM      8  C   UNL     1       1.381   8.871  21.149  0.00  0.00    +0.000 C 
ENDROOT
BRANCH   1  12
ATOM      9  C   UNL     1       2.149   4.276  19.066  0.00  0.00    +0.000 A 
ATOM     10  C   UNL     1       2.318   5.187  18.027  0.00  0.00    +0.000 A 
ATOM     11  C   UNL     1       2.230   6.556  18.274  0.00  0.00    +0.000 A 
ATOM     12  C   UNL     1       1.953   7.042  19.564  0.00  0.00    +0.000 A 
ATOM     13  C   UNL     1       1.726   6.117  20.588  0.00  0.00    +0.000 A 
ATOM     14  C   UNL     1       1.823   4.743  20.339  0.00  0.00    +0.000 A 
BRANCH   9  16
ATOM     15  C   UNL     1       1.090   2.200  18.731  0.00  0.00    +0.000 C 
ATOM     16  O   UNL     1       2.295   2.959  18.727  0.00  0.00    +0.000 OA
ENDBRANCH   9  16
ENDBRANCH   1  12
BRANCH   5  17
ATOM     17  C   UNL     1      -0.381  11.385  20.428  0.00  0.00    +0.000 C 
BRANCH  17  18
ATOM     18  S   UNL     1      -1.700  12.480  19.955  0.00  0.00    +0.000 S 
ATOM     19  O   UNL     1      -1.138  13.789  19.696  0.00  0.00    +0.000 OA
ATOM     20  O   UNL     1      -2.522  11.791  18.980  0.00  0.00    +0.000 OA
BRANCH  18  21
ATOM     21  C   UNL     1      -2.657  12.583  21.448  0.00  0.00    +0.000 A 
ATOM     22  C   UNL     1      -2.122  12.104  22.646  0.00  0.00    +0.000 A 
ATOM     23  C   UNL     1      -2.901  12.141  23.800  0.00  0.00    +0.000 A 
ATOM     24  C   UNL     1      -4.195  12.663  23.755  0.00  0.00    +0.000 A 
ATOM     25  C   UNL     1      -4.711  13.170  22.559  0.00  0.00    +0.000 A 
ATOM     26  C   UNL     1      -3.940  13.137  21.401  0.00  0.00    +0.000 A 
ENDBRANCH  18  21
ENDBRANCH  17  18
ENDBRANCH   5  17
TORSDOF 5
ENDMDL
