MODEL 1
REMARK VINA RESULT:      -8.2      0.000      0.000
REMARK  Name = 
REMARK  3 active torsions:
REMARK  status: ('A' for Active; 'I' for Inactive)
REMARK    1  A    between atoms: C_6  and  C_7
REMARK    2  A    between atoms: N_12  and  C_13
REMARK    3  A    between atoms: C_13  and  C_14
REMARK                            x       y       z     vdW  Elec       q    Type
REMARK                         _______ _______ _______ _____ _____    ______ ____
ROOT
ATOM      1  C   UNL     1       0.880   9.394  20.341  0.00  0.00    +0.000 A 
ATOM      2  C   UNL     1       1.398   8.184  20.815  0.00  0.00    +0.000 A 
ATOM      3  C   UNL     1       2.065   7.408  19.873  0.00  0.00    +0.000 A 
ATOM      4  N   UNL     1       2.674   6.182  19.944  0.00  0.00    +0.000 N 
ATOM      5  C   UNL     1       3.225   5.910  18.722  0.00  0.00    +0.000 A 
ATOM      6  N   UNL     1       3.927   4.777  18.574  0.00  0.00    +0.000 N 
ATOM      7  N   UNL     1       3.002   6.879  17.868  0.00  0.00    +0.000 NA
ATOM      8  C   UNL     1       2.244   7.805  18.554  0.00  0.00    +0.000 A 
ATOM      9  C   UNL     1       1.678   9.012  18.150  0.00  0.00    +0.000 A 
ATOM     10  N   UNL     1       0.998   9.784  19.041  0.00  0.00    +0.000 NA
ATOM     11  H   UNL     1       2.784   5.613  20.765  0.00  0.00    +0.000 HD
ATOM     12  H   UNL     1       3.646   3.908  19.012  0.00  0.00    +0.000 HD
ENDROOT
BRANCH   1  18
ATOM     13 CL   UNL     1      -0.566  14.282  21.433  0.00  0.00    +0.000 Cl
ATOM     14  C   UNL     1      -0.543  12.602  21.804  0.00  0.00    +0.000 A 
ATOM     15  C   UNL     1      -1.210  12.131  22.930  0.00  0.00    +0.000 A 
ATOM     16  C   UNL     1      -1.188  10.770  23.221  0.00  0.00    +0.000 A 
ATOM     17  C   UNL     1      -0.503   9.886  22.380  0.00  0.00    +0.000 A 
ATOM     18  C   UNL     1       0.177  10.340  21.233  0.00  0.00    +0.000 A 
ATOM     19  C   UNL     1       0.143  11.721  20.966  0.00  0.00    +0.000 A 
ENDBRANCH   1  18
BRANCH   6  20
ATOM     20  C   UNL     1       4.936   4.650  17.539  0.00  0.00    +0.000 C 
BRANCH  20  21
ATOM     21  C   UNL     1       6.093   5.566  17.882  0.00  0.00    +0.000 A 
ATOM     22  C   UNL     1       6.394   6.683  17.092  0.00  0.00    +0.000 A 
ATOM     23  C   UNL     1       7.478   7.508  17.411  0.00  0.00    +0.000 A 
ATOM     24  C   UNL     1       8.271   7.224  18.523  0.00  0.00    +0.000 A 
ATOM     25  C   UNL     1       7.973   6.125  19.326  0.00  0.00    +0.000 A 
ATOM     26  C   UNL     1       6.889   5.306  19.011  0.00  0.00    +0.000 A 
ENDBRANCH  20  21
ENDBRANCH   6  20
TORSDOF 3
ENDMDL
MODEL 2
REMARK VINA RESULT:      -8.1      0.342      1.042
REMARK  Name = 
REMARK  3 active torsions:
REMARK  status: ('A' for Active; 'I' for Inactive)
REMARK    1  A    between atoms: C_6  and  C_7
REMARK    2  A    between atoms: N_12  and  C_13
REMARK    3  A    between atoms: C_13  and  C_14
REMARK                            x       y       z     vdW  Elec       q    Type
REMARK                         _______ _______ _______ _____ _____    ______ ____
ROOT
ATOM      1  C   UNL     1       0.811   9.728  20.349  0.00  0.00    +0.000 A 
ATOM      2  C   UNL     1       1.312   8.510  20.820  0.00  0.00    +0.000 A 
ATOM      3  C   UNL     1       1.935   7.711  19.866  0.00  0.00    +0.000 A 
ATOM      4  N   UNL     1       2.516   6.472  19.931  0.00  0.00    +0.000 N 
ATOM      5  C   UNL     1       3.028   6.177  18.697  0.00  0.00    +0.000 A 
ATOM      6  N   UNL     1       3.698   5.026  18.540  0.00  0.00    +0.000 N 
ATOM      7  N   UNL     1       2.806   7.144  17.842  0.00  0.00    +0.000 NA
ATOM      8  C   UNL     1       2.089   8.093  18.541  0.00  0.00    +0.000 A 
ATOM      9  C   UNL     1       1.541   9.311  18.142  0.00  0.00    +0.000 A 
ATOM     10  N   UNL     1       0.904  10.106  19.043  0.00  0.00    +0.000 NA
ATOM     11  H   UNL     1       2.634   5.906  20.754  0.00  0.00    +0.000 HD
ATOM     12  H   UNL     1       3.408   4.168  18.993  0.00  0.00    +0.000 HD
ENDROOT
BRANCH   1  18
ATOM     13 CL   UNL     1      -0.137  14.682  21.670  0.00  0.00    +0.000 Cl
ATOM     14  C   UNL     1      -0.340  12.992  21.925  0.00  0.00    +0.000 A 
ATOM     15  C   UNL     1      -1.144  12.539  22.966  0.00  0.00    +0.000 A 
ATOM     16  C   UNL     1      -1.304  11.170  23.162  0.00  0.00    +0.000 A 
ATOM     17  C   UNL     1      -0.663  10.262  22.313  0.00  0.00    +0.000 A 
ATOM     18  C   UNL     1       0.154  10.697  21.253  0.00  0.00    +0.000 A 
ATOM     19  C   UNL     1       0.303  12.086  21.079  0.00  0.00    +0.000 A 
ENDBRANCH   1  18
BRANCH   6  20
ATOM     20  C   UNL     1       4.676   4.867  17.481  0.00  0.00    +0.000 C 
BRANCH  20  21
ATOM     21  C   UNL     1       5.929   5.628  17.865  0.00  0.00    +0.000 A 
ATOM     22  C   UNL     1       6.708   5.238  18.962  0.00  0.00    +0.000 A 
ATOM     23  C   UNL     1       7.850   5.964  19.316  0.00  0.00    +0.000 A 
ATOM     24  C   UNL     1       8.225   7.086  18.576  0.00  0.00    +0.000 A 
ATOM     25  C   UNL     1       7.467   7.476  17.474  0.00  0.00    +0.000 A 
ATOM     26  C   UNL     1       6.331   6.749  17.118  0.00  0.00    +0.000 A 
ENDBRANCH  20  21
ENDBRANCH   6  20
TORSDOF 3
ENDMDL
MODEL 3
REMARK VINA RESULT:      -8.0      5.771      7.446
REMARK  Name = 
REMARK  3 active torsions:
REMARK  status: ('A' for Active; 'I' for Inactive)
REMARK    1  A    between atoms: C_6  and  C_7
REMARK    2  A    between atoms: N_12  and  C_13
REMARK    3  A    between atoms: C_13  and  C_14
REMARK                            x       y       z     vdW  Elec       q    Type
REMARK                         _______ _______ _______ _____ _____    ______ ____
ROOT
ATOM      1  C   UNL     1       4.656   4.878  18.027  0.00  0.00    +0.000 A 
ATOM      2  C   UNL     1       5.713   5.295  18.844  0.00  0.00    +0.000 A 
ATOM      3  C   UNL     1       6.460   6.363  18.356  0.00  0.00    +0.000 A 
ATOM      4  N   UNL     1       7.558   7.024  18.841  0.00  0.00    +0.000 N 
ATOM      5  C   UNL     1       7.857   8.041  17.977  0.00  0.00    +0.000 A 
ATOM      6  N   UNL     1       8.871   8.864  18.283  0.00  0.00    +0.000 N 
ATOM      7  N   UNL     1       7.027   8.070  16.963  0.00  0.00    +0.000 NA
ATOM      8  C   UNL     1       6.173   7.005  17.160  0.00  0.00    +0.000 A 
ATOM      9  C   UNL     1       5.120   6.516  16.389  0.00  0.00    +0.000 A 
ATOM     10  N   UNL     1       4.383   5.458  16.825  0.00  0.00    +0.000 NA
ATOM     11  H   UNL     1       8.017   6.862  19.721  0.00  0.00    +0.000 HD
ATOM     12  H   UNL     1       9.726   8.530  18.711  0.00  0.00    +0.000 HD
ENDROOT
BRANCH   1  18
ATOM     13 CL   UNL     1       1.831   2.536  21.731  0.00  0.00    +0.000 Cl
ATOM     14  C   UNL     1       2.402   2.633  20.110  0.00  0.00    +0.000 A 
ATOM     15  C   UNL     1       1.991   1.692  19.173  0.00  0.00    +0.000 A 
ATOM     16  C   UNL     1       2.455   1.780  17.863  0.00  0.00    +0.000 A 
ATOM     17  C   UNL     1       3.325   2.813  17.498  0.00  0.00    +0.000 A 
ATOM     18  C   UNL     1       3.752   3.779  18.430  0.00  0.00    +0.000 A 
ATOM     19  C   UNL     1       3.272   3.663  19.747  0.00  0.00    +0.000 A 
ENDBRANCH   1  18
BRANCH   6  20
ATOM     20  C   UNL     1       8.935  10.208  17.740  0.00  0.00    +0.000 C 
BRANCH  20  21
ATOM     21  C   UNL     1       9.959  10.997  18.531  0.00  0.00    +0.000 A 
ATOM     22  C   UNL     1      11.078  11.565  17.909  0.00  0.00    +0.000 A 
ATOM     23  C   UNL     1      12.024  12.274  18.657  0.00  0.00    +0.000 A 
ATOM     24  C   UNL     1      11.860  12.422  20.034  0.00  0.00    +0.000 A 
ATOM     25  C   UNL     1      10.744  11.875  20.664  0.00  0.00    +0.000 A 
ATOM     26  C   UNL     1       9.797  11.173  19.917  0.00  0.00    +0.000 A 
ENDBRANCH  20  21
ENDBRANCH   6  20
TORSDOF 3
ENDMDL
MODEL 4
REMARK VINA RESULT:      -7.9      1.980      3.245
REMARK  Name = 
REMARK  3 active torsions:
REMARK  status: ('A' for Active; 'I' for Inactive)
REMARK    1  A    between atoms: C_6  and  C_7
REMARK    2  A    between atoms: N_12  and  C_13
REMARK    3  A    between atoms: C_13  and  C_14
REMARK                            x       y       z     vdW  Elec       q    Type
REMARK                         _______ _______ _______ _____ _____    ______ ____
ROOT
ATOM      1  C   UNL     1      -0.441  11.084  22.159  0.00  0.00    +0.000 A 
ATOM      2  C   UNL     1      -0.207  11.015  20.781  0.00  0.00    +0.000 A 
ATOM      3  C   UNL     1       0.586   9.952  20.361  0.00  0.00    +0.000 A 
ATOM      4  N   UNL     1       1.046   9.568  19.129  0.00  0.00    +0.000 N 
ATOM      5  C   UNL     1       1.751   8.406  19.281  0.00  0.00    +0.000 A 
ATOM      6  N   UNL     1       2.250   7.811  18.188  0.00  0.00    +0.000 N 
ATOM      7  N   UNL     1       1.781   8.023  20.534  0.00  0.00    +0.000 NA
ATOM      8  C   UNL     1       1.095   8.997  21.230  0.00  0.00    +0.000 A 
ATOM      9  C   UNL     1       0.841   9.148  22.592  0.00  0.00    +0.000 A 
ATOM     10  N   UNL     1       0.088  10.189  23.039  0.00  0.00    +0.000 NA
ATOM     11  H   UNL     1       0.834  10.002  18.247  0.00  0.00    +0.000 HD
ATOM     12  H   UNL     1       2.644   8.340  17.419  0.00  0.00    +0.000 HD
ENDROOT
BRANCH   1  18
ATOM     13 CL   UNL     1      -4.805  12.417  24.679  0.00  0.00    +0.000 Cl
ATOM     14  C   UNL     1      -3.312  12.835  23.933  0.00  0.00    +0.000 A 
ATOM     15  C   UNL     1      -2.896  14.162  23.910  0.00  0.00    +0.000 A 
ATOM     16  C   UNL     1      -1.685  14.490  23.307  0.00  0.00    +0.000 A 
ATOM     17  C   UNL     1      -0.895  13.488  22.735  0.00  0.00    +0.000 A 
ATOM     18  C   UNL     1      -1.294  12.138  22.749  0.00  0.00    +0.000 A 
ATOM     19  C   UNL     1      -2.525  11.834  23.360  0.00  0.00    +0.000 A 
ENDBRANCH   1  18
BRANCH   6  20
ATOM     20  C   UNL     1       2.541   6.390  18.174  0.00  0.00    +0.000 C 
BRANCH  20  21
ATOM     21  C   UNL     1       4.045   6.208  18.166  0.00  0.00    +0.000 A 
ATOM     22  C   UNL     1       4.843   6.794  17.174  0.00  0.00    +0.000 A 
ATOM     23  C   UNL     1       6.228   6.599  17.169  0.00  0.00    +0.000 A 
ATOM     24  C   UNL     1       6.829   5.817  18.156  0.00  0.00    +0.000 A 
ATOM     25  C   UNL     1       6.050   5.241  19.157  0.00  0.00    +0.000 A 
ATOM     26  C   UNL     1       4.669   5.439  19.164  0.00  0.00    +0.000 A 
ENDBRANCH  20  21
ENDBRANCH   6  20
TORSDOF 3
ENDMDL
MODEL 5
REMARK VINA RESULT:      -7.9      1.125      1.502
REMARK  Name = 
REMARK  3 active torsions:
REMARK  status: ('A' for Active; 'I' for Inactive)
REMARK    1  A    between atoms: C_6  and  C_7
REMARK    2  A    between atoms: N_12  and  C_13
REMARK    3  A    between atoms: C_13  and  C_14
REMARK                            x       y       z     vdW  Elec       q    Type
REMARK                         _______ _______ _______ _____ _____    ______ ____
ROOT
ATOM      1  C   UNL     1       0.742  10.273  20.239  0.00  0.00    +0.000 A 
ATOM      2  C   UNL     1       1.231   9.102  20.829  0.00  0.00    +0.000 A 
ATOM      3  C   UNL     1       1.772   8.170  19.950  0.00  0.00    +0.000 A 
ATOM      4  N   UNL     1       2.316   6.926  20.136  0.00  0.00    +0.000 N 
ATOM      5  C   UNL     1       2.745   6.463  18.923  0.00  0.00    +0.000 A 
ATOM      6  N   UNL     1       3.368   5.277  18.873  0.00  0.00    +0.000 N 
ATOM      7  N   UNL     1       2.503   7.327  17.967  0.00  0.00    +0.000 NA
ATOM      8  C   UNL     1       1.859   8.381  18.581  0.00  0.00    +0.000 A 
ATOM      9  C   UNL     1       1.326   9.560  18.064  0.00  0.00    +0.000 A 
ATOM     10  N   UNL     1       0.769  10.484  18.893  0.00  0.00    +0.000 NA
ATOM     11  H   UNL     1       2.466   6.462  21.015  0.00  0.00    +0.000 HD
ATOM     12  H   UNL     1       3.079   4.492  19.445  0.00  0.00    +0.000 HD
ENDROOT
BRANCH   1  18
ATOM     13 CL   UNL     1      -2.873  11.929  23.611  0.00  0.00    +0.000 Cl
ATOM     14  C   UNL     1      -1.485  12.213  22.633  0.00  0.00    +0.000 A 
ATOM     15  C   UNL     1      -0.887  13.469  22.627  0.00  0.00    +0.000 A 
ATOM     16  C   UNL     1       0.237  13.688  21.834  0.00  0.00    +0.000 A 
ATOM     17  C   UNL     1       0.758  12.649  21.057  0.00  0.00    +0.000 A 
ATOM     18  C   UNL     1       0.170  11.370  21.049  0.00  0.00    +0.000 A 
ATOM     19  C   UNL     1      -0.968  11.176  21.855  0.00  0.00    +0.000 A 
ENDBRANCH   1  18
BRANCH   6  20
ATOM     20  C   UNL     1       4.276   4.952  17.790  0.00  0.00    +0.000 C 
BRANCH  20  21
ATOM     21  C   UNL     1       5.603   5.634  18.055  0.00  0.00    +0.000 A 
ATOM     22  C   UNL     1       6.072   6.659  17.223  0.00  0.00    +0.000 A 
ATOM     23  C   UNL     1       7.309   7.265  17.470  0.00  0.00    +0.000 A 
ATOM     24  C   UNL     1       8.088   6.852  18.550  0.00  0.00    +0.000 A 
ATOM     25  C   UNL     1       7.627   5.843  19.394  0.00  0.00    +0.000 A 
ATOM     26  C   UNL     1       6.392   5.243  19.151  0.00  0.00    +0.000 A 
ENDBRANCH  20  21
ENDBRANCH   6  20
TORSDOF 3
ENDMDL
MODEL 6
REMARK VINA RESULT:      -7.8      2.546      3.414
REMARK  Name = 
REMARK  3 active torsions:
REMARK  status: ('A' for Active; 'I' for Inactive)
REMARK    1  A    between atoms: C_6  and  C_7
REMARK    2  A    between atoms: N_12  and  C_13
REMARK    3  A    between atoms: C_13  and  C_14
REMARK                            x       y       z     vdW  Elec       q    Type
REMARK                         _______ _______ _______ _____ _____    ______ ____
ROOT
ATOM      1  C   UNL     1       1.480   8.110  20.248  0.00  0.00    +0.000 A 
ATOM      2  C   UNL     1       2.178   8.410  19.073  0.00  0.00    +0.000 A 
ATOM      3  C   UNL     1       2.914   7.362  18.530  0.00  0.00    +0.000 A 
ATOM      4  N   UNL     1       3.726   7.272  17.430  0.00  0.00    +0.000 N 
ATOM      5  C   UNL     1       4.162   5.979  17.329  0.00  0.00    +0.000 A 
ATOM      6  N   UNL     1       4.932   5.642  16.283  0.00  0.00    +0.000 N 
ATOM      7  N   UNL     1       3.689   5.235  18.299  0.00  0.00    +0.000 NA
ATOM      8  C   UNL     1       2.941   6.089  19.083  0.00  0.00    +0.000 A 
ATOM      9  C   UNL     1       2.241   5.874  20.268  0.00  0.00    +0.000 A 
ATOM     10  N   UNL     1       1.529   6.884  20.839  0.00  0.00    +0.000 NA
ATOM     11  H   UNL     1       3.905   7.994  16.754  0.00  0.00    +0.000 HD
ATOM     12  H   UNL     1       5.643   6.262  15.917  0.00  0.00    +0.000 HD
ENDROOT
BRANCH   1  18
ATOM     13 CL   UNL     1      -1.542  12.347  19.934  0.00  0.00    +0.000 Cl
ATOM     14  C   UNL     1      -0.806  11.088  20.848  0.00  0.00    +0.000 A 
ATOM     15  C   UNL     1      -1.038  11.000  22.217  0.00  0.00    +0.000 A 
ATOM     16  C   UNL     1      -0.441   9.976  22.948  0.00  0.00    +0.000 A 
ATOM     17  C   UNL     1       0.380   9.044  22.305  0.00  0.00    +0.000 A 
ATOM     18  C   UNL     1       0.626   9.113  20.920  0.00  0.00    +0.000 A 
ATOM     19  C   UNL     1       0.015  10.160  20.206  0.00  0.00    +0.000 A 
ENDBRANCH   1  18
BRANCH   6  20
ATOM     20  C   UNL     1       5.009   4.270  15.820  0.00  0.00    +0.000 C 
BRANCH  20  21
ATOM     21  C   UNL     1       5.758   4.248  14.503  0.00  0.00    +0.000 A 
ATOM     22  C   UNL     1       5.291   3.499  13.415  0.00  0.00    +0.000 A 
ATOM     23  C   UNL     1       6.005   3.474  12.212  0.00  0.00    +0.000 A 
ATOM     24  C   UNL     1       7.191   4.197  12.086  0.00  0.00    +0.000 A 
ATOM     25  C   UNL     1       7.658   4.958  13.155  0.00  0.00    +0.000 A 
ATOM     26  C   UNL     1       6.944   4.988  14.353  0.00  0.00    +0.000 A 
ENDBRANCH  20  21
ENDBRANCH   6  20
TORSDOF 3
ENDMDL
MODEL 7
REMARK VINA RESULT:      -7.8      3.709      9.201
REMARK  Name = 
REMARK  3 active torsions:
REMARK  status: ('A' for Active; 'I' for Inactive)
REMARK    1  A    between atoms: C_6  and  C_7
REMARK    2  A    between atoms: N_12  and  C_13
REMARK    3  A    between atoms: C_13  and  C_14
REMARK                            x       y       z     vdW  Elec       q    Type
REMARK                         _______ _______ _______ _____ _____    ______ ____
ROOT
ATOM      1  C   UNL     1       3.865   6.763  18.058  0.00  0.00    +0.000 A 
ATOM      2  C   UNL     1       3.444   7.905  17.368  0.00  0.00    +0.000 A 
ATOM      3  C   UNL     1       2.402   8.611  17.960  0.00  0.00    +0.000 A 
ATOM      4  N   UNL     1       1.716   9.737  17.589  0.00  0.00    +0.000 N 
ATOM      5  C   UNL     1       0.814  10.031  18.575  0.00  0.00    +0.000 A 
ATOM      6  N   UNL     1       0.065  11.136  18.449  0.00  0.00    +0.000 N 
ATOM      7  N   UNL     1       0.871   9.160  19.552  0.00  0.00    +0.000 NA
ATOM      8  C   UNL     1       1.827   8.242  19.169  0.00  0.00    +0.000 A 
ATOM      9  C   UNL     1       2.283   7.077  19.783  0.00  0.00    +0.000 A 
ATOM     10  N   UNL     1       3.285   6.350  19.219  0.00  0.00    +0.000 NA
ATOM     11  H   UNL     1       1.895  10.311  16.782  0.00  0.00    +0.000 HD
ATOM     12  H   UNL     1      -0.310  11.434  17.557  0.00  0.00    +0.000 HD
ENDROOT
BRANCH   1  18
ATOM     13 CL   UNL     1       6.051   4.019  14.201  0.00  0.00    +0.000 Cl
ATOM     14  C   UNL     1       6.073   4.637  15.807  0.00  0.00    +0.000 A 
ATOM     15  C   UNL     1       7.159   4.375  16.636  0.00  0.00    +0.000 A 
ATOM     16  C   UNL     1       7.169   4.882  17.933  0.00  0.00    +0.000 A 
ATOM     17  C   UNL     1       6.095   5.652  18.391  0.00  0.00    +0.000 A 
ATOM     18  C   UNL     1       4.986   5.931  17.569  0.00  0.00    +0.000 A 
ATOM     19  C   UNL     1       4.999   5.402  16.265  0.00  0.00    +0.000 A 
ENDBRANCH   1  18
BRANCH   6  20
ATOM     20  C   UNL     1      -0.510  11.788  19.611  0.00  0.00    +0.000 C 
BRANCH  20  21
ATOM     21  C   UNL     1      -2.003  11.926  19.394  0.00  0.00    +0.000 A 
ATOM     22  C   UNL     1      -2.812  12.596  20.322  0.00  0.00    +0.000 A 
ATOM     23  C   UNL     1      -4.192  12.698  20.117  0.00  0.00    +0.000 A 
ATOM     24  C   UNL     1      -4.776  12.132  18.984  0.00  0.00    +0.000 A 
ATOM     25  C   UNL     1      -3.981  11.476  18.046  0.00  0.00    +0.000 A 
ATOM     26  C   UNL     1      -2.604  11.379  18.247  0.00  0.00    +0.000 A 
ENDBRANCH  20  21
ENDBRANCH   6  20
TORSDOF 3
ENDMDL
MODEL 8
REMARK VINA RESULT:      -7.8      3.417      9.031
REMARK  Name = 
REMARK  3 active torsions:
REMARK  status: ('A' for Active; 'I' for Inactive)
REMARK    1  A    between atoms: C_6  and  C_7
REMARK    2  A    between atoms: N_12  and  C_13
REMARK    3  A    between atoms: C_13  and  C_14
REMARK                            x       y       z     vdW  Elec       q    Type
REMARK                         _______ _______ _______ _____ _____    ______ ____
ROOT
ATOM      1  C   UNL     1       2.443   7.241  18.551  0.00  0.00    +0.000 A 
ATOM      2  C   UNL     1       2.051   8.381  17.841  0.00  0.00    +0.000 A 
ATOM      3  C   UNL     1       1.401   9.358  18.588  0.00  0.00    +0.000 A 
ATOM      4  N   UNL     1       0.861  10.573  18.257  0.00  0.00    +0.000 N 
ATOM      5  C   UNL     1       0.387  11.154  19.401  0.00  0.00    +0.000 A 
ATOM      6  N   UNL     1      -0.140  12.385  19.324  0.00  0.00    +0.000 N 
ATOM      7  N   UNL     1       0.581  10.386  20.445  0.00  0.00    +0.000 NA
ATOM      8  C   UNL     1       1.175   9.243  19.953  0.00  0.00    +0.000 A 
ATOM      9  C   UNL     1       1.571   8.066  20.586  0.00  0.00    +0.000 A 
ATOM     10  N   UNL     1       2.189   7.080  19.880  0.00  0.00    +0.000 NA
ATOM     11  H   UNL     1       0.883  11.014  17.353  0.00  0.00    +0.000 HD
ATOM     12  H   UNL     1      -0.712  12.678  18.541  0.00  0.00    +0.000 HD
ENDROOT
BRANCH   1  18
ATOM     13 CL   UNL     1       2.853   2.149  17.510  0.00  0.00    +0.000 Cl
ATOM     14  C   UNL     1       3.426   3.765  17.364  0.00  0.00    +0.000 A 
ATOM     15  C   UNL     1       4.563   4.032  16.609  0.00  0.00    +0.000 A 
ATOM     16  C   UNL     1       5.018   5.343  16.494  0.00  0.00    +0.000 A 
ATOM     17  C   UNL     1       4.329   6.380  17.131  0.00  0.00    +0.000 A 
ATOM     18  C   UNL     1       3.174   6.134  17.899  0.00  0.00    +0.000 A 
ATOM     19  C   UNL     1       2.739   4.800  18.003  0.00  0.00    +0.000 A 
ENDBRANCH   1  18
BRANCH   6  20
ATOM     20  C   UNL     1      -0.187  13.254  20.484  0.00  0.00    +0.000 C 
BRANCH  20  21
ATOM     21  C   UNL     1      -1.498  13.020  21.207  0.00  0.00    +0.000 A 
ATOM     22  C   UNL     1      -2.727  13.226  20.567  0.00  0.00    +0.000 A 
ATOM     23  C   UNL     1      -3.929  13.024  21.255  0.00  0.00    +0.000 A 
ATOM     24  C   UNL     1      -3.912  12.616  22.588  0.00  0.00    +0.000 A 
ATOM     25  C   UNL     1      -2.697  12.393  23.232  0.00  0.00    +0.000 A 
ATOM     26  C   UNL     1      -1.499  12.589  22.545  0.00  0.00    +0.000 A 
ENDBRANCH  20  21
ENDBRANCH   6  20
TORSDOF 3
ENDMDL
MODEL 9
REMARK VINA RESULT:      -7.8      5.305      7.453
REMARK  Name = 
REMARK  3 active torsions:
REMARK  status: ('A' for Active; 'I' for Inactive)
REMARK    1  A    between atoms: C_6  and  C_7
REMARK    2  A    between atoms: N_12  and  C_13
REMARK    3  A    between atoms: C_13  and  C_14
REMARK                            x       y       z     vdW  Elec       q    Type
REMARK                         _______ _______ _______ _____ _____    ______ ____
ROOT
ATOM      1  C   UNL     1       7.882   8.219  18.223  0.00  0.00    +0.000 A 
ATOM      2  C   UNL     1       6.762   7.906  17.445  0.00  0.00    +0.000 A 
ATOM      3  C   UNL     1       6.347   6.580  17.500  0.00  0.00    +0.000 A 
ATOM      4  N   UNL     1       5.332   5.899  16.879  0.00  0.00    +0.000 N 
ATOM      5  C   UNL     1       5.341   4.611  17.339  0.00  0.00    +0.000 A 
ATOM      6  N   UNL     1       4.391   3.769  16.906  0.00  0.00    +0.000 N 
ATOM      7  N   UNL     1       6.303   4.418  18.208  0.00  0.00    +0.000 NA
ATOM      8  C   UNL     1       6.967   5.624  18.292  0.00  0.00    +0.000 A 
ATOM      9  C   UNL     1       8.093   6.005  19.019  0.00  0.00    +0.000 A 
ATOM     10  N   UNL     1       8.541   7.289  18.970  0.00  0.00    +0.000 NA
ATOM     11  H   UNL     1       4.638   6.286  16.264  0.00  0.00    +0.000 HD
ATOM     12  H   UNL     1       4.058   3.779  15.949  0.00  0.00    +0.000 HD
ENDROOT
BRANCH   1  18
ATOM     13 CL   UNL     1      11.195  11.627  20.365  0.00  0.00    +0.000 Cl
ATOM     14  C   UNL     1       9.948  11.244  19.243  0.00  0.00    +0.000 A 
ATOM     15  C   UNL     1       9.463  12.224  18.384  0.00  0.00    +0.000 A 
ATOM     16  C   UNL     1       8.456  11.904  17.478  0.00  0.00    +0.000 A 
ATOM     17  C   UNL     1       7.942  10.604  17.434  0.00  0.00    +0.000 A 
ATOM     18  C   UNL     1       8.419   9.595  18.292  0.00  0.00    +0.000 A 
ATOM     19  C   UNL     1       9.433   9.946  19.202  0.00  0.00    +0.000 A 
ENDBRANCH   1  18
BRANCH   6  20
ATOM     20  C   UNL     1       4.012   2.604  17.682  0.00  0.00    +0.000 C 
BRANCH  20  21
ATOM     21  C   UNL     1       3.084   3.048  18.794  0.00  0.00    +0.000 A 
ATOM     22  C   UNL     1       1.951   3.828  18.528  0.00  0.00    +0.000 A 
ATOM     23  C   UNL     1       1.116   4.247  19.568  0.00  0.00    +0.000 A 
ATOM     24  C   UNL     1       1.405   3.890  20.886  0.00  0.00    +0.000 A 
ATOM     25  C   UNL     1       2.520   3.102  21.163  0.00  0.00    +0.000 A 
ATOM     26  C   UNL     1       3.350   2.680  20.125  0.00  0.00    +0.000 A 
ENDBRANCH  20  21
ENDBRANCH   6  20
TORSDOF 3
ENDMDL
