MODEL 1
REMARK VINA RESULT:      -8.4      0.000      0.000
REMARK  Name = 
REMARK  4 active torsions:
REMARK  status: ('A' for Active; 'I' for Inactive)
REMARK    1  A    between atoms: C_2  and  C_3
REMARK    2  A    between atoms: C_3  and  N_4
REMARK    3  A    between atoms: C_19  and  C_21
REMARK    4  A    between atoms: C_21  and  N_22
REMARK                            x       y       z     vdW  Elec       q    Type
REMARK                         _______ _______ _______ _____ _____    ______ ____
ROOT
ATOM      1  O   UNL     1      -4.133  15.041  20.875  0.00  0.00    +0.000 OA
ATOM      2  C   UNL     1      -3.373  14.086  21.037  0.00  0.00    +0.000 C 
ATOM      3  N   UNL     1      -2.188  14.103  20.350  0.00  0.00    +0.000 N 
ATOM      4  C   UNL     1      -1.277  13.085  20.280  0.00  0.00    +0.000 A 
ATOM      5  N   UNL     1      -1.168  11.975  20.971  0.00  0.00    +0.000 NA
ATOM      6  C   UNL     1      -0.225  11.135  20.368  0.00  0.00    +0.000 A 
ATOM      7  C   UNL     1       0.153   9.819  20.743  0.00  0.00    +0.000 A 
ATOM      8  C   UNL     1       1.024   9.050  19.923  0.00  0.00    +0.000 A 
ATOM      9  N   UNL     1       1.485   7.731  20.114  0.00  0.00    +0.000 NA
ATOM     10  C   UNL     1       2.206   7.356  19.073  0.00  0.00    +0.000 A 
ATOM     11  N   UNL     1       2.850   6.189  18.756  0.00  0.00    +0.000 N 
ATOM     12  C   UNL     1       3.158   5.199  19.648  0.00  0.00    +0.000 C 
ATOM     13  O   UNL     1       2.867   5.204  20.845  0.00  0.00    +0.000 OA
ATOM     14  S   UNL     1       2.405   8.508  17.841  0.00  0.00    +0.000 S 
ATOM     15  C   UNL     1       1.493   9.637  18.748  0.00  0.00    +0.000 A 
ATOM     16  C   UNL     1       1.198  10.950  18.415  0.00  0.00    +0.000 A 
ATOM     17  C   UNL     1       0.352  11.687  19.224  0.00  0.00    +0.000 A 
ATOM     18  S   UNL     1      -0.167  13.308  19.015  0.00  0.00    +0.000 S 
ATOM     19  H   UNL     1      -2.070  14.880  19.716  0.00  0.00    +0.000 HD
ATOM     20  H   UNL     1       3.250   6.115  17.831  0.00  0.00    +0.000 HD
ENDROOT
BRANCH   2  21
ATOM     21  C   UNL     1      -3.673  12.871  21.916  0.00  0.00    +0.000 C 
BRANCH  21  22
ATOM     22  N   UNL     1      -5.059  12.382  21.910  0.00  0.00    +0.000 NA
ATOM     23  C   UNL     1      -5.935  13.091  22.841  0.00  0.00    +0.000 C 
ATOM     24  C   UNL     1      -7.238  12.311  23.004  0.00  0.00    +0.000 C 
ATOM     25  C   UNL     1      -7.917  12.088  21.655  0.00  0.00    +0.000 C 
ATOM     26  C   UNL     1      -6.945  11.458  20.660  0.00  0.00    +0.000 C 
ATOM     27  C   UNL     1      -5.640  12.253  20.574  0.00  0.00    +0.000 C 
ENDBRANCH  21  22
ENDBRANCH   2  21
BRANCH  12  28
ATOM     28  C   UNL     1       3.879   3.978  19.040  0.00  0.00    +0.000 C 
BRANCH  28  29
ATOM     29  N   UNL     1       5.308   4.165  18.612  0.00  0.00    +0.000 NA
ATOM     30  C   UNL     1       5.427   4.434  17.163  0.00  0.00    +0.000 C 
ATOM     31  C   UNL     1       6.882   4.723  16.759  0.00  0.00    +0.000 C 
ATOM     32  C   UNL     1       7.453   5.914  17.518  0.00  0.00    +0.000 C 
ATOM     33  C   UNL     1       7.272   5.709  19.013  0.00  0.00    +0.000 C 
ATOM     34  C   UNL     1       5.821   5.355  19.353  0.00  0.00    +0.000 C 
ENDBRANCH  28  29
ENDBRANCH  12  28
TORSDOF 4
ENDMDL
MODEL 2
REMARK VINA RESULT:      -8.1      2.500     10.950
REMARK  Name = 
REMARK  4 active torsions:
REMARK  status: ('A' for Active; 'I' for Inactive)
REMARK    1  A    between atoms: C_2  and  C_3
REMARK    2  A    between atoms: C_3  and  N_4
REMARK    3  A    between atoms: C_19  and  C_21
REMARK    4  A    between atoms: C_21  and  N_22
REMARK                            x       y       z     vdW  Elec       q    Type
REMARK                         _______ _______ _______ _____ _____    ______ ____
ROOT
ATOM      1  O   UNL     1       5.009   5.747  17.798  0.00  0.00    +0.000 OA
ATOM      2  C   UNL     1       4.043   6.219  18.397  0.00  0.00    +0.000 C 
ATOM      3  N   UNL     1       3.416   7.296  17.829  0.00  0.00    +0.000 N 
ATOM      4  C   UNL     1       2.424   8.048  18.394  0.00  0.00    +0.000 A 
ATOM      5  N   UNL     1       1.687   7.844  19.461  0.00  0.00    +0.000 NA
ATOM      6  C   UNL     1       0.983   9.011  19.778  0.00  0.00    +0.000 A 
ATOM      7  C   UNL     1       0.127   9.252  20.885  0.00  0.00    +0.000 A 
ATOM      8  C   UNL     1      -0.390  10.553  21.135  0.00  0.00    +0.000 A 
ATOM      9  N   UNL     1      -1.224  10.987  22.186  0.00  0.00    +0.000 NA
ATOM     10  C   UNL     1      -1.400  12.293  22.105  0.00  0.00    +0.000 A 
ATOM     11  N   UNL     1      -2.090  13.192  22.876  0.00  0.00    +0.000 N 
ATOM     12  C   UNL     1      -3.058  12.861  23.783  0.00  0.00    +0.000 C 
ATOM     13  O   UNL     1      -3.415  11.715  24.057  0.00  0.00    +0.000 OA
ATOM     14  S   UNL     1      -0.634  13.077  20.806  0.00  0.00    +0.000 S 
ATOM     15  C   UNL     1      -0.030  11.573  20.255  0.00  0.00    +0.000 A 
ATOM     16  C   UNL     1       0.737  11.332  19.126  0.00  0.00    +0.000 A 
ATOM     17  C   UNL     1       1.230  10.060  18.893  0.00  0.00    +0.000 A 
ATOM     18  S   UNL     1       2.203   9.525  17.587  0.00  0.00    +0.000 S 
ATOM     19  H   UNL     1       3.847   7.648  16.986  0.00  0.00    +0.000 HD
ATOM     20  H   UNL     1      -1.977  14.173  22.660  0.00  0.00    +0.000 HD
ENDROOT
BRANCH   2  21
ATOM     21  C   UNL     1       3.519   5.715  19.742  0.00  0.00    +0.000 C 
BRANCH  21  22
ATOM     22  N   UNL     1       2.708   4.488  19.714  0.00  0.00    +0.000 NA
ATOM     23  C   UNL     1       1.727   4.410  20.794  0.00  0.00    +0.000 C 
ATOM     24  C   UNL     1       1.178   2.986  20.876  0.00  0.00    +0.000 C 
ATOM     25  C   UNL     1       0.579   2.551  19.542  0.00  0.00    +0.000 C 
ATOM     26  C   UNL     1       1.582   2.757  18.408  0.00  0.00    +0.000 C 
ATOM     27  C   UNL     1       2.134   4.184  18.403  0.00  0.00    +0.000 C 
ENDBRANCH  21  22
ENDBRANCH   2  21
BRANCH  12  28
ATOM     28  C   UNL     1      -3.680  14.058  24.533  0.00  0.00    +0.000 C 
BRANCH  28  29
ATOM     29  N   UNL     1      -4.267  15.163  23.701  0.00  0.00    +0.000 NA
ATOM     30  C   UNL     1      -5.525  14.758  23.039  0.00  0.00    +0.000 C 
ATOM     31  C   UNL     1      -6.165  15.928  22.275  0.00  0.00    +0.000 C 
ATOM     32  C   UNL     1      -6.464  17.107  23.192  0.00  0.00    +0.000 C 
ATOM     33  C   UNL     1      -5.207  17.498  23.954  0.00  0.00    +0.000 C 
ATOM     34  C   UNL     1      -4.572  16.285  24.638  0.00  0.00    +0.000 C 
ENDBRANCH  28  29
ENDBRANCH  12  28
TORSDOF 4
ENDMDL
MODEL 3
REMARK VINA RESULT:      -8.0      2.943     10.697
REMARK  Name = 
REMARK  4 active torsions:
REMARK  status: ('A' for Active; 'I' for Inactive)
REMARK    1  A    between atoms: C_2  and  C_3
REMARK    2  A    between atoms: C_3  and  N_4
REMARK    3  A    between atoms: C_19  and  C_21
REMARK    4  A    between atoms: C_21  and  N_22
REMARK                            x       y       z     vdW  Elec       q    Type
REMARK                         _______ _______ _______ _____ _____    ______ ____
ROOT
ATOM      1  O   UNL     1       5.107   5.636  17.701  0.00  0.00    +0.000 OA
ATOM      2  C   UNL     1       4.148   6.126  18.298  0.00  0.00    +0.000 C 
ATOM      3  N   UNL     1       3.534   7.205  17.721  0.00  0.00    +0.000 N 
ATOM      4  C   UNL     1       2.553   7.975  18.282  0.00  0.00    +0.000 A 
ATOM      5  N   UNL     1       1.815   7.789  19.351  0.00  0.00    +0.000 NA
ATOM      6  C   UNL     1       1.126   8.968  19.660  0.00  0.00    +0.000 A 
ATOM      7  C   UNL     1       0.275   9.230  20.766  0.00  0.00    +0.000 A 
ATOM      8  C   UNL     1      -0.225  10.539  21.006  0.00  0.00    +0.000 A 
ATOM      9  N   UNL     1      -1.051  10.993  22.054  0.00  0.00    +0.000 NA
ATOM     10  C   UNL     1      -1.211  12.300  21.962  0.00  0.00    +0.000 A 
ATOM     11  N   UNL     1      -1.888  13.214  22.727  0.00  0.00    +0.000 N 
ATOM     12  C   UNL     1      -2.858  12.903  23.639  0.00  0.00    +0.000 C 
ATOM     13  O   UNL     1      -3.229  11.764  23.923  0.00  0.00    +0.000 OA
ATOM     14  S   UNL     1      -0.438  13.063  20.656  0.00  0.00    +0.000 S 
ATOM     15  C   UNL     1       0.147  11.547  20.117  0.00  0.00    +0.000 A 
ATOM     16  C   UNL     1       0.908  11.286  18.988  0.00  0.00    +0.000 A 
ATOM     17  C   UNL     1       1.385  10.006  18.765  0.00  0.00    +0.000 A 
ATOM     18  S   UNL     1       2.349   9.448  17.462  0.00  0.00    +0.000 S 
ATOM     19  H   UNL     1       3.968   7.545  16.875  0.00  0.00    +0.000 HD
ATOM     20  H   UNL     1      -1.764  14.191  22.503  0.00  0.00    +0.000 HD
ENDROOT
BRANCH   2  21
ATOM     21  C   UNL     1       3.621   5.640  19.648  0.00  0.00    +0.000 C 
BRANCH  21  22
ATOM     22  N   UNL     1       2.764   4.444  19.627  0.00  0.00    +0.000 NA
ATOM     23  C   UNL     1       1.658   4.499  20.581  0.00  0.00    +0.000 C 
ATOM     24  C   UNL     1       1.039   3.109  20.719  0.00  0.00    +0.000 C 
ATOM     25  C   UNL     1       0.586   2.573  19.364  0.00  0.00    +0.000 C 
ATOM     26  C   UNL     1       1.726   2.639  18.350  0.00  0.00    +0.000 C 
ATOM     27  C   UNL     1       2.338   4.040  18.288  0.00  0.00    +0.000 C 
ENDBRANCH  21  22
ENDBRANCH   2  21
BRANCH  12  28
ATOM     28  C   UNL     1      -3.465  14.114  24.379  0.00  0.00    +0.000 C 
BRANCH  28  29
ATOM     29  N   UNL     1      -2.618  15.351  24.487  0.00  0.00    +0.000 NA
ATOM     30  C   UNL     1      -3.404  16.587  24.283  0.00  0.00    +0.000 C 
ATOM     31  C   UNL     1      -2.546  17.844  24.497  0.00  0.00    +0.000 C 
ATOM     32  C   UNL     1      -1.940  17.885  25.894  0.00  0.00    +0.000 C 
ATOM     33  C   UNL     1      -1.192  16.591  26.169  0.00  0.00    +0.000 C 
ATOM     34  C   UNL     1      -2.068  15.370  25.875  0.00  0.00    +0.000 C 
ENDBRANCH  28  29
ENDBRANCH  12  28
TORSDOF 4
ENDMDL
MODEL 4
REMARK VINA RESULT:      -8.0      3.835     11.225
REMARK  Name = 
REMARK  4 active torsions:
REMARK  status: ('A' for Active; 'I' for Inactive)
REMARK    1  A    between atoms: C_2  and  C_3
REMARK    2  A    between atoms: C_3  and  N_4
REMARK    3  A    between atoms: C_19  and  C_21
REMARK    4  A    between atoms: C_21  and  N_22
REMARK                            x       y       z     vdW  Elec       q    Type
REMARK                         _______ _______ _______ _____ _____    ______ ____
ROOT
ATOM      1  O   UNL     1       3.446   1.634  17.941  0.00  0.00    +0.000 OA
ATOM      2  C   UNL     1       3.399   2.864  17.954  0.00  0.00    +0.000 C 
ATOM      3  N   UNL     1       3.125   3.468  19.153  0.00  0.00    +0.000 N 
ATOM      4  C   UNL     1       2.891   4.801  19.353  0.00  0.00    +0.000 A 
ATOM      5  N   UNL     1       3.067   5.836  18.567  0.00  0.00    +0.000 NA
ATOM      6  C   UNL     1       2.450   6.962  19.124  0.00  0.00    +0.000 A 
ATOM      7  C   UNL     1       2.337   8.268  18.579  0.00  0.00    +0.000 A 
ATOM      8  C   UNL     1       1.541   9.258  19.219  0.00  0.00    +0.000 A 
ATOM      9  N   UNL     1       1.290  10.586  18.819  0.00  0.00    +0.000 NA
ATOM     10  C   UNL     1       0.422  11.143  19.643  0.00  0.00    +0.000 A 
ATOM     11  N   UNL     1      -0.161  12.383  19.687  0.00  0.00    +0.000 N 
ATOM     12  C   UNL     1       0.293  13.483  19.014  0.00  0.00    +0.000 C 
ATOM     13  O   UNL     1       1.260  13.503  18.252  0.00  0.00    +0.000 OA
ATOM     14  S   UNL     1      -0.125  10.175  20.927  0.00  0.00    +0.000 S 
ATOM     15  C   UNL     1       0.884   8.899  20.395  0.00  0.00    +0.000 A 
ATOM     16  C   UNL     1       1.054   7.654  20.980  0.00  0.00    +0.000 A 
ATOM     17  C   UNL     1       1.835   6.702  20.349  0.00  0.00    +0.000 A 
ATOM     18  S   UNL     1       2.178   5.103  20.864  0.00  0.00    +0.000 S 
ATOM     19  H   UNL     1       2.924   2.838  19.916  0.00  0.00    +0.000 HD
ATOM     20  H   UNL     1      -0.889  12.531  20.371  0.00  0.00    +0.000 HD
ENDROOT
BRANCH   2  21
ATOM     21  C   UNL     1       3.587   3.758  16.728  0.00  0.00    +0.000 C 
BRANCH  21  22
ATOM     22  N   UNL     1       4.964   3.922  16.239  0.00  0.00    +0.000 NA
ATOM     23  C   UNL     1       5.043   4.415  14.866  0.00  0.00    +0.000 C 
ATOM     24  C   UNL     1       6.468   4.238  14.346  0.00  0.00    +0.000 C 
ATOM     25  C   UNL     1       7.474   4.941  15.253  0.00  0.00    +0.000 C 
ATOM     26  C   UNL     1       7.292   4.501  16.703  0.00  0.00    +0.000 C 
ATOM     27  C   UNL     1       5.837   4.655  17.155  0.00  0.00    +0.000 C 
ENDBRANCH  21  22
ENDBRANCH   2  21
BRANCH  12  28
ATOM     28  C   UNL     1      -0.545  14.763  19.222  0.00  0.00    +0.000 C 
BRANCH  28  29
ATOM     29  N   UNL     1       0.123  15.919  19.912  0.00  0.00    +0.000 NA
ATOM     30  C   UNL     1       1.104  15.475  20.926  0.00  0.00    +0.000 C 
ATOM     31  C   UNL     1       1.851  16.665  21.549  0.00  0.00    +0.000 C 
ATOM     32  C   UNL     1       2.585  17.486  20.498  0.00  0.00    +0.000 C 
ATOM     33  C   UNL     1       1.621  17.890  19.394  0.00  0.00    +0.000 C 
ATOM     34  C   UNL     1       0.854  16.680  18.856  0.00  0.00    +0.000 C 
ENDBRANCH  28  29
ENDBRANCH  12  28
TORSDOF 4
ENDMDL
MODEL 5
REMARK VINA RESULT:      -7.9      3.639     11.437
REMARK  Name = 
REMARK  4 active torsions:
REMARK  status: ('A' for Active; 'I' for Inactive)
REMARK    1  A    between atoms: C_2  and  C_3
REMARK    2  A    between atoms: C_3  and  N_4
REMARK    3  A    between atoms: C_19  and  C_21
REMARK    4  A    between atoms: C_21  and  N_22
REMARK                            x       y       z     vdW  Elec       q    Type
REMARK                         _______ _______ _______ _____ _____    ______ ____
ROOT
ATOM      1  O   UNL     1       3.488   1.553  18.183  0.00  0.00    +0.000 OA
ATOM      2  C   UNL     1       3.437   2.783  18.164  0.00  0.00    +0.000 C 
ATOM      3  N   UNL     1       3.146   3.418  19.342  0.00  0.00    +0.000 N 
ATOM      4  C   UNL     1       2.905   4.754  19.505  0.00  0.00    +0.000 A 
ATOM      5  N   UNL     1       3.088   5.769  18.693  0.00  0.00    +0.000 NA
ATOM      6  C   UNL     1       2.461   6.907  19.213  0.00  0.00    +0.000 A 
ATOM      7  C   UNL     1       2.351   8.198  18.633  0.00  0.00    +0.000 A 
ATOM      8  C   UNL     1       1.544   9.201  19.236  0.00  0.00    +0.000 A 
ATOM      9  N   UNL     1       1.294  10.518  18.798  0.00  0.00    +0.000 NA
ATOM     10  C   UNL     1       0.415  11.094  19.596  0.00  0.00    +0.000 A 
ATOM     11  N   UNL     1      -0.172  12.333  19.600  0.00  0.00    +0.000 N 
ATOM     12  C   UNL     1       0.287  13.416  18.904  0.00  0.00    +0.000 C 
ATOM     13  O   UNL     1       1.263  13.419  18.154  0.00  0.00    +0.000 OA
ATOM     14  S   UNL     1      -0.147  10.158  20.898  0.00  0.00    +0.000 S 
ATOM     15  C   UNL     1       0.873   8.872  20.413  0.00  0.00    +0.000 A 
ATOM     16  C   UNL     1       1.039   7.643  21.033  0.00  0.00    +0.000 A 
ATOM     17  C   UNL     1       1.831   6.677  20.437  0.00  0.00    +0.000 A 
ATOM     18  S   UNL     1       2.172   5.094  20.998  0.00  0.00    +0.000 S 
ATOM     19  H   UNL     1       2.936   2.807  20.119  0.00  0.00    +0.000 HD
ATOM     20  H   UNL     1      -0.910  12.496  20.271  0.00  0.00    +0.000 HD
ENDROOT
BRANCH   2  21
ATOM     21  C   UNL     1       3.637   3.645  16.917  0.00  0.00    +0.000 C 
BRANCH  21  22
ATOM     22  N   UNL     1       5.026   3.851  16.478  0.00  0.00    +0.000 NA
ATOM     23  C   UNL     1       5.137   4.400  15.128  0.00  0.00    +0.000 C 
ATOM     24  C   UNL     1       6.580   4.268  14.645  0.00  0.00    +0.000 C 
ATOM     25  C   UNL     1       7.546   4.951  15.610  0.00  0.00    +0.000 C 
ATOM     26  C   UNL     1       7.328   4.450  17.036  0.00  0.00    +0.000 C 
ATOM     27  C   UNL     1       5.858   4.562  17.448  0.00  0.00    +0.000 C 
ENDBRANCH  21  22
ENDBRANCH   2  21
BRANCH  12  28
ATOM     28  C   UNL     1      -0.557  14.698  19.068  0.00  0.00    +0.000 C 
BRANCH  28  29
ATOM     29  N   UNL     1      -0.577  15.342  20.426  0.00  0.00    +0.000 NA
ATOM     30  C   UNL     1       0.681  16.060  20.723  0.00  0.00    +0.000 C 
ATOM     31  C   UNL     1       0.608  16.797  22.069  0.00  0.00    +0.000 C 
ATOM     32  C   UNL     1      -0.538  17.801  22.104  0.00  0.00    +0.000 C 
ATOM     33  C   UNL     1      -1.839  17.112  21.721  0.00  0.00    +0.000 C 
ATOM     34  C   UNL     1      -1.690  16.336  20.409  0.00  0.00    +0.000 C 
ENDBRANCH  28  29
ENDBRANCH  12  28
TORSDOF 4
ENDMDL
MODEL 6
REMARK VINA RESULT:      -7.6      7.269     11.673
REMARK  Name = 
REMARK  4 active torsions:
REMARK  status: ('A' for Active; 'I' for Inactive)
REMARK    1  A    between atoms: C_2  and  C_3
REMARK    2  A    between atoms: C_3  and  N_4
REMARK    3  A    between atoms: C_19  and  C_21
REMARK    4  A    between atoms: C_21  and  N_22
REMARK                            x       y       z     vdW  Elec       q    Type
REMARK                         _______ _______ _______ _____ _____    ______ ____
ROOT
ATOM      1  O   UNL     1      11.895  17.112  18.695  0.00  0.00    +0.000 OA
ATOM      2  C   UNL     1      10.752  16.707  18.482  0.00  0.00    +0.000 C 
ATOM      3  N   UNL     1       9.721  17.419  19.034  0.00  0.00    +0.000 N 
ATOM      4  C   UNL     1       8.400  17.064  19.037  0.00  0.00    +0.000 A 
ATOM      5  N   UNL     1       7.756  16.132  18.375  0.00  0.00    +0.000 NA
ATOM      6  C   UNL     1       6.466  15.989  18.898  0.00  0.00    +0.000 A 
ATOM      7  C   UNL     1       5.461  15.056  18.528  0.00  0.00    +0.000 A 
ATOM      8  C   UNL     1       4.253  14.953  19.272  0.00  0.00    +0.000 A 
ATOM      9  N   UNL     1       3.164  14.080  19.075  0.00  0.00    +0.000 NA
ATOM     10  C   UNL     1       2.280  14.244  20.042  0.00  0.00    +0.000 A 
ATOM     11  N   UNL     1       1.083  13.641  20.324  0.00  0.00    +0.000 N 
ATOM     12  C   UNL     1       0.353  12.900  19.437  0.00  0.00    +0.000 C 
ATOM     13  O   UNL     1       0.687  12.643  18.280  0.00  0.00    +0.000 OA
ATOM     14  S   UNL     1       2.650  15.425  21.207  0.00  0.00    +0.000 S 
ATOM     15  C   UNL     1       4.094  15.800  20.368  0.00  0.00    +0.000 A 
ATOM     16  C   UNL     1       5.031  16.770  20.688  0.00  0.00    +0.000 A 
ATOM     17  C   UNL     1       6.199  16.862  19.953  0.00  0.00    +0.000 A 
ATOM     18  S   UNL     1       7.500  17.958  20.165  0.00  0.00    +0.000 S 
ATOM     19  H   UNL     1       9.998  18.189  19.626  0.00  0.00    +0.000 HD
ATOM     20  H   UNL     1       0.639  13.875  21.202  0.00  0.00    +0.000 HD
ENDROOT
BRANCH   2  21
ATOM     21  C   UNL     1      10.406  15.451  17.681  0.00  0.00    +0.000 C 
BRANCH  21  22
ATOM     22  N   UNL     1      10.895  14.173  18.220  0.00  0.00    +0.000 NA
ATOM     23  C   UNL     1      10.473  13.918  19.596  0.00  0.00    +0.000 C 
ATOM     24  C   UNL     1      11.285  12.757  20.168  0.00  0.00    +0.000 C 
ATOM     25  C   UNL     1      11.147  11.511  19.298  0.00  0.00    +0.000 C 
ATOM     26  C   UNL     1      11.475  11.830  17.841  0.00  0.00    +0.000 C 
ATOM     27  C   UNL     1      10.668  13.029  17.337  0.00  0.00    +0.000 C 
ENDBRANCH  21  22
ENDBRANCH   2  21
BRANCH  12  28
ATOM     28  C   UNL     1      -0.961  12.318  20.002  0.00  0.00    +0.000 C 
BRANCH  28  29
ATOM     29  N   UNL     1      -0.867  11.038  20.784  0.00  0.00    +0.000 NA
ATOM     30  C   UNL     1       0.432  10.359  20.591  0.00  0.00    +0.000 C 
ATOM     31  C   UNL     1       0.552   9.107  21.475  0.00  0.00    +0.000 C 
ATOM     32  C   UNL     1       0.399   9.440  22.954  0.00  0.00    +0.000 C 
ATOM     33  C   UNL     1      -0.891  10.215  23.176  0.00  0.00    +0.000 C 
ATOM     34  C   UNL     1      -0.992  11.410  22.225  0.00  0.00    +0.000 C 
ENDBRANCH  28  29
ENDBRANCH  12  28
TORSDOF 4
ENDMDL
MODEL 7
REMARK VINA RESULT:      -7.5      2.335     11.040
REMARK  Name = 
REMARK  4 active torsions:
REMARK  status: ('A' for Active; 'I' for Inactive)
REMARK    1  A    between atoms: C_2  and  C_3
REMARK    2  A    between atoms: C_3  and  N_4
REMARK    3  A    between atoms: C_19  and  C_21
REMARK    4  A    between atoms: C_21  and  N_22
REMARK                            x       y       z     vdW  Elec       q    Type
REMARK                         _______ _______ _______ _____ _____    ______ ____
ROOT
ATOM      1  O   UNL     1       5.077   5.905  17.701  0.00  0.00    +0.000 OA
ATOM      2  C   UNL     1       4.102   6.372  18.291  0.00  0.00    +0.000 C 
ATOM      3  N   UNL     1       3.497   7.468  17.736  0.00  0.00    +0.000 N 
ATOM      4  C   UNL     1       2.501   8.216  18.299  0.00  0.00    +0.000 A 
ATOM      5  N   UNL     1       1.739   7.992  19.344  0.00  0.00    +0.000 NA
ATOM      6  C   UNL     1       1.039   9.158  19.675  0.00  0.00    +0.000 A 
ATOM      7  C   UNL     1       0.161   9.380  20.769  0.00  0.00    +0.000 A 
ATOM      8  C   UNL     1      -0.350  10.680  21.039  0.00  0.00    +0.000 A 
ATOM      9  N   UNL     1      -1.202  11.096  22.083  0.00  0.00    +0.000 NA
ATOM     10  C   UNL     1      -1.364  12.405  22.030  0.00  0.00    +0.000 A 
ATOM     11  N   UNL     1      -2.062  13.291  22.808  0.00  0.00    +0.000 N 
ATOM     12  C   UNL     1      -3.052  12.947  23.687  0.00  0.00    +0.000 C 
ATOM     13  O   UNL     1      -3.425  11.799  23.925  0.00  0.00    +0.000 OA
ATOM     14  S   UNL     1      -0.565  13.213  20.767  0.00  0.00    +0.000 S 
ATOM     15  C   UNL     1       0.039  11.717  20.193  0.00  0.00    +0.000 A 
ATOM     16  C   UNL     1       0.827  11.496  19.074  0.00  0.00    +0.000 A 
ATOM     17  C   UNL     1       1.313  10.226  18.821  0.00  0.00    +0.000 A 
ATOM     18  S   UNL     1       2.310   9.713  17.523  0.00  0.00    +0.000 S 
ATOM     19  H   UNL     1       3.949   7.837  16.911  0.00  0.00    +0.000 HD
ATOM     20  H   UNL     1      -1.937  14.276  22.619  0.00  0.00    +0.000 HD
ENDROOT
BRANCH   2  21
ATOM     21  C   UNL     1       3.546   5.840  19.612  0.00  0.00    +0.000 C 
BRANCH  21  22
ATOM     22  N   UNL     1       2.766   4.595  19.543  0.00  0.00    +0.000 NA
ATOM     23  C   UNL     1       3.591   3.389  19.504  0.00  0.00    +0.000 C 
ATOM     24  C   UNL     1       2.724   2.196  19.104  0.00  0.00    +0.000 C 
ATOM     25  C   UNL     1       1.540   2.036  20.053  0.00  0.00    +0.000 C 
ATOM     26  C   UNL     1       0.763   3.345  20.173  0.00  0.00    +0.000 C 
ATOM     27  C   UNL     1       1.688   4.512  20.528  0.00  0.00    +0.000 C 
ENDBRANCH  21  22
ENDBRANCH   2  21
BRANCH  12  28
ATOM     28  C   UNL     1      -3.680  14.132  24.452  0.00  0.00    +0.000 C 
BRANCH  28  29
ATOM     29  N   UNL     1      -5.033  14.605  24.000  0.00  0.00    +0.000 NA
ATOM     30  C   UNL     1      -5.201  16.064  24.171  0.00  0.00    +0.000 C 
ATOM     31  C   UNL     1      -6.548  16.547  23.610  0.00  0.00    +0.000 C 
ATOM     32  C   UNL     1      -6.698  16.216  22.130  0.00  0.00    +0.000 C 
ATOM     33  C   UNL     1      -6.448  14.733  21.907  0.00  0.00    +0.000 C 
ATOM     34  C   UNL     1      -5.128  14.290  22.544  0.00  0.00    +0.000 C 
ENDBRANCH  28  29
ENDBRANCH  12  28
TORSDOF 4
ENDMDL
MODEL 8
REMARK VINA RESULT:      -7.4      3.097      5.201
REMARK  Name = 
REMARK  4 active torsions:
REMARK  status: ('A' for Active; 'I' for Inactive)
REMARK    1  A    between atoms: C_2  and  C_3
REMARK    2  A    between atoms: C_3  and  N_4
REMARK    3  A    between atoms: C_19  and  C_21
REMARK    4  A    between atoms: C_21  and  N_22
REMARK                            x       y       z     vdW  Elec       q    Type
REMARK                         _______ _______ _______ _____ _____    ______ ____
ROOT
ATOM      1  O   UNL     1      -1.034  17.198  20.397  0.00  0.00    +0.000 OA
ATOM      2  C   UNL     1      -0.713  16.091  19.966  0.00  0.00    +0.000 C 
ATOM      3  N   UNL     1      -1.270  14.996  20.571  0.00  0.00    +0.000 N 
ATOM      4  C   UNL     1      -0.943  13.688  20.340  0.00  0.00    +0.000 A 
ATOM      5  N   UNL     1      -0.224  13.132  19.394  0.00  0.00    +0.000 NA
ATOM      6  C   UNL     1       0.033  11.796  19.720  0.00  0.00    +0.000 A 
ATOM      7  C   UNL     1       0.824  10.851  19.015  0.00  0.00    +0.000 A 
ATOM      8  C   UNL     1       1.102   9.573  19.574  0.00  0.00    +0.000 A 
ATOM      9  N   UNL     1       1.880   8.524  19.041  0.00  0.00    +0.000 NA
ATOM     10  C   UNL     1       1.961   7.540  19.917  0.00  0.00    +0.000 A 
ATOM     11  N   UNL     1       2.602   6.329  19.904  0.00  0.00    +0.000 N 
ATOM     12  C   UNL     1       3.077   5.709  18.782  0.00  0.00    +0.000 C 
ATOM     13  O   UNL     1       3.028   6.168  17.640  0.00  0.00    +0.000 OA
ATOM     14  S   UNL     1       1.129   7.766  21.382  0.00  0.00    +0.000 S 
ATOM     15  C   UNL     1       0.567   9.285  20.829  0.00  0.00    +0.000 A 
ATOM     16  C   UNL     1      -0.274  10.167  21.488  0.00  0.00    +0.000 A 
ATOM     17  C   UNL     1      -0.539  11.406  20.932  0.00  0.00    +0.000 A 
ATOM     18  S   UNL     1      -1.525  12.660  21.559  0.00  0.00    +0.000 S 
ATOM     19  H   UNL     1      -1.856  15.197  21.368  0.00  0.00    +0.000 HD
ATOM     20  H   UNL     1       2.598   5.791  20.760  0.00  0.00    +0.000 HD
ENDROOT
BRANCH   2  21
ATOM     21  C   UNL     1       0.286  15.852  18.834  0.00  0.00    +0.000 C 
BRANCH  21  22
ATOM     22  N   UNL     1       1.712  15.922  19.190  0.00  0.00    +0.000 NA
ATOM     23  C   UNL     1       2.573  15.123  18.320  0.00  0.00    +0.000 C 
ATOM     24  C   UNL     1       3.956  14.995  18.956  0.00  0.00    +0.000 C 
ATOM     25  C   UNL     1       4.560  16.368  19.235  0.00  0.00    +0.000 C 
ATOM     26  C   UNL     1       3.591  17.230  20.042  0.00  0.00    +0.000 C 
ATOM     27  C   UNL     1       2.210  17.283  19.384  0.00  0.00    +0.000 C 
ENDBRANCH  21  22
ENDBRANCH   2  21
BRANCH  12  28
ATOM     28  C   UNL     1       3.768   4.352  19.033  0.00  0.00    +0.000 C 
BRANCH  28  29
ATOM     29  N   UNL     1       5.042   4.079  18.283  0.00  0.00    +0.000 NA
ATOM     30  C   UNL     1       4.851   4.134  16.818  0.00  0.00    +0.000 C 
ATOM     31  C   UNL     1       6.180   3.954  16.067  0.00  0.00    +0.000 C 
ATOM     32  C   UNL     1       7.200   5.015  16.460  0.00  0.00    +0.000 C 
ATOM     33  C   UNL     1       7.360   5.043  17.971  0.00  0.00    +0.000 C 
ATOM     34  C   UNL     1       6.002   5.154  18.671  0.00  0.00    +0.000 C 
ENDBRANCH  28  29
ENDBRANCH  12  28
TORSDOF 4
ENDMDL
MODEL 9
REMARK VINA RESULT:      -7.4      2.900     10.640
REMARK  Name = 
REMARK  4 active torsions:
REMARK  status: ('A' for Active; 'I' for Inactive)
REMARK    1  A    between atoms: C_2  and  C_3
REMARK    2  A    between atoms: C_3  and  N_4
REMARK    3  A    between atoms: C_19  and  C_21
REMARK    4  A    between atoms: C_21  and  N_22
REMARK                            x       y       z     vdW  Elec       q    Type
REMARK                         _______ _______ _______ _____ _____    ______ ____
ROOT
ATOM      1  O   UNL     1       4.613   6.267  17.959  0.00  0.00    +0.000 OA
ATOM      2  C   UNL     1       3.609   6.780  18.454  0.00  0.00    +0.000 C 
ATOM      3  N   UNL     1       3.147   7.936  17.882  0.00  0.00    +0.000 N 
ATOM      4  C   UNL     1       2.143   8.731  18.360  0.00  0.00    +0.000 A 
ATOM      5  N   UNL     1       1.251   8.525  19.300  0.00  0.00    +0.000 NA
ATOM      6  C   UNL     1       0.595   9.724  19.600  0.00  0.00    +0.000 A 
ATOM      7  C   UNL     1      -0.388   9.968  20.595  0.00  0.00    +0.000 A 
ATOM      8  C   UNL     1      -0.840  11.290  20.862  0.00  0.00    +0.000 A 
ATOM      9  N   UNL     1      -1.779  11.727  21.819  0.00  0.00    +0.000 NA
ATOM     10  C   UNL     1      -1.847  13.046  21.806  0.00  0.00    +0.000 A 
ATOM     11  N   UNL     1      -2.572  13.950  22.538  0.00  0.00    +0.000 N 
ATOM     12  C   UNL     1      -3.679  13.646  23.280  0.00  0.00    +0.000 C 
ATOM     13  O   UNL     1      -4.152  12.518  23.423  0.00  0.00    +0.000 OA
ATOM     14  S   UNL     1      -0.853  13.840  20.680  0.00  0.00    +0.000 S 
ATOM     15  C   UNL     1      -0.287  12.328  20.113  0.00  0.00    +0.000 A 
ATOM     16  C   UNL     1       0.611  12.092  19.084  0.00  0.00    +0.000 A 
ATOM     17  C   UNL     1       1.039  10.801  18.831  0.00  0.00    +0.000 A 
ATOM     18  S   UNL     1       2.144  10.266  17.635  0.00  0.00    +0.000 S 
ATOM     19  H   UNL     1       3.717   8.301  17.133  0.00  0.00    +0.000 HD
ATOM     20  H   UNL     1      -2.360  14.930  22.408  0.00  0.00    +0.000 HD
ENDROOT
BRANCH   2  21
ATOM     21  C   UNL     1       2.867   6.241  19.678  0.00  0.00    +0.000 C 
BRANCH  21  22
ATOM     22  N   UNL     1       2.339   4.873  19.576  0.00  0.00    +0.000 NA
ATOM     23  C   UNL     1       1.387   4.532  20.631  0.00  0.00    +0.000 C 
ATOM     24  C   UNL     1       1.156   3.022  20.636  0.00  0.00    +0.000 C 
ATOM     25  C   UNL     1       0.677   2.536  19.271  0.00  0.00    +0.000 C 
ATOM     26  C   UNL     1       1.623   3.007  18.169  0.00  0.00    +0.000 C 
ATOM     27  C   UNL     1       1.855   4.519  18.242  0.00  0.00    +0.000 C 
ENDBRANCH  21  22
ENDBRANCH   2  21
BRANCH  12  28
ATOM     28  C   UNL     1      -4.313  14.843  24.021  0.00  0.00    +0.000 C 
BRANCH  28  29
ATOM     29  N   UNL     1      -3.478  15.526  25.067  0.00  0.00    +0.000 NA
ATOM     30  C   UNL     1      -2.162  14.876  25.246  0.00  0.00    +0.000 C 
ATOM     31  C   UNL     1      -1.282  15.645  26.243  0.00  0.00    +0.000 C 
ATOM     32  C   UNL     1      -1.050  17.085  25.802  0.00  0.00    +0.000 C 
ATOM     33  C   UNL     1      -2.384  17.761  25.528  0.00  0.00    +0.000 C 
ATOM     34  C   UNL     1      -3.249  16.920  24.584  0.00  0.00    +0.000 C 
ENDBRANCH  28  29
ENDBRANCH  12  28
TORSDOF 4
ENDMDL
