MODEL 1
REMARK VINA RESULT:      -8.6      0.000      0.000
REMARK  Name = 
REMARK  8 active torsions:
REMARK  status: ('A' for Active; 'I' for Inactive)
REMARK    1  A    between atoms: C_1  and  C_2
REMARK    2  A    between atoms: C_6  and  N_7
REMARK    3  A    between atoms: C_8  and  N_9
REMARK    4  A    between atoms: C_14  and  S_15
REMARK    5  A    between atoms: S_15  and  C_16
REMARK    6  A    between atoms: C_16  and  C_17
REMARK    7  A    between atoms: N_19  and  C_20
REMARK    8  A    between atoms: C_27  and  C_28
REMARK                            x       y       z     vdW  Elec       q    Type
REMARK                         _______ _______ _______ _____ _____    ______ ____
ROOT
ATOM      1  N   UNL     1       4.037   4.193  19.656  0.00  0.00    +0.000 N 
ATOM      2  C   UNL     1       4.100   2.850  20.122  0.00  0.00    +0.000 A 
ATOM      3  C   UNL     1       3.203   2.432  21.032  0.00  0.00    +0.000 A 
ATOM      4  C   UNL     1       2.080   3.285  21.441  0.00  0.00    +0.000 A 
ATOM      5  O   UNL     1       1.260   2.844  22.236  0.00  0.00    +0.000 OA
ATOM      6  N   UNL     1       1.985   4.522  20.881  0.00  0.00    +0.000 NA
ATOM      7  C   UNL     1       2.895   4.935  20.056  0.00  0.00    +0.000 A 
ENDROOT
BRANCH   1  13
ATOM      8  C   UNL     1       5.787   5.376  15.008  0.00  0.00    +0.000 C 
ATOM      9  C   UNL     1       5.930   5.280  16.510  0.00  0.00    +0.000 A 
ATOM     10  C   UNL     1       7.035   5.902  17.101  0.00  0.00    +0.000 A 
ATOM     11  C   UNL     1       7.170   5.924  18.481  0.00  0.00    +0.000 A 
ATOM     12  C   UNL     1       6.173   5.370  19.286  0.00  0.00    +0.000 A 
ATOM     13  C   UNL     1       5.057   4.694  18.751  0.00  0.00    +0.000 A 
ATOM     14  C   UNL     1       4.964   4.616  17.321  0.00  0.00    +0.000 A 
ATOM     15  C   UNL     1       3.880   3.850  16.594  0.00  0.00    +0.000 C 
ENDBRANCH   1  13
BRANCH   2  16
ATOM     16  N   UNL     1       4.985   1.886  19.667  0.00  0.00    +0.000 N 
ATOM     17  H   UNL     1       5.293   1.189  20.334  0.00  0.00    +0.000 HD
ATOM     18  H   UNL     1       4.877   1.568  18.709  0.00  0.00    +0.000 HD
ENDBRANCH   2  16
BRANCH   7  19
ATOM     19  S   UNL     1       2.569   6.614  19.509  0.00  0.00    +0.000 S 
BRANCH  19  20
ATOM     20  C   UNL     1       1.562   7.226  20.918  0.00  0.00    +0.000 C 
BRANCH  20  21
ATOM     21  C   UNL     1       1.165   8.689  20.764  0.00  0.00    +0.000 C 
ATOM     22  O   UNL     1       1.068   9.406  21.765  0.00  0.00    +0.000 OA
ATOM     23  N   UNL     1       1.017   9.122  19.462  0.00  0.00    +0.000 N 
ATOM     24  H   UNL     1       0.919   8.383  18.777  0.00  0.00    +0.000 HD
BRANCH  23  25
ATOM     25  C   UNL     1       0.696  10.428  19.044  0.00  0.00    +0.000 A 
ATOM     26  C   UNL     1       1.664  11.409  18.805  0.00  0.00    +0.000 A 
ATOM     27  C   UNL     1       1.289  12.726  18.503  0.00  0.00    +0.000 A 
ATOM     28  C   UNL     1      -0.055  13.048  18.434  0.00  0.00    +0.000 A 
ATOM     29  F   UNL     1      -0.416  14.319  18.197  0.00  0.00    +0.000 F 
ATOM     30  C   UNL     1      -1.031  12.079  18.605  0.00  0.00    +0.000 A 
ATOM     31  C   UNL     1      -0.652  10.765  18.894  0.00  0.00    +0.000 A 
ENDBRANCH  23  25
ENDBRANCH  20  21
ENDBRANCH  19  20
ENDBRANCH   7  19
TORSDOF 6
ENDMDL
MODEL 2
REMARK VINA RESULT:      -8.3      1.854      1.931
REMARK  Name = 
REMARK  8 active torsions:
REMARK  status: ('A' for Active; 'I' for Inactive)
REMARK    1  A    between atoms: C_1  and  C_2
REMARK    2  A    between atoms: C_6  and  N_7
REMARK    3  A    between atoms: C_8  and  N_9
REMARK    4  A    between atoms: C_14  and  S_15
REMARK    5  A    between atoms: S_15  and  C_16
REMARK    6  A    between atoms: C_16  and  C_17
REMARK    7  A    between atoms: N_19  and  C_20
REMARK    8  A    between atoms: C_27  and  C_28
REMARK                            x       y       z     vdW  Elec       q    Type
REMARK                         _______ _______ _______ _____ _____    ______ ____
ROOT
ATOM      1  N   UNL     1       4.044   4.076  19.670  0.00  0.00    +0.000 N 
ATOM      2  C   UNL     1       4.121   2.746  20.168  0.00  0.00    +0.000 A 
ATOM      3  C   UNL     1       3.233   2.343  21.093  0.00  0.00    +0.000 A 
ATOM      4  C   UNL     1       2.105   3.195  21.488  0.00  0.00    +0.000 A 
ATOM      5  O   UNL     1       1.293   2.767  22.299  0.00  0.00    +0.000 OA
ATOM      6  N   UNL     1       1.995   4.417  20.898  0.00  0.00    +0.000 NA
ATOM      7  C   UNL     1       2.897   4.818  20.058  0.00  0.00    +0.000 A 
ENDROOT
BRANCH   1  13
ATOM      8  C   UNL     1       5.747   5.182  14.986  0.00  0.00    +0.000 C 
ATOM      9  C   UNL     1       5.905   5.113  16.488  0.00  0.00    +0.000 A 
ATOM     10  C   UNL     1       7.014   5.747  17.058  0.00  0.00    +0.000 A 
ATOM     11  C   UNL     1       7.160   5.794  18.435  0.00  0.00    +0.000 A 
ATOM     12  C   UNL     1       6.173   5.251  19.260  0.00  0.00    +0.000 A 
ATOM     13  C   UNL     1       5.053   4.564  18.747  0.00  0.00    +0.000 A 
ATOM     14  C   UNL     1       4.948   4.461  17.319  0.00  0.00    +0.000 A 
ATOM     15  C   UNL     1       3.859   3.679  16.616  0.00  0.00    +0.000 C 
ENDBRANCH   1  13
BRANCH   2  16
ATOM     16  N   UNL     1       5.012   1.778  19.732  0.00  0.00    +0.000 N 
ATOM     17  H   UNL     1       5.935   1.778  20.147  0.00  0.00    +0.000 HD
ATOM     18  H   UNL     1       4.632   0.868  19.491  0.00  0.00    +0.000 HD
ENDBRANCH   2  16
BRANCH   7  19
ATOM     19  S   UNL     1       2.553   6.480  19.473  0.00  0.00    +0.000 S 
BRANCH  19  20
ATOM     20  C   UNL     1       1.598   7.136  20.897  0.00  0.00    +0.000 C 
BRANCH  20  21
ATOM     21  C   UNL     1       1.162   8.583  20.696  0.00  0.00    +0.000 C 
ATOM     22  O   UNL     1       1.218   9.089  19.571  0.00  0.00    +0.000 OA
ATOM     23  N   UNL     1       0.650   9.202  21.819  0.00  0.00    +0.000 N 
ATOM     24  H   UNL     1       0.866   8.741  22.693  0.00  0.00    +0.000 HD
BRANCH  23  25
ATOM     25  C   UNL     1       0.143  10.513  21.895  0.00  0.00    +0.000 A 
ATOM     26  C   UNL     1       0.632  11.564  21.111  0.00  0.00    +0.000 A 
ATOM     27  C   UNL     1       0.174  12.876  21.306  0.00  0.00    +0.000 A 
ATOM     28  C   UNL     1      -0.779  13.122  22.279  0.00  0.00    +0.000 A 
ATOM     29  F   UNL     1      -1.181  14.383  22.503  0.00  0.00    +0.000 F 
ATOM     30  C   UNL     1      -1.324  12.087  23.023  0.00  0.00    +0.000 A 
ATOM     31  C   UNL     1      -0.872  10.780  22.818  0.00  0.00    +0.000 A 
ENDBRANCH  23  25
ENDBRANCH  20  21
ENDBRANCH  19  20
ENDBRANCH   7  19
TORSDOF 6
ENDMDL
MODEL 3
REMARK VINA RESULT:      -8.2      1.236      1.532
REMARK  Name = 
REMARK  8 active torsions:
REMARK  status: ('A' for Active; 'I' for Inactive)
REMARK    1  A    between atoms: C_1  and  C_2
REMARK    2  A    between atoms: C_6  and  N_7
REMARK    3  A    between atoms: C_8  and  N_9
REMARK    4  A    between atoms: C_14  and  S_15
REMARK    5  A    between atoms: S_15  and  C_16
REMARK    6  A    between atoms: C_16  and  C_17
REMARK    7  A    between atoms: N_19  and  C_20
REMARK    8  A    between atoms: C_27  and  C_28
REMARK                            x       y       z     vdW  Elec       q    Type
REMARK                         _______ _______ _______ _____ _____    ______ ____
ROOT
ATOM      1  N   UNL     1       4.063   4.142  19.170  0.00  0.00    +0.000 N 
ATOM      2  C   UNL     1       4.072   2.950  19.946  0.00  0.00    +0.000 A 
ATOM      3  C   UNL     1       2.959   2.597  20.612  0.00  0.00    +0.000 A 
ATOM      4  C   UNL     1       1.701   3.333  20.437  0.00  0.00    +0.000 A 
ATOM      5  O   UNL     1       0.700   2.946  21.027  0.00  0.00    +0.000 OA
ATOM      6  N   UNL     1       1.701   4.398  19.590  0.00  0.00    +0.000 NA
ATOM      7  C   UNL     1       2.799   4.767  19.007  0.00  0.00    +0.000 A 
ENDROOT
BRANCH   1  13
ATOM      8  C   UNL     1       6.997   4.938  15.068  0.00  0.00    +0.000 C 
ATOM      9  C   UNL     1       6.726   4.996  16.554  0.00  0.00    +0.000 A 
ATOM     10  C   UNL     1       7.619   5.720  17.352  0.00  0.00    +0.000 A 
ATOM     11  C   UNL     1       7.371   5.884  18.706  0.00  0.00    +0.000 A 
ATOM     12  C   UNL     1       6.201   5.369  19.267  0.00  0.00    +0.000 A 
ATOM     13  C   UNL     1       5.283   4.596  18.525  0.00  0.00    +0.000 A 
ATOM     14  C   UNL     1       5.586   4.374  17.140  0.00  0.00    +0.000 A 
ATOM     15  C   UNL     1       4.752   3.493  16.234  0.00  0.00    +0.000 C 
ENDBRANCH   1  13
BRANCH   2  16
ATOM     16  N   UNL     1       5.130   2.060  20.034  0.00  0.00    +0.000 N 
ATOM     17  H   UNL     1       6.054   2.418  19.825  0.00  0.00    +0.000 HD
ATOM     18  H   UNL     1       5.082   1.346  20.753  0.00  0.00    +0.000 HD
ENDBRANCH   2  16
BRANCH   7  19
ATOM     19  S   UNL     1       2.543   6.228  17.994  0.00  0.00    +0.000 S 
BRANCH  19  20
ATOM     20  C   UNL     1       2.262   7.486  19.301  0.00  0.00    +0.000 C 
BRANCH  20  21
ATOM     21  C   UNL     1       1.890   8.851  18.732  0.00  0.00    +0.000 C 
ATOM     22  O   UNL     1       2.176   9.126  17.563  0.00  0.00    +0.000 OA
ATOM     23  N   UNL     1       1.167   9.662  19.583  0.00  0.00    +0.000 N 
ATOM     24  H   UNL     1       1.197   9.389  20.557  0.00  0.00    +0.000 HD
BRANCH  23  25
ATOM     25  C   UNL     1       0.667  10.946  19.293  0.00  0.00    +0.000 A 
ATOM     26  C   UNL     1      -0.680  11.190  19.005  0.00  0.00    +0.000 A 
ATOM     27  C   UNL     1      -1.108  12.466  18.608  0.00  0.00    +0.000 A 
ATOM     28  C   UNL     1      -0.183  13.490  18.514  0.00  0.00    +0.000 A 
ATOM     29  F   UNL     1      -0.580  14.698  18.085  0.00  0.00    +0.000 F 
ATOM     30  C   UNL     1       1.145  13.287  18.856  0.00  0.00    +0.000 A 
ATOM     31  C   UNL     1       1.565  12.017  19.262  0.00  0.00    +0.000 A 
ENDBRANCH  23  25
ENDBRANCH  20  21
ENDBRANCH  19  20
ENDBRANCH   7  19
TORSDOF 6
ENDMDL
MODEL 4
REMARK VINA RESULT:      -8.1      1.235      1.322
REMARK  Name = 
REMARK  8 active torsions:
REMARK  status: ('A' for Active; 'I' for Inactive)
REMARK    1  A    between atoms: C_1  and  C_2
REMARK    2  A    between atoms: C_6  and  N_7
REMARK    3  A    between atoms: C_8  and  N_9
REMARK    4  A    between atoms: C_14  and  S_15
REMARK    5  A    between atoms: S_15  and  C_16
REMARK    6  A    between atoms: C_16  and  C_17
REMARK    7  A    between atoms: N_19  and  C_20
REMARK    8  A    between atoms: C_27  and  C_28
REMARK                            x       y       z     vdW  Elec       q    Type
REMARK                         _______ _______ _______ _____ _____    ______ ____
ROOT
ATOM      1  N   UNL     1       3.986   4.117  19.650  0.00  0.00    +0.000 N 
ATOM      2  C   UNL     1       4.104   2.799  20.172  0.00  0.00    +0.000 A 
ATOM      3  C   UNL     1       3.203   2.370  21.071  0.00  0.00    +0.000 A 
ATOM      4  C   UNL     1       2.024   3.177  21.413  0.00  0.00    +0.000 A 
ATOM      5  O   UNL     1       1.204   2.725  22.202  0.00  0.00    +0.000 OA
ATOM      6  N   UNL     1       1.883   4.384  20.800  0.00  0.00    +0.000 NA
ATOM      7  C   UNL     1       2.795   4.813  19.985  0.00  0.00    +0.000 A 
ENDROOT
BRANCH   1  13
ATOM      8  C   UNL     1       5.762   5.325  15.018  0.00  0.00    +0.000 C 
ATOM      9  C   UNL     1       5.892   5.234  16.521  0.00  0.00    +0.000 A 
ATOM     10  C   UNL     1       6.979   5.877  17.123  0.00  0.00    +0.000 A 
ATOM     11  C   UNL     1       7.098   5.903  18.504  0.00  0.00    +0.000 A 
ATOM     12  C   UNL     1       6.104   5.332  19.300  0.00  0.00    +0.000 A 
ATOM     13  C   UNL     1       5.006   4.635  18.754  0.00  0.00    +0.000 A 
ATOM     14  C   UNL     1       4.930   4.554  17.324  0.00  0.00    +0.000 A 
ATOM     15  C   UNL     1       3.867   3.766  16.587  0.00  0.00    +0.000 C 
ENDBRANCH   1  13
BRANCH   2  16
ATOM     16  N   UNL     1       5.052   1.866  19.782  0.00  0.00    +0.000 N 
ATOM     17  H   UNL     1       5.716   2.149  19.072  0.00  0.00    +0.000 HD
ATOM     18  H   UNL     1       5.405   1.234  20.494  0.00  0.00    +0.000 HD
ENDBRANCH   2  16
BRANCH   7  19
ATOM     19  S   UNL     1       2.399   6.449  19.361  0.00  0.00    +0.000 S 
BRANCH  19  20
ATOM     20  C   UNL     1       2.115   7.341  20.941  0.00  0.00    +0.000 C 
BRANCH  20  21
ATOM     21  C   UNL     1       0.860   8.205  20.910  0.00  0.00    +0.000 C 
ATOM     22  O   UNL     1      -0.059   7.979  21.704  0.00  0.00    +0.000 OA
ATOM     23  N   UNL     1       0.894   9.255  20.014  0.00  0.00    +0.000 N 
ATOM     24  H   UNL     1       1.607   9.181  19.300  0.00  0.00    +0.000 HD
BRANCH  23  25
ATOM     25  C   UNL     1      -0.112  10.220  19.817  0.00  0.00    +0.000 A 
ATOM     26  C   UNL     1      -0.488  11.139  20.803  0.00  0.00    +0.000 A 
ATOM     27  C   UNL     1      -1.574  12.004  20.599  0.00  0.00    +0.000 A 
ATOM     28  C   UNL     1      -2.268  11.948  19.404  0.00  0.00    +0.000 A 
ATOM     29  F   UNL     1      -3.338  12.737  19.226  0.00  0.00    +0.000 F 
ATOM     30  C   UNL     1      -1.873  11.091  18.388  0.00  0.00    +0.000 A 
ATOM     31  C   UNL     1      -0.784  10.238  18.591  0.00  0.00    +0.000 A 
ENDBRANCH  23  25
ENDBRANCH  20  21
ENDBRANCH  19  20
ENDBRANCH   7  19
TORSDOF 6
ENDMDL
MODEL 5
REMARK VINA RESULT:      -7.9      2.695      4.354
REMARK  Name = 
REMARK  8 active torsions:
REMARK  status: ('A' for Active; 'I' for Inactive)
REMARK    1  A    between atoms: C_1  and  C_2
REMARK    2  A    between atoms: C_6  and  N_7
REMARK    3  A    between atoms: C_8  and  N_9
REMARK    4  A    between atoms: C_14  and  S_15
REMARK    5  A    between atoms: S_15  and  C_16
REMARK    6  A    between atoms: C_16  and  C_17
REMARK    7  A    between atoms: N_19  and  C_20
REMARK    8  A    between atoms: C_27  and  C_28
REMARK                            x       y       z     vdW  Elec       q    Type
REMARK                         _______ _______ _______ _____ _____    ______ ____
ROOT
ATOM      1  N   UNL     1       4.281   5.490  18.277  0.00  0.00    +0.000 N 
ATOM      2  C   UNL     1       5.538   4.864  18.510  0.00  0.00    +0.000 A 
ATOM      3  C   UNL     1       6.620   5.307  17.848  0.00  0.00    +0.000 A 
ATOM      4  C   UNL     1       6.559   6.508  17.005  0.00  0.00    +0.000 A 
ATOM      5  O   UNL     1       7.581   6.901  16.458  0.00  0.00    +0.000 OA
ATOM      6  N   UNL     1       5.364   7.151  16.903  0.00  0.00    +0.000 NA
ATOM      7  C   UNL     1       4.314   6.674  17.495  0.00  0.00    +0.000 A 
ENDROOT
BRANCH   1  13
ATOM      8  C   UNL     1       0.558   2.029  18.751  0.00  0.00    +0.000 C 
ATOM      9  C   UNL     1       1.267   3.300  19.161  0.00  0.00    +0.000 A 
ATOM     10  C   UNL     1       0.871   3.912  20.355  0.00  0.00    +0.000 A 
ATOM     11  C   UNL     1       1.547   5.027  20.826  0.00  0.00    +0.000 A 
ATOM     12  C   UNL     1       2.659   5.511  20.135  0.00  0.00    +0.000 A 
ATOM     13  C   UNL     1       3.082   4.964  18.906  0.00  0.00    +0.000 A 
ATOM     14  C   UNL     1       2.332   3.853  18.393  0.00  0.00    +0.000 A 
ATOM     15  C   UNL     1       2.602   3.214  17.047  0.00  0.00    +0.000 C 
ENDBRANCH   1  13
BRANCH   2  16
ATOM     16  N   UNL     1       5.770   3.854  19.430  0.00  0.00    +0.000 N 
ATOM     17  H   UNL     1       6.140   4.125  20.332  0.00  0.00    +0.000 HD
ATOM     18  H   UNL     1       5.128   3.067  19.430  0.00  0.00    +0.000 HD
ENDBRANCH   2  16
BRANCH   7  19
ATOM     19  S   UNL     1       2.860   7.672  17.154  0.00  0.00    +0.000 S 
BRANCH  19  20
ATOM     20  C   UNL     1       2.777   8.664  18.697  0.00  0.00    +0.000 C 
BRANCH  20  21
ATOM     21  C   UNL     1       1.364   9.139  19.015  0.00  0.00    +0.000 C 
ATOM     22  O   UNL     1       0.902   8.970  20.148  0.00  0.00    +0.000 OA
ATOM     23  N   UNL     1       0.728   9.812  17.992  0.00  0.00    +0.000 N 
ATOM     24  H   UNL     1       1.143   9.683  17.077  0.00  0.00    +0.000 HD
BRANCH  23  25
ATOM     25  C   UNL     1      -0.557  10.384  18.037  0.00  0.00    +0.000 A 
ATOM     26  C   UNL     1      -0.856  11.521  18.795  0.00  0.00    +0.000 A 
ATOM     27  C   UNL     1      -2.176  11.986  18.900  0.00  0.00    +0.000 A 
ATOM     28  C   UNL     1      -3.185  11.311  18.235  0.00  0.00    +0.000 A 
ATOM     29  F   UNL     1      -4.455  11.722  18.374  0.00  0.00    +0.000 F 
ATOM     30  C   UNL     1      -2.903  10.221  17.427  0.00  0.00    +0.000 A 
ATOM     31  C   UNL     1      -1.584   9.769  17.316  0.00  0.00    +0.000 A 
ENDBRANCH  23  25
ENDBRANCH  20  21
ENDBRANCH  19  20
ENDBRANCH   7  19
TORSDOF 6
ENDMDL
MODEL 6
REMARK VINA RESULT:      -7.8      1.925      2.366
REMARK  Name = 
REMARK  8 active torsions:
REMARK  status: ('A' for Active; 'I' for Inactive)
REMARK    1  A    between atoms: C_1  and  C_2
REMARK    2  A    between atoms: C_6  and  N_7
REMARK    3  A    between atoms: C_8  and  N_9
REMARK    4  A    between atoms: C_14  and  S_15
REMARK    5  A    between atoms: S_15  and  C_16
REMARK    6  A    between atoms: C_16  and  C_17
REMARK    7  A    between atoms: N_19  and  C_20
REMARK    8  A    between atoms: C_27  and  C_28
REMARK                            x       y       z     vdW  Elec       q    Type
REMARK                         _______ _______ _______ _____ _____    ______ ____
ROOT
ATOM      1  N   UNL     1       3.905   3.910  19.360  0.00  0.00    +0.000 N 
ATOM      2  C   UNL     1       4.070   2.739  20.150  0.00  0.00    +0.000 A 
ATOM      3  C   UNL     1       3.084   2.370  20.985  0.00  0.00    +0.000 A 
ATOM      4  C   UNL     1       1.790   3.065  20.990  0.00  0.00    +0.000 A 
ATOM      5  O   UNL     1       0.904   2.664  21.733  0.00  0.00    +0.000 OA
ATOM      6  N   UNL     1       1.627   4.109  20.130  0.00  0.00    +0.000 NA
ATOM      7  C   UNL     1       2.611   4.494  19.379  0.00  0.00    +0.000 A 
ENDROOT
BRANCH   1  13
ATOM      8  C   UNL     1       6.145   4.700  14.840  0.00  0.00    +0.000 C 
ATOM      9  C   UNL     1       6.106   4.781  16.350  0.00  0.00    +0.000 A 
ATOM     10  C   UNL     1       7.089   5.544  16.988  0.00  0.00    +0.000 A 
ATOM     11  C   UNL     1       7.049   5.728  18.361  0.00  0.00    +0.000 A 
ATOM     12  C   UNL     1       5.996   5.194  19.105  0.00  0.00    +0.000 A 
ATOM     13  C   UNL     1       4.997   4.382  18.527  0.00  0.00    +0.000 A 
ATOM     14  C   UNL     1       5.088   4.141  17.115  0.00  0.00    +0.000 A 
ATOM     15  C   UNL     1       4.151   3.221  16.363  0.00  0.00    +0.000 C 
ENDBRANCH   1  13
BRANCH   2  16
ATOM     16  N   UNL     1       5.158   1.882  20.092  0.00  0.00    +0.000 N 
ATOM     17  H   UNL     1       5.404   1.508  19.185  0.00  0.00    +0.000 HD
ATOM     18  H   UNL     1       5.932   2.068  20.722  0.00  0.00    +0.000 HD
ENDBRANCH   2  16
BRANCH   7  19
ATOM     19  S   UNL     1       2.156   5.920  18.387  0.00  0.00    +0.000 S 
BRANCH  19  20
ATOM     20  C   UNL     1       2.853   7.270  19.419  0.00  0.00    +0.000 C 
BRANCH  20  21
ATOM     21  C   UNL     1       1.821   8.339  19.761  0.00  0.00    +0.000 C 
ATOM     22  O   UNL     1       1.084   8.784  18.876  0.00  0.00    +0.000 OA
ATOM     23  N   UNL     1       1.747   8.674  21.098  0.00  0.00    +0.000 N 
ATOM     24  H   UNL     1       2.544   8.389  21.652  0.00  0.00    +0.000 HD
BRANCH  23  25
ATOM     25  C   UNL     1       0.858   9.597  21.682  0.00  0.00    +0.000 A 
ATOM     26  C   UNL     1       0.008   9.266  22.743  0.00  0.00    +0.000 A 
ATOM     27  C   UNL     1      -0.941  10.186  23.214  0.00  0.00    +0.000 A 
ATOM     28  C   UNL     1      -1.023  11.435  22.623  0.00  0.00    +0.000 A 
ATOM     29  F   UNL     1      -1.964  12.298  23.036  0.00  0.00    +0.000 F 
ATOM     30  C   UNL     1      -0.148  11.807  21.614  0.00  0.00    +0.000 A 
ATOM     31  C   UNL     1       0.803  10.891  21.156  0.00  0.00    +0.000 A 
ENDBRANCH  23  25
ENDBRANCH  20  21
ENDBRANCH  19  20
ENDBRANCH   7  19
TORSDOF 6
ENDMDL
MODEL 7
REMARK VINA RESULT:      -7.8      1.903      2.333
REMARK  Name = 
REMARK  8 active torsions:
REMARK  status: ('A' for Active; 'I' for Inactive)
REMARK    1  A    between atoms: C_1  and  C_2
REMARK    2  A    between atoms: C_6  and  N_7
REMARK    3  A    between atoms: C_8  and  N_9
REMARK    4  A    between atoms: C_14  and  S_15
REMARK    5  A    between atoms: S_15  and  C_16
REMARK    6  A    between atoms: C_16  and  C_17
REMARK    7  A    between atoms: N_19  and  C_20
REMARK    8  A    between atoms: C_27  and  C_28
REMARK                            x       y       z     vdW  Elec       q    Type
REMARK                         _______ _______ _______ _____ _____    ______ ____
ROOT
ATOM      1  N   UNL     1       3.972   4.005  19.238  0.00  0.00    +0.000 N 
ATOM      2  C   UNL     1       4.066   2.812  20.007  0.00  0.00    +0.000 A 
ATOM      3  C   UNL     1       3.007   2.422  20.737  0.00  0.00    +0.000 A 
ATOM      4  C   UNL     1       1.718   3.119  20.642  0.00  0.00    +0.000 A 
ATOM      5  O   UNL     1       0.768   2.698  21.290  0.00  0.00    +0.000 OA
ATOM      6  N   UNL     1       1.634   4.186  19.801  0.00  0.00    +0.000 NA
ATOM      7  C   UNL     1       2.682   4.591  19.155  0.00  0.00    +0.000 A 
ENDROOT
BRANCH   1  13
ATOM      8  C   UNL     1       6.630   4.893  14.970  0.00  0.00    +0.000 C 
ATOM      9  C   UNL     1       6.446   4.945  16.469  0.00  0.00    +0.000 A 
ATOM     10  C   UNL     1       7.359   5.700  17.213  0.00  0.00    +0.000 A 
ATOM     11  C   UNL     1       7.186   5.857  18.580  0.00  0.00    +0.000 A 
ATOM     12  C   UNL     1       6.069   5.304  19.209  0.00  0.00    +0.000 A 
ATOM     13  C   UNL     1       5.136   4.499  18.522  0.00  0.00    +0.000 A 
ATOM     14  C   UNL     1       5.364   4.285  17.122  0.00  0.00    +0.000 A 
ATOM     15  C   UNL     1       4.509   3.375  16.266  0.00  0.00    +0.000 C 
ENDBRANCH   1  13
BRANCH   2  16
ATOM     16  N   UNL     1       5.155   1.956  20.026  0.00  0.00    +0.000 N 
ATOM     17  H   UNL     1       5.070   1.111  20.578  0.00  0.00    +0.000 HD
ATOM     18  H   UNL     1       5.702   1.877  19.175  0.00  0.00    +0.000 HD
ENDBRANCH   2  16
BRANCH   7  19
ATOM     19  S   UNL     1       2.319   6.044  18.165  0.00  0.00    +0.000 S 
BRANCH  19  20
ATOM     20  C   UNL     1       2.830   7.368  19.331  0.00  0.00    +0.000 C 
BRANCH  20  21
ATOM     21  C   UNL     1       1.707   7.786  20.273  0.00  0.00    +0.000 C 
ATOM     22  O   UNL     1       1.221   6.960  21.052  0.00  0.00    +0.000 OA
ATOM     23  N   UNL     1       1.371   9.125  20.226  0.00  0.00    +0.000 N 
ATOM     24  H   UNL     1       1.700   9.616  19.405  0.00  0.00    +0.000 HD
BRANCH  23  25
ATOM     25  C   UNL     1       0.403   9.773  21.015  0.00  0.00    +0.000 A 
ATOM     26  C   UNL     1      -0.402  10.811  20.532  0.00  0.00    +0.000 A 
ATOM     27  C   UNL     1      -1.270  11.503  21.389  0.00  0.00    +0.000 A 
ATOM     28  C   UNL     1      -1.331  11.143  22.724  0.00  0.00    +0.000 A 
ATOM     29  F   UNL     1      -2.122  11.837  23.557  0.00  0.00    +0.000 F 
ATOM     30  C   UNL     1      -0.591  10.077  23.211  0.00  0.00    +0.000 A 
ATOM     31  C   UNL     1       0.265   9.383  22.350  0.00  0.00    +0.000 A 
ENDBRANCH  23  25
ENDBRANCH  20  21
ENDBRANCH  19  20
ENDBRANCH   7  19
TORSDOF 6
ENDMDL
MODEL 8
REMARK VINA RESULT:      -7.8      3.885      9.391
REMARK  Name = 
REMARK  8 active torsions:
REMARK  status: ('A' for Active; 'I' for Inactive)
REMARK    1  A    between atoms: C_1  and  C_2
REMARK    2  A    between atoms: C_6  and  N_7
REMARK    3  A    between atoms: C_8  and  N_9
REMARK    4  A    between atoms: C_14  and  S_15
REMARK    5  A    between atoms: S_15  and  C_16
REMARK    6  A    between atoms: C_16  and  C_17
REMARK    7  A    between atoms: N_19  and  C_20
REMARK    8  A    between atoms: C_27  and  C_28
REMARK                            x       y       z     vdW  Elec       q    Type
REMARK                         _______ _______ _______ _____ _____    ______ ____
ROOT
ATOM      1  N   UNL     1      -0.572  11.938  19.483  0.00  0.00    +0.000 N 
ATOM      2  C   UNL     1      -0.038  13.180  19.040  0.00  0.00    +0.000 A 
ATOM      3  C   UNL     1       1.003  13.715  19.699  0.00  0.00    +0.000 A 
ATOM      4  C   UNL     1       1.688  12.978  20.768  0.00  0.00    +0.000 A 
ATOM      5  O   UNL     1       2.663  13.486  21.308  0.00  0.00    +0.000 OA
ATOM      6  N   UNL     1       1.222  11.738  21.084  0.00  0.00    +0.000 NA
ATOM      7  C   UNL     1       0.175  11.264  20.485  0.00  0.00    +0.000 A 
ENDROOT
BRANCH   1  13
ATOM      8  C   UNL     1      -5.579  11.928  18.482  0.00  0.00    +0.000 C 
ATOM      9  C   UNL     1      -4.183  11.364  18.343  0.00  0.00    +0.000 A 
ATOM     10  C   UNL     1      -3.972  10.372  17.380  0.00  0.00    +0.000 A 
ATOM     11  C   UNL     1      -2.696   9.884  17.147  0.00  0.00    +0.000 A 
ATOM     12  C   UNL     1      -1.608  10.420  17.838  0.00  0.00    +0.000 A 
ATOM     13  C   UNL     1      -1.760  11.392  18.849  0.00  0.00    +0.000 A 
ATOM     14  C   UNL     1      -3.094  11.839  19.131  0.00  0.00    +0.000 A 
ATOM     15  C   UNL     1      -3.433  12.807  20.245  0.00  0.00    +0.000 C 
ENDBRANCH   1  13
BRANCH   2  16
ATOM     16  N   UNL     1      -0.463  13.879  17.921  0.00  0.00    +0.000 N 
ATOM     17  H   UNL     1       0.151  13.882  17.117  0.00  0.00    +0.000 HD
ATOM     18  H   UNL     1      -1.458  13.879  17.721  0.00  0.00    +0.000 HD
ENDBRANCH   2  16
BRANCH   7  19
ATOM     19  S   UNL     1      -0.266   9.644  21.123  0.00  0.00    +0.000 S 
BRANCH  19  20
ATOM     20  C   UNL     1       1.406   8.929  21.381  0.00  0.00    +0.000 C 
BRANCH  20  21
ATOM     21  C   UNL     1       1.691   7.752  20.455  0.00  0.00    +0.000 C 
ATOM     22  O   UNL     1       1.924   7.955  19.260  0.00  0.00    +0.000 OA
ATOM     23  N   UNL     1       1.741   6.519  21.074  0.00  0.00    +0.000 N 
ATOM     24  H   UNL     1       1.325   6.490  21.997  0.00  0.00    +0.000 HD
BRANCH  23  25
ATOM     25  C   UNL     1       2.024   5.285  20.461  0.00  0.00    +0.000 A 
ATOM     26  C   UNL     1       3.269   4.982  19.898  0.00  0.00    +0.000 A 
ATOM     27  C   UNL     1       3.466   3.784  19.196  0.00  0.00    +0.000 A 
ATOM     28  C   UNL     1       2.414   2.893  19.071  0.00  0.00    +0.000 A 
ATOM     29  F   UNL     1       2.585   1.770  18.357  0.00  0.00    +0.000 F 
ATOM     30  C   UNL     1       1.191   3.142  19.674  0.00  0.00    +0.000 A 
ATOM     31  C   UNL     1       1.003   4.332  20.383  0.00  0.00    +0.000 A 
ENDBRANCH  23  25
ENDBRANCH  20  21
ENDBRANCH  19  20
ENDBRANCH   7  19
TORSDOF 6
ENDMDL
MODEL 9
REMARK VINA RESULT:      -7.8      2.325      2.702
REMARK  Name = 
REMARK  8 active torsions:
REMARK  status: ('A' for Active; 'I' for Inactive)
REMARK    1  A    between atoms: C_1  and  C_2
REMARK    2  A    between atoms: C_6  and  N_7
REMARK    3  A    between atoms: C_8  and  N_9
REMARK    4  A    between atoms: C_14  and  S_15
REMARK    5  A    between atoms: S_15  and  C_16
REMARK    6  A    between atoms: C_16  and  C_17
REMARK    7  A    between atoms: N_19  and  C_20
REMARK    8  A    between atoms: C_27  and  C_28
REMARK                            x       y       z     vdW  Elec       q    Type
REMARK                         _______ _______ _______ _____ _____    ______ ____
ROOT
ATOM      1  N   UNL     1       3.646   3.686  18.250  0.00  0.00    +0.000 N 
ATOM      2  C   UNL     1       3.440   2.283  18.368  0.00  0.00    +0.000 A 
ATOM      3  C   UNL     1       2.210   1.826  18.656  0.00  0.00    +0.000 A 
ATOM      4  C   UNL     1       1.054   2.730  18.708  0.00  0.00    +0.000 A 
ATOM      5  O   UNL     1      -0.056   2.262  18.927  0.00  0.00    +0.000 OA
ATOM      6  N   UNL     1       1.272   4.053  18.470  0.00  0.00    +0.000 NA
ATOM      7  C   UNL     1       2.475   4.488  18.259  0.00  0.00    +0.000 A 
ENDROOT
BRANCH   1  13
ATOM      8  C   UNL     1       7.473   5.275  15.268  0.00  0.00    +0.000 C 
ATOM      9  C   UNL     1       6.857   4.985  16.618  0.00  0.00    +0.000 A 
ATOM     10  C   UNL     1       7.536   5.435  17.755  0.00  0.00    +0.000 A 
ATOM     11  C   UNL     1       6.974   5.277  19.012  0.00  0.00    +0.000 A 
ATOM     12  C   UNL     1       5.702   4.715  19.141  0.00  0.00    +0.000 A 
ATOM     13  C   UNL     1       4.986   4.206  18.038  0.00  0.00    +0.000 A 
ATOM     14  C   UNL     1       5.608   4.311  16.750  0.00  0.00    +0.000 A 
ATOM     15  C   UNL     1       5.012   3.732  15.484  0.00  0.00    +0.000 C 
ENDBRANCH   1  13
BRANCH   2  16
ATOM     16  N   UNL     1       4.402   1.311  18.144  0.00  0.00    +0.000 N 
ATOM     17  H   UNL     1       4.108   0.470  17.664  0.00  0.00    +0.000 HD
ATOM     18  H   UNL     1       5.348   1.626  17.950  0.00  0.00    +0.000 HD
ENDBRANCH   2  16
BRANCH   7  19
ATOM     19  S   UNL     1       2.496   6.269  18.032  0.00  0.00    +0.000 S 
BRANCH  19  20
ATOM     20  C   UNL     1       2.554   6.820  19.783  0.00  0.00    +0.000 C 
BRANCH  20  21
ATOM     21  C   UNL     1       1.795   8.121  20.014  0.00  0.00    +0.000 C 
ATOM     22  O   UNL     1       1.534   8.856  19.057  0.00  0.00    +0.000 OA
ATOM     23  N   UNL     1       1.382   8.335  21.314  0.00  0.00    +0.000 N 
ATOM     24  H   UNL     1       1.848   7.763  22.007  0.00  0.00    +0.000 HD
BRANCH  23  25
ATOM     25  C   UNL     1       0.634   9.430  21.786  0.00  0.00    +0.000 A 
ATOM     26  C   UNL     1      -0.255   9.337  22.862  0.00  0.00    +0.000 A 
ATOM     27  C   UNL     1      -1.063  10.426  23.220  0.00  0.00    +0.000 A 
ATOM     28  C   UNL     1      -0.965  11.606  22.502  0.00  0.00    +0.000 A 
ATOM     29  F   UNL     1      -1.773  12.632  22.810  0.00  0.00    +0.000 F 
ATOM     30  C   UNL     1      -0.046  11.742  21.474  0.00  0.00    +0.000 A 
ATOM     31  C   UNL     1       0.765  10.656  21.128  0.00  0.00    +0.000 A 
ENDBRANCH  23  25
ENDBRANCH  20  21
ENDBRANCH  19  20
ENDBRANCH   7  19
TORSDOF 6
ENDMDL
