MODEL 1
REMARK VINA RESULT:      -7.9      0.000      0.000
REMARK  Name = 
REMARK  7 active torsions:
REMARK  status: ('A' for Active; 'I' for Inactive)
REMARK    1  A    between atoms: C_1  and  N_2
REMARK    2  A    between atoms: C_8  and  C_9
REMARK    3  A    between atoms: C_9  and  N_10
REMARK    4  A    between atoms: N_16  and  C_17
REMARK    5  A    between atoms: C_17  and  C_18
REMARK    6  A    between atoms: C_18  and  C_19
REMARK    7  A    between atoms: N_25  and  C_26
REMARK                            x       y       z     vdW  Elec       q    Type
REMARK                         _______ _______ _______ _____ _____    ______ ____
ROOT
ATOM      1  C   UNL     1       0.738  12.461  18.655  0.00  0.00    +0.000 C 
ATOM      2  N   UNL     1       0.915  11.158  19.265  0.00  0.00    +0.000 N 
ATOM      3  C   UNL     1       1.595  10.142  18.556  0.00  0.00    +0.000 A 
ATOM      4  O   UNL     1       2.071  10.304  17.438  0.00  0.00    +0.000 OA
ATOM      5  C   UNL     1       1.679   8.904  19.279  0.00  0.00    +0.000 A 
ATOM      6  C   UNL     1       1.155   8.784  20.529  0.00  0.00    +0.000 A 
ATOM      7  N   UNL     1       1.352   7.559  21.054  0.00  0.00    +0.000 NA
ATOM      8  C   UNL     1       2.023   6.878  20.145  0.00  0.00    +0.000 A 
ATOM      9  N   UNL     1       2.236   7.653  19.001  0.00  0.00    +0.000 N 
ATOM     10  N   UNL     1       0.514   9.803  21.187  0.00  0.00    +0.000 N 
ATOM     11  C   UNL     1      -0.020   9.621  22.520  0.00  0.00    +0.000 C 
ATOM     12  C   UNL     1       0.374  11.030  20.561  0.00  0.00    +0.000 A 
ATOM     13  O   UNL     1      -0.197  11.973  21.118  0.00  0.00    +0.000 OA
ENDROOT
BRANCH   8  14
ATOM     14  C   UNL     1       2.431   5.455  20.425  0.00  0.00    +0.000 C 
BRANCH  14  15
ATOM     15  N   UNL     1       2.152   4.500  19.334  0.00  0.00    +0.000 NA
ATOM     16  C   UNL     1       3.395   3.892  18.828  0.00  0.00    +0.000 C 
ATOM     17  C   UNL     1       3.118   2.866  17.727  0.00  0.00    +0.000 C 
ATOM     18  C   UNL     1       2.157   1.789  18.208  0.00  0.00    +0.000 C 
ATOM     19  C   UNL     1       0.884   2.432  18.739  0.00  0.00    +0.000 C 
ATOM     20  C   UNL     1       1.199   3.478  19.809  0.00  0.00    +0.000 C 
ENDBRANCH  14  15
ENDBRANCH   8  14
BRANCH   9  21
ATOM     21  C   UNL     1       2.965   7.316  17.774  0.00  0.00    +0.000 C 
BRANCH  21  22
ATOM     22  C   UNL     1       4.496   7.476  17.783  0.00  0.00    +0.000 C 
BRANCH  22  23
ATOM     23  C   UNL     1       5.337   6.446  17.050  0.00  0.00    +0.000 A 
ATOM     24  C   UNL     1       6.350   5.779  17.765  0.00  0.00    +0.000 A 
ATOM     25  C   UNL     1       7.131   4.787  17.167  0.00  0.00    +0.000 A 
ATOM     26  C   UNL     1       6.904   4.433  15.840  0.00  0.00    +0.000 A 
ATOM     27  C   UNL     1       5.895   5.073  15.121  0.00  0.00    +0.000 A 
ATOM     28  C   UNL     1       5.109   6.063  15.719  0.00  0.00    +0.000 A 
ENDBRANCH  22  23
ENDBRANCH  21  22
ENDBRANCH   9  21
TORSDOF 5
ENDMDL
MODEL 2
REMARK VINA RESULT:      -7.9      0.625      1.137
REMARK  Name = 
REMARK  7 active torsions:
REMARK  status: ('A' for Active; 'I' for Inactive)
REMARK    1  A    between atoms: C_1  and  N_2
REMARK    2  A    between atoms: C_8  and  C_9
REMARK    3  A    between atoms: C_9  and  N_10
REMARK    4  A    between atoms: N_16  and  C_17
REMARK    5  A    between atoms: C_17  and  C_18
REMARK    6  A    between atoms: C_18  and  C_19
REMARK    7  A    between atoms: N_25  and  C_26
REMARK                            x       y       z     vdW  Elec       q    Type
REMARK                         _______ _______ _______ _____ _____    ______ ____
ROOT
ATOM      1  C   UNL     1       1.006  12.403  18.789  0.00  0.00    +0.000 C 
ATOM      2  N   UNL     1       1.083  11.090  19.396  0.00  0.00    +0.000 N 
ATOM      3  C   UNL     1       1.658  10.020  18.674  0.00  0.00    +0.000 A 
ATOM      4  O   UNL     1       2.122  10.141  17.545  0.00  0.00    +0.000 OA
ATOM      5  C   UNL     1       1.653   8.779  19.396  0.00  0.00    +0.000 A 
ATOM      6  C   UNL     1       1.147   8.703  20.657  0.00  0.00    +0.000 A 
ATOM      7  N   UNL     1       1.250   7.466  21.180  0.00  0.00    +0.000 NA
ATOM      8  C   UNL     1       1.841   6.730  20.256  0.00  0.00    +0.000 A 
ATOM      9  N   UNL     1       2.094   7.485  19.108  0.00  0.00    +0.000 N 
ATOM     10  N   UNL     1       0.610   9.773  21.328  0.00  0.00    +0.000 N 
ATOM     11  C   UNL     1       0.092   9.637  22.673  0.00  0.00    +0.000 C 
ATOM     12  C   UNL     1       0.562  11.008  20.704  0.00  0.00    +0.000 A 
ATOM     13  O   UNL     1       0.086  11.996  21.272  0.00  0.00    +0.000 OA
ENDROOT
BRANCH   8  14
ATOM     14  C   UNL     1       2.131   5.277  20.529  0.00  0.00    +0.000 C 
BRANCH  14  15
ATOM     15  N   UNL     1       2.752   4.544  19.408  0.00  0.00    +0.000 NA
ATOM     16  C   UNL     1       3.792   3.618  19.888  0.00  0.00    +0.000 C 
ATOM     17  C   UNL     1       4.414   2.818  18.742  0.00  0.00    +0.000 C 
ATOM     18  C   UNL     1       3.351   2.062  17.959  0.00  0.00    +0.000 C 
ATOM     19  C   UNL     1       2.277   3.028  17.480  0.00  0.00    +0.000 C 
ATOM     20  C   UNL     1       1.704   3.838  18.644  0.00  0.00    +0.000 C 
ENDBRANCH  14  15
ENDBRANCH   8  14
BRANCH   9  21
ATOM     21  C   UNL     1       2.764   7.088  17.865  0.00  0.00    +0.000 C 
BRANCH  21  22
ATOM     22  C   UNL     1       4.268   7.393  17.733  0.00  0.00    +0.000 C 
BRANCH  22  23
ATOM     23  C   UNL     1       5.197   6.277  17.293  0.00  0.00    +0.000 A 
ATOM     24  C   UNL     1       4.886   5.574  16.112  0.00  0.00    +0.000 A 
ATOM     25  C   UNL     1       5.720   4.566  15.623  0.00  0.00    +0.000 A 
ATOM     26  C   UNL     1       6.893   4.249  16.302  0.00  0.00    +0.000 A 
ATOM     27  C   UNL     1       7.225   4.944  17.463  0.00  0.00    +0.000 A 
ATOM     28  C   UNL     1       6.394   5.956  17.952  0.00  0.00    +0.000 A 
ENDBRANCH  22  23
ENDBRANCH  21  22
ENDBRANCH   9  21
TORSDOF 5
ENDMDL
MODEL 3
REMARK VINA RESULT:      -7.5      1.472      4.241
REMARK  Name = 
REMARK  7 active torsions:
REMARK  status: ('A' for Active; 'I' for Inactive)
REMARK    1  A    between atoms: C_1  and  N_2
REMARK    2  A    between atoms: C_8  and  C_9
REMARK    3  A    between atoms: C_9  and  N_10
REMARK    4  A    between atoms: N_16  and  C_17
REMARK    5  A    between atoms: C_17  and  C_18
REMARK    6  A    between atoms: C_18  and  C_19
REMARK    7  A    between atoms: N_25  and  C_26
REMARK                            x       y       z     vdW  Elec       q    Type
REMARK                         _______ _______ _______ _____ _____    ______ ____
ROOT
ATOM      1  C   UNL     1      -0.401  10.981  22.038  0.00  0.00    +0.000 C 
ATOM      2  N   UNL     1       0.377  10.283  21.033  0.00  0.00    +0.000 N 
ATOM      3  C   UNL     1       0.708   8.923  21.228  0.00  0.00    +0.000 A 
ATOM      4  O   UNL     1       0.357   8.277  22.210  0.00  0.00    +0.000 OA
ATOM      5  C   UNL     1       1.492   8.371  20.159  0.00  0.00    +0.000 A 
ATOM      6  C   UNL     1       1.835   9.124  19.078  0.00  0.00    +0.000 A 
ATOM      7  N   UNL     1       2.548   8.428  18.172  0.00  0.00    +0.000 NA
ATOM      8  C   UNL     1       2.660   7.206  18.657  0.00  0.00    +0.000 A 
ATOM      9  N   UNL     1       2.044   7.112  19.909  0.00  0.00    +0.000 N 
ATOM     10  N   UNL     1       1.478  10.439  18.923  0.00  0.00    +0.000 N 
ATOM     11  C   UNL     1       1.866  11.192  17.749  0.00  0.00    +0.000 C 
ATOM     12  C   UNL     1       0.732  11.059  19.911  0.00  0.00    +0.000 A 
ATOM     13  O   UNL     1       0.391  12.243  19.811  0.00  0.00    +0.000 OA
ENDROOT
BRANCH   8  14
ATOM     14  C   UNL     1       3.393   6.151  17.871  0.00  0.00    +0.000 C 
BRANCH  14  15
ATOM     15  N   UNL     1       4.865   6.227  17.947  0.00  0.00    +0.000 NA
ATOM     16  C   UNL     1       5.382   5.433  19.075  0.00  0.00    +0.000 C 
ATOM     17  C   UNL     1       6.910   5.465  19.141  0.00  0.00    +0.000 C 
ATOM     18  C   UNL     1       7.526   4.993  17.832  0.00  0.00    +0.000 C 
ATOM     19  C   UNL     1       6.975   5.813  16.675  0.00  0.00    +0.000 C 
ATOM     20  C   UNL     1       5.446   5.790  16.662  0.00  0.00    +0.000 C 
ENDBRANCH  14  15
ENDBRANCH   8  14
BRANCH   9  21
ATOM     21  C   UNL     1       1.892   5.944  20.782  0.00  0.00    +0.000 C 
BRANCH  21  22
ATOM     22  C   UNL     1       1.160   4.714  20.214  0.00  0.00    +0.000 C 
BRANCH  22  23
ATOM     23  C   UNL     1       1.988   3.593  19.610  0.00  0.00    +0.000 A 
ATOM     24  C   UNL     1       1.658   3.140  18.318  0.00  0.00    +0.000 A 
ATOM     25  C   UNL     1       2.405   2.145  17.683  0.00  0.00    +0.000 A 
ATOM     26  C   UNL     1       3.508   1.591  18.326  0.00  0.00    +0.000 A 
ATOM     27  C   UNL     1       3.858   2.038  19.599  0.00  0.00    +0.000 A 
ATOM     28  C   UNL     1       3.115   3.037  20.235  0.00  0.00    +0.000 A 
ENDBRANCH  22  23
ENDBRANCH  21  22
ENDBRANCH   9  21
TORSDOF 5
ENDMDL
MODEL 4
REMARK VINA RESULT:      -7.0      0.705      1.100
REMARK  Name = 
REMARK  7 active torsions:
REMARK  status: ('A' for Active; 'I' for Inactive)
REMARK    1  A    between atoms: C_1  and  N_2
REMARK    2  A    between atoms: C_8  and  C_9
REMARK    3  A    between atoms: C_9  and  N_10
REMARK    4  A    between atoms: N_16  and  C_17
REMARK    5  A    between atoms: C_17  and  C_18
REMARK    6  A    between atoms: C_18  and  C_19
REMARK    7  A    between atoms: N_25  and  C_26
REMARK                            x       y       z     vdW  Elec       q    Type
REMARK                         _______ _______ _______ _____ _____    ______ ____
ROOT
ATOM      1  C   UNL     1       0.077  12.383  18.990  0.00  0.00    +0.000 C 
ATOM      2  N   UNL     1       0.442  11.053  19.436  0.00  0.00    +0.000 N 
ATOM      3  C   UNL     1       1.406  10.315  18.714  0.00  0.00    +0.000 A 
ATOM      4  O   UNL     1       1.979  10.746  17.719  0.00  0.00    +0.000 OA
ATOM      5  C   UNL     1       1.654   9.012  19.264  0.00  0.00    +0.000 A 
ATOM      6  C   UNL     1       1.008   8.590  20.386  0.00  0.00    +0.000 A 
ATOM      7  N   UNL     1       1.388   7.354  20.763  0.00  0.00    +0.000 NA
ATOM      8  C   UNL     1       2.299   6.970  19.888  0.00  0.00    +0.000 A 
ATOM      9  N   UNL     1       2.491   7.951  18.911  0.00  0.00    +0.000 N 
ATOM     10  N   UNL     1       0.088   9.347  21.065  0.00  0.00    +0.000 N 
ATOM     11  C   UNL     1      -0.564   8.850  22.258  0.00  0.00    +0.000 C 
ATOM     12  C   UNL     1      -0.223  10.613  20.599  0.00  0.00    +0.000 A 
ATOM     13  O   UNL     1      -1.047  11.327  21.181  0.00  0.00    +0.000 OA
ENDROOT
BRANCH   8  14
ATOM     14  C   UNL     1       2.956   5.623  20.033  0.00  0.00    +0.000 C 
BRANCH  14  15
ATOM     15  N   UNL     1       2.323   4.534  19.263  0.00  0.00    +0.000 NA
ATOM     16  C   UNL     1       3.310   3.514  18.871  0.00  0.00    +0.000 C 
ATOM     17  C   UNL     1       2.661   2.356  18.111  0.00  0.00    +0.000 C 
ATOM     18  C   UNL     1       1.539   1.726  18.922  0.00  0.00    +0.000 C 
ATOM     19  C   UNL     1       0.533   2.793  19.330  0.00  0.00    +0.000 C 
ATOM     20  C   UNL     1       1.220   3.952  20.053  0.00  0.00    +0.000 C 
ENDBRANCH  14  15
ENDBRANCH   8  14
BRANCH   9  21
ATOM     21  C   UNL     1       3.427   7.965  17.782  0.00  0.00    +0.000 C 
BRANCH  21  22
ATOM     22  C   UNL     1       3.584   6.669  16.965  0.00  0.00    +0.000 C 
BRANCH  22  23
ATOM     23  C   UNL     1       4.925   5.957  16.986  0.00  0.00    +0.000 A 
ATOM     24  C   UNL     1       5.138   4.906  16.073  0.00  0.00    +0.000 A 
ATOM     25  C   UNL     1       6.362   4.237  16.005  0.00  0.00    +0.000 A 
ATOM     26  C   UNL     1       7.406   4.618  16.844  0.00  0.00    +0.000 A 
ATOM     27  C   UNL     1       7.218   5.666  17.743  0.00  0.00    +0.000 A 
ATOM     28  C   UNL     1       5.995   6.340  17.810  0.00  0.00    +0.000 A 
ENDBRANCH  22  23
ENDBRANCH  21  22
ENDBRANCH   9  21
TORSDOF 5
ENDMDL
MODEL 5
REMARK VINA RESULT:      -7.0      0.976      1.355
REMARK  Name = 
REMARK  7 active torsions:
REMARK  status: ('A' for Active; 'I' for Inactive)
REMARK    1  A    between atoms: C_1  and  N_2
REMARK    2  A    between atoms: C_8  and  C_9
REMARK    3  A    between atoms: C_9  and  N_10
REMARK    4  A    between atoms: N_16  and  C_17
REMARK    5  A    between atoms: C_17  and  C_18
REMARK    6  A    between atoms: C_18  and  C_19
REMARK    7  A    between atoms: N_25  and  C_26
REMARK                            x       y       z     vdW  Elec       q    Type
REMARK                         _______ _______ _______ _____ _____    ______ ____
ROOT
ATOM      1  C   UNL     1       0.270  12.596  18.905  0.00  0.00    +0.000 C 
ATOM      2  N   UNL     1       0.643  11.295  19.424  0.00  0.00    +0.000 N 
ATOM      3  C   UNL     1       1.332  10.384  18.593  0.00  0.00    +0.000 A 
ATOM      4  O   UNL     1       1.657  10.637  17.438  0.00  0.00    +0.000 OA
ATOM      5  C   UNL     1       1.621   9.134  19.238  0.00  0.00    +0.000 A 
ATOM      6  C   UNL     1       1.259   8.912  20.531  0.00  0.00    +0.000 A 
ATOM      7  N   UNL     1       1.635   7.694  20.969  0.00  0.00    +0.000 NA
ATOM      8  C   UNL     1       2.260   7.121  19.956  0.00  0.00    +0.000 A 
ATOM      9  N   UNL     1       2.261   7.959  18.837  0.00  0.00    +0.000 N 
ATOM     10  N   UNL     1       0.603   9.832  21.308  0.00  0.00    +0.000 N 
ATOM     11  C   UNL     1       0.248   9.544  22.681  0.00  0.00    +0.000 C 
ATOM     12  C   UNL     1       0.272  11.062  20.764  0.00  0.00    +0.000 A 
ATOM     13  O   UNL     1      -0.321  11.919  21.429  0.00  0.00    +0.000 OA
ENDROOT
BRANCH   8  14
ATOM     14  C   UNL     1       2.834   5.738  20.116  0.00  0.00    +0.000 C 
BRANCH  14  15
ATOM     15  N   UNL     1       1.838   4.650  20.167  0.00  0.00    +0.000 NA
ATOM     16  C   UNL     1       1.586   4.095  18.826  0.00  0.00    +0.000 C 
ATOM     17  C   UNL     1       0.588   2.937  18.868  0.00  0.00    +0.000 C 
ATOM     18  C   UNL     1       1.056   1.843  19.816  0.00  0.00    +0.000 C 
ATOM     19  C   UNL     1       1.323   2.432  21.193  0.00  0.00    +0.000 C 
ATOM     20  C   UNL     1       2.294   3.610  21.110  0.00  0.00    +0.000 C 
ENDBRANCH  14  15
ENDBRANCH   8  14
BRANCH   9  21
ATOM     21  C   UNL     1       2.871   7.747  17.521  0.00  0.00    +0.000 C 
BRANCH  21  22
ATOM     22  C   UNL     1       4.383   7.454  17.470  0.00  0.00    +0.000 C 
BRANCH  22  23
ATOM     23  C   UNL     1       4.852   6.186  16.780  0.00  0.00    +0.000 A 
ATOM     24  C   UNL     1       5.368   6.288  15.473  0.00  0.00    +0.000 A 
ATOM     25  C   UNL     1       5.860   5.170  14.795  0.00  0.00    +0.000 A 
ATOM     26  C   UNL     1       5.857   3.926  15.419  0.00  0.00    +0.000 A 
ATOM     27  C   UNL     1       5.365   3.809  16.718  0.00  0.00    +0.000 A 
ATOM     28  C   UNL     1       4.875   4.927  17.400  0.00  0.00    +0.000 A 
ENDBRANCH  22  23
ENDBRANCH  21  22
ENDBRANCH   9  21
TORSDOF 5
ENDMDL
MODEL 6
REMARK VINA RESULT:      -6.9      1.299      1.467
REMARK  Name = 
REMARK  7 active torsions:
REMARK  status: ('A' for Active; 'I' for Inactive)
REMARK    1  A    between atoms: C_1  and  N_2
REMARK    2  A    between atoms: C_8  and  C_9
REMARK    3  A    between atoms: C_9  and  N_10
REMARK    4  A    between atoms: N_16  and  C_17
REMARK    5  A    between atoms: C_17  and  C_18
REMARK    6  A    between atoms: C_18  and  C_19
REMARK    7  A    between atoms: N_25  and  C_26
REMARK                            x       y       z     vdW  Elec       q    Type
REMARK                         _______ _______ _______ _____ _____    ______ ____
ROOT
ATOM      1  C   UNL     1       1.360  11.860  18.448  0.00  0.00    +0.000 C 
ATOM      2  N   UNL     1       1.355  10.596  19.157  0.00  0.00    +0.000 N 
ATOM      3  C   UNL     1       1.816   9.430  18.507  0.00  0.00    +0.000 A 
ATOM      4  O   UNL     1       2.248   9.423  17.359  0.00  0.00    +0.000 OA
ATOM      5  C   UNL     1       1.738   8.253  19.327  0.00  0.00    +0.000 A 
ATOM      6  C   UNL     1       1.274   8.319  20.605  0.00  0.00    +0.000 A 
ATOM      7  N   UNL     1       1.297   7.122  21.222  0.00  0.00    +0.000 NA
ATOM      8  C   UNL     1       1.793   6.269  20.345  0.00  0.00    +0.000 A 
ATOM      9  N   UNL     1       2.064   6.909  19.132  0.00  0.00    +0.000 N 
ATOM     10  N   UNL     1       0.848   9.478  21.202  0.00  0.00    +0.000 N 
ATOM     11  C   UNL     1       0.369   9.490  22.568  0.00  0.00    +0.000 C 
ATOM     12  C   UNL     1       0.877  10.660  20.482  0.00  0.00    +0.000 A 
ATOM     13  O   UNL     1       0.501  11.726  20.982  0.00  0.00    +0.000 OA
ENDROOT
BRANCH   8  14
ATOM     14  C   UNL     1       1.976   4.824  20.725  0.00  0.00    +0.000 C 
BRANCH  14  15
ATOM     15  N   UNL     1       2.663   3.995  19.715  0.00  0.00    +0.000 NA
ATOM     16  C   UNL     1       3.639   3.088  20.344  0.00  0.00    +0.000 C 
ATOM     17  C   UNL     1       4.327   2.190  19.313  0.00  0.00    +0.000 C 
ATOM     18  C   UNL     1       3.308   1.399  18.507  0.00  0.00    +0.000 C 
ATOM     19  C   UNL     1       2.301   2.347  17.874  0.00  0.00    +0.000 C 
ATOM     20  C   UNL     1       1.660   3.254  18.925  0.00  0.00    +0.000 C 
ENDBRANCH  14  15
ENDBRANCH   8  14
BRANCH   9  21
ATOM     21  C   UNL     1       2.655   6.362  17.906  0.00  0.00    +0.000 C 
BRANCH  21  22
ATOM     22  C   UNL     1       3.884   7.082  17.320  0.00  0.00    +0.000 C 
BRANCH  22  23
ATOM     23  C   UNL     1       5.261   6.697  17.832  0.00  0.00    +0.000 A 
ATOM     24  C   UNL     1       5.350   5.705  18.828  0.00  0.00    +0.000 A 
ATOM     25  C   UNL     1       6.586   5.269  19.312  0.00  0.00    +0.000 A 
ATOM     26  C   UNL     1       7.761   5.810  18.798  0.00  0.00    +0.000 A 
ATOM     27  C   UNL     1       7.692   6.781  17.801  0.00  0.00    +0.000 A 
ATOM     28  C   UNL     1       6.456   7.217  17.312  0.00  0.00    +0.000 A 
ENDBRANCH  22  23
ENDBRANCH  21  22
ENDBRANCH   9  21
TORSDOF 5
ENDMDL
MODEL 7
REMARK VINA RESULT:      -6.8      1.169      1.525
REMARK  Name = 
REMARK  7 active torsions:
REMARK  status: ('A' for Active; 'I' for Inactive)
REMARK    1  A    between atoms: C_1  and  N_2
REMARK    2  A    between atoms: C_8  and  C_9
REMARK    3  A    between atoms: C_9  and  N_10
REMARK    4  A    between atoms: N_16  and  C_17
REMARK    5  A    between atoms: C_17  and  C_18
REMARK    6  A    between atoms: C_18  and  C_19
REMARK    7  A    between atoms: N_25  and  C_26
REMARK                            x       y       z     vdW  Elec       q    Type
REMARK                         _______ _______ _______ _____ _____    ______ ____
ROOT
ATOM      1  C   UNL     1       0.201  12.462  19.283  0.00  0.00    +0.000 C 
ATOM      2  N   UNL     1       0.539  11.112  19.687  0.00  0.00    +0.000 N 
ATOM      3  C   UNL     1       1.383  10.330  18.867  0.00  0.00    +0.000 A 
ATOM      4  O   UNL     1       1.873  10.738  17.819  0.00  0.00    +0.000 OA
ATOM      5  C   UNL     1       1.617   9.012  19.386  0.00  0.00    +0.000 A 
ATOM      6  C   UNL     1       1.068   8.616  20.568  0.00  0.00    +0.000 A 
ATOM      7  N   UNL     1       1.419   7.358  20.902  0.00  0.00    +0.000 NA
ATOM      8  C   UNL     1       2.214   6.934  19.937  0.00  0.00    +0.000 A 
ATOM      9  N   UNL     1       2.356   7.911  18.947  0.00  0.00    +0.000 N 
ATOM     10  N   UNL     1       0.265   9.415  21.340  0.00  0.00    +0.000 N 
ATOM     11  C   UNL     1      -0.287   8.943  22.593  0.00  0.00    +0.000 C 
ATOM     12  C   UNL     1      -0.026  10.699  20.911  0.00  0.00    +0.000 A 
ATOM     13  O   UNL     1      -0.746  11.450  21.576  0.00  0.00    +0.000 OA
ENDROOT
BRANCH   8  14
ATOM     14  C   UNL     1       2.810   5.553  20.010  0.00  0.00    +0.000 C 
BRANCH  14  15
ATOM     15  N   UNL     1       2.124   4.533  19.192  0.00  0.00    +0.000 NA
ATOM     16  C   UNL     1       3.087   3.593  18.594  0.00  0.00    +0.000 C 
ATOM     17  C   UNL     1       2.388   2.504  17.779  0.00  0.00    +0.000 C 
ATOM     18  C   UNL     1       1.369   1.754  18.625  0.00  0.00    +0.000 C 
ATOM     19  C   UNL     1       0.388   2.738  19.246  0.00  0.00    +0.000 C 
ATOM     20  C   UNL     1       1.121   3.834  20.020  0.00  0.00    +0.000 C 
ENDBRANCH  14  15
ENDBRANCH   8  14
BRANCH   9  21
ATOM     21  C   UNL     1       3.170   7.884  17.728  0.00  0.00    +0.000 C 
BRANCH  21  22
ATOM     22  C   UNL     1       4.020   6.627  17.461  0.00  0.00    +0.000 C 
BRANCH  22  23
ATOM     23  C   UNL     1       5.498   6.665  17.807  0.00  0.00    +0.000 A 
ATOM     24  C   UNL     1       6.270   7.739  17.322  0.00  0.00    +0.000 A 
ATOM     25  C   UNL     1       7.625   7.863  17.639  0.00  0.00    +0.000 A 
ATOM     26  C   UNL     1       8.232   6.918  18.461  0.00  0.00    +0.000 A 
ATOM     27  C   UNL     1       7.480   5.857  18.962  0.00  0.00    +0.000 A 
ATOM     28  C   UNL     1       6.123   5.733  18.650  0.00  0.00    +0.000 A 
ENDBRANCH  22  23
ENDBRANCH  21  22
ENDBRANCH   9  21
TORSDOF 5
ENDMDL
MODEL 8
REMARK VINA RESULT:      -6.8      2.490      7.952
REMARK  Name = 
REMARK  7 active torsions:
REMARK  status: ('A' for Active; 'I' for Inactive)
REMARK    1  A    between atoms: C_1  and  N_2
REMARK    2  A    between atoms: C_8  and  C_9
REMARK    3  A    between atoms: C_9  and  N_10
REMARK    4  A    between atoms: N_16  and  C_17
REMARK    5  A    between atoms: C_17  and  C_18
REMARK    6  A    between atoms: C_18  and  C_19
REMARK    7  A    between atoms: N_25  and  C_26
REMARK                            x       y       z     vdW  Elec       q    Type
REMARK                         _______ _______ _______ _____ _____    ______ ____
ROOT
ATOM      1  C   UNL     1       3.534   3.224  20.049  0.00  0.00    +0.000 C 
ATOM      2  N   UNL     1       3.353   4.547  19.485  0.00  0.00    +0.000 N 
ATOM      3  C   UNL     1       2.485   5.464  20.119  0.00  0.00    +0.000 A 
ATOM      4  O   UNL     1       1.873   5.209  21.151  0.00  0.00    +0.000 OA
ATOM      5  C   UNL     1       2.396   6.725  19.440  0.00  0.00    +0.000 A 
ATOM      6  C   UNL     1       3.115   6.966  18.310  0.00  0.00    +0.000 A 
ATOM      7  N   UNL     1       2.919   8.210  17.831  0.00  0.00    +0.000 NA
ATOM      8  C   UNL     1       2.075   8.791  18.663  0.00  0.00    +0.000 A 
ATOM      9  N   UNL     1       1.689   7.908  19.675  0.00  0.00    +0.000 N 
ATOM     10  N   UNL     1       3.959   6.051  17.735  0.00  0.00    +0.000 N 
ATOM     11  C   UNL     1       4.706   6.363  16.535  0.00  0.00    +0.000 C 
ATOM     12  C   UNL     1       4.099   4.801  18.315  0.00  0.00    +0.000 A 
ATOM     13  O   UNL     1       4.847   3.947  17.829  0.00  0.00    +0.000 OA
ENDROOT
BRANCH   8  14
ATOM     14  C   UNL     1       1.654  10.218  18.427  0.00  0.00    +0.000 C 
BRANCH  14  15
ATOM     15  N   UNL     1       0.203  10.466  18.537  0.00  0.00    +0.000 NA
ATOM     16  C   UNL     1      -0.104  11.902  18.410  0.00  0.00    +0.000 C 
ATOM     17  C   UNL     1      -1.608  12.170  18.477  0.00  0.00    +0.000 C 
ATOM     18  C   UNL     1      -2.357  11.372  17.420  0.00  0.00    +0.000 C 
ATOM     19  C   UNL     1      -2.022   9.893  17.555  0.00  0.00    +0.000 C 
ATOM     20  C   UNL     1      -0.510   9.665  17.523  0.00  0.00    +0.000 C 
ENDBRANCH  14  15
ENDBRANCH   8  14
BRANCH   9  21
ATOM     21  C   UNL     1       0.807   8.140  20.823  0.00  0.00    +0.000 C 
BRANCH  21  22
ATOM     22  C   UNL     1       1.236   9.204  21.852  0.00  0.00    +0.000 C 
BRANCH  22  23
ATOM     23  C   UNL     1       0.298  10.365  22.126  0.00  0.00    +0.000 A 
ATOM     24  C   UNL     1      -0.827  10.137  22.944  0.00  0.00    +0.000 A 
ATOM     25  C   UNL     1      -1.707  11.170  23.276  0.00  0.00    +0.000 A 
ATOM     26  C   UNL     1      -1.472  12.458  22.804  0.00  0.00    +0.000 A 
ATOM     27  C   UNL     1      -0.356  12.705  22.007  0.00  0.00    +0.000 A 
ATOM     28  C   UNL     1       0.529  11.675  21.677  0.00  0.00    +0.000 A 
ENDBRANCH  22  23
ENDBRANCH  21  22
ENDBRANCH   9  21
TORSDOF 5
ENDMDL
MODEL 9
REMARK VINA RESULT:      -6.7      1.702      4.372
REMARK  Name = 
REMARK  7 active torsions:
REMARK  status: ('A' for Active; 'I' for Inactive)
REMARK    1  A    between atoms: C_1  and  N_2
REMARK    2  A    between atoms: C_8  and  C_9
REMARK    3  A    between atoms: C_9  and  N_10
REMARK    4  A    between atoms: N_16  and  C_17
REMARK    5  A    between atoms: C_17  and  C_18
REMARK    6  A    between atoms: C_18  and  C_19
REMARK    7  A    between atoms: N_25  and  C_26
REMARK                            x       y       z     vdW  Elec       q    Type
REMARK                         _______ _______ _______ _____ _____    ______ ____
ROOT
ATOM      1  C   UNL     1      -0.923  11.337  22.904  0.00  0.00    +0.000 C 
ATOM      2  N   UNL     1      -0.293  10.919  21.667  0.00  0.00    +0.000 N 
ATOM      3  C   UNL     1       0.393   9.684  21.617  0.00  0.00    +0.000 A 
ATOM      4  O   UNL     1       0.476   8.919  22.573  0.00  0.00    +0.000 OA
ATOM      5  C   UNL     1       0.978   9.411  20.335  0.00  0.00    +0.000 A 
ATOM      6  C   UNL     1       0.836  10.282  19.299  0.00  0.00    +0.000 A 
ATOM      7  N   UNL     1       1.432   9.844  18.173  0.00  0.00    +0.000 NA
ATOM      8  C   UNL     1       1.956   8.670  18.472  0.00  0.00    +0.000 A 
ATOM      9  N   UNL     1       1.729   8.354  19.815  0.00  0.00    +0.000 N 
ATOM     10  N   UNL     1       0.148  11.465  19.388  0.00  0.00    +0.000 N 
ATOM     11  C   UNL     1       0.024  12.353  18.251  0.00  0.00    +0.000 C 
ATOM     12  C   UNL     1      -0.439  11.818  20.592  0.00  0.00    +0.000 A 
ATOM     13  O   UNL     1      -1.066  12.875  20.715  0.00  0.00    +0.000 OA
ENDROOT
BRANCH   8  14
ATOM     14  C   UNL     1       2.687   7.885  17.415  0.00  0.00    +0.000 C 
BRANCH  14  15
ATOM     15  N   UNL     1       3.647   6.889  17.931  0.00  0.00    +0.000 NA
ATOM     16  C   UNL     1       3.183   5.515  17.668  0.00  0.00    +0.000 C 
ATOM     17  C   UNL     1       4.189   4.472  18.157  0.00  0.00    +0.000 C 
ATOM     18  C   UNL     1       5.560   4.697  17.536  0.00  0.00    +0.000 C 
ATOM     19  C   UNL     1       6.021   6.122  17.805  0.00  0.00    +0.000 C 
ATOM     20  C   UNL     1       4.977   7.137  17.339  0.00  0.00    +0.000 C 
ENDBRANCH  14  15
ENDBRANCH   8  14
BRANCH   9  21
ATOM     21  C   UNL     1       2.095   7.143  20.557  0.00  0.00    +0.000 C 
BRANCH  21  22
ATOM     22  C   UNL     1       1.007   6.073  20.763  0.00  0.00    +0.000 C 
BRANCH  22  23
ATOM     23  C   UNL     1       1.374   4.616  20.544  0.00  0.00    +0.000 A 
ATOM     24  C   UNL     1       2.231   3.996  21.475  0.00  0.00    +0.000 A 
ATOM     25  C   UNL     1       2.575   2.647  21.363  0.00  0.00    +0.000 A 
ATOM     26  C   UNL     1       2.055   1.885  20.320  0.00  0.00    +0.000 A 
ATOM     27  C   UNL     1       1.193   2.478  19.399  0.00  0.00    +0.000 A 
ATOM     28  C   UNL     1       0.845   3.827  19.511  0.00  0.00    +0.000 A 
ENDBRANCH  22  23
ENDBRANCH  21  22
ENDBRANCH   9  21
TORSDOF 5
ENDMDL
