MODEL 1
REMARK VINA RESULT:      -8.9      0.000      0.000
REMARK  Name = 
REMARK  2 active torsions:
REMARK  status: ('A' for Active; 'I' for Inactive)
REMARK    1  A    between atoms: C_1  and  C_2
REMARK    2  A    between atoms: C_13  and  C_14
REMARK                            x       y       z     vdW  Elec       q    Type
REMARK                         _______ _______ _______ _____ _____    ______ ____
ROOT
ATOM      1  C   UNL     1       1.694   1.991  19.373  0.00  0.00    +0.000 C 
ATOM      2  C   UNL     1       2.375   3.357  19.503  0.00  0.00    +0.000 C 
ATOM      3  C   UNL     1       1.587   4.280  20.472  0.00  0.00    +0.000 C 
ATOM      4  N   UNL     1       2.228   5.584  20.787  0.00  0.00    +0.000 N 
ATOM      5  C   UNL     1       2.353   6.516  19.787  0.00  0.00    +0.000 A 
ATOM      6  C   UNL     1       2.914   6.206  18.556  0.00  0.00    +0.000 A 
ATOM      7  S   UNL     1       3.121   7.577  17.585  0.00  0.00    +0.000 S 
ATOM      8  C   UNL     1       2.137   8.510  18.596  0.00  0.00    +0.000 A 
ATOM      9  C   UNL     1       1.687   9.755  18.193  0.00  0.00    +0.000 A 
ATOM     10  C   UNL     1       0.655  10.267  18.929  0.00  0.00    +0.000 A 
ATOM     11  C   UNL     1       0.352   9.717  20.113  0.00  0.00    +0.000 A 
ATOM     12  N   UNL     1      -0.642  10.397  20.580  0.00  0.00    +0.000 NA
ATOM     13  C   UNL     1      -0.721  10.721  21.852  0.00  0.00    +0.000 A 
ATOM     14  C   UNL     1       0.036   9.978  22.747  0.00  0.00    +0.000 A 
ATOM     15  C   UNL     1       0.834   8.886  22.223  0.00  0.00    +0.000 A 
ATOM     16  C   UNL     1       1.071   8.738  20.804  0.00  0.00    +0.000 A 
ATOM     17  C   UNL     1       1.836   7.901  19.838  0.00  0.00    +0.000 A 
ATOM     18  C   UNL     1       3.298   4.980  17.907  0.00  0.00    +0.000 C 
ATOM     19  O   UNL     1       4.148   4.878  17.018  0.00  0.00    +0.000 OA
ATOM     20  N   UNL     1       2.542   3.870  18.155  0.00  0.00    +0.000 N 
ATOM     21  H   UNL     1       3.108   5.399  21.271  0.00  0.00    +0.000 HD
ATOM     22  H   UNL     1       2.815   3.175  17.471  0.00  0.00    +0.000 HD
ENDROOT
BRANCH  13  23
ATOM     23  C   UNL     1      -1.557  11.941  21.893  0.00  0.00    +0.000 A 
ATOM     24  C   UNL     1      -2.276  12.216  23.101  0.00  0.00    +0.000 A 
ATOM     25  C   UNL     1      -3.199  13.239  23.222  0.00  0.00    +0.000 A 
ATOM     26  C   UNL     1      -3.397  14.014  22.109  0.00  0.00    +0.000 A 
ATOM     27  N   UNL     1      -2.789  13.790  20.915  0.00  0.00    +0.000 NA
ATOM     28  C   UNL     1      -1.907  12.747  20.830  0.00  0.00    +0.000 A 
ENDBRANCH  13  23
TORSDOF 1
ENDMDL
MODEL 2
REMARK VINA RESULT:      -8.6      2.169      3.423
REMARK  Name = 
REMARK  2 active torsions:
REMARK  status: ('A' for Active; 'I' for Inactive)
REMARK    1  A    between atoms: C_1  and  C_2
REMARK    2  A    between atoms: C_13  and  C_14
REMARK                            x       y       z     vdW  Elec       q    Type
REMARK                         _______ _______ _______ _____ _____    ______ ____
ROOT
ATOM      1  C   UNL     1       7.782   4.588  17.591  0.00  0.00    +0.000 C 
ATOM      2  C   UNL     1       6.252   4.577  17.667  0.00  0.00    +0.000 C 
ATOM      3  C   UNL     1       5.676   6.004  17.460  0.00  0.00    +0.000 C 
ATOM      4  N   UNL     1       4.195   6.096  17.373  0.00  0.00    +0.000 N 
ATOM      5  C   UNL     1       3.449   5.812  18.490  0.00  0.00    +0.000 A 
ATOM      6  C   UNL     1       3.625   4.642  19.217  0.00  0.00    +0.000 A 
ATOM      7  S   UNL     1       2.453   4.457  20.423  0.00  0.00    +0.000 S 
ATOM      8  C   UNL     1       1.952   6.064  20.261  0.00  0.00    +0.000 A 
ATOM      9  C   UNL     1       1.118   6.643  21.201  0.00  0.00    +0.000 A 
ATOM     10  C   UNL     1       1.045   8.008  21.153  0.00  0.00    +0.000 A 
ATOM     11  C   UNL     1       1.512   8.656  20.076  0.00  0.00    +0.000 A 
ATOM     12  N   UNL     1       1.310   9.912  20.299  0.00  0.00    +0.000 NA
ATOM     13  C   UNL     1       0.893  10.724  19.351  0.00  0.00    +0.000 A 
ATOM     14  C   UNL     1       1.083  10.318  18.038  0.00  0.00    +0.000 A 
ATOM     15  C   UNL     1       1.744   9.049  17.804  0.00  0.00    +0.000 A 
ATOM     16  C   UNL     1       1.952   8.098  18.873  0.00  0.00    +0.000 A 
ATOM     17  C   UNL     1       2.463   6.720  19.115  0.00  0.00    +0.000 A 
ATOM     18  C   UNL     1       4.611   3.594  19.208  0.00  0.00    +0.000 C 
ATOM     19  O   UNL     1       4.428   2.437  19.597  0.00  0.00    +0.000 OA
ATOM     20  N   UNL     1       5.902   3.942  18.925  0.00  0.00    +0.000 N 
ATOM     21  H   UNL     1       3.889   5.576  16.548  0.00  0.00    +0.000 HD
ATOM     22  H   UNL     1       6.477   3.144  19.169  0.00  0.00    +0.000 HD
ENDROOT
BRANCH  13  23
ATOM     23  C   UNL     1       0.201  11.824  20.056  0.00  0.00    +0.000 A 
ATOM     24  C   UNL     1      -0.006  11.685  21.467  0.00  0.00    +0.000 A 
ATOM     25  C   UNL     1      -0.761  12.569  22.217  0.00  0.00    +0.000 A 
ATOM     26  C   UNL     1      -1.310  13.627  21.539  0.00  0.00    +0.000 A 
ATOM     27  N   UNL     1      -1.197  13.804  20.197  0.00  0.00    +0.000 NA
ATOM     28  C   UNL     1      -0.469  12.887  19.488  0.00  0.00    +0.000 A 
ENDBRANCH  13  23
TORSDOF 1
ENDMDL
MODEL 3
REMARK VINA RESULT:      -8.1      3.364      8.515
REMARK  Name = 
REMARK  2 active torsions:
REMARK  status: ('A' for Active; 'I' for Inactive)
REMARK    1  A    between atoms: C_1  and  C_2
REMARK    2  A    between atoms: C_13  and  C_14
REMARK                            x       y       z     vdW  Elec       q    Type
REMARK                         _______ _______ _______ _____ _____    ______ ____
ROOT
ATOM      1  C   UNL     1      -5.748  12.442  19.079  0.00  0.00    +0.000 C 
ATOM      2  C   UNL     1      -4.296  12.645  19.525  0.00  0.00    +0.000 C 
ATOM      3  C   UNL     1      -3.330  11.758  18.692  0.00  0.00    +0.000 C 
ATOM      4  N   UNL     1      -1.881  11.974  18.939  0.00  0.00    +0.000 N 
ATOM      5  C   UNL     1      -1.361  11.626  20.161  0.00  0.00    +0.000 A 
ATOM      6  C   UNL     1      -1.926  12.058  21.353  0.00  0.00    +0.000 A 
ATOM      7  S   UNL     1      -0.980  11.646  22.695  0.00  0.00    +0.000 S 
ATOM      8  C   UNL     1      -0.041  10.581  21.775  0.00  0.00    +0.000 A 
ATOM      9  C   UNL     1       0.820   9.688  22.389  0.00  0.00    +0.000 A 
ATOM     10  C   UNL     1       1.271   8.673  21.591  0.00  0.00    +0.000 A 
ATOM     11  C   UNL     1       1.113   8.758  20.263  0.00  0.00    +0.000 A 
ATOM     12  N   UNL     1       1.630   7.681  19.771  0.00  0.00    +0.000 NA
ATOM     13  C   UNL     1       2.349   7.700  18.669  0.00  0.00    +0.000 A 
ATOM     14  C   UNL     1       2.190   8.790  17.825  0.00  0.00    +0.000 A 
ATOM     15  C   UNL     1       1.232   9.811  18.201  0.00  0.00    +0.000 A 
ATOM     16  C   UNL     1       0.662   9.859  19.529  0.00  0.00    +0.000 A 
ATOM     17  C   UNL     1      -0.231  10.696  20.377  0.00  0.00    +0.000 A 
ATOM     18  C   UNL     1      -3.157  12.718  21.699  0.00  0.00    +0.000 C 
ATOM     19  O   UNL     1      -3.340  13.404  22.709  0.00  0.00    +0.000 OA
ATOM     20  N   UNL     1      -4.265  12.420  20.959  0.00  0.00    +0.000 N 
ATOM     21  H   UNL     1      -1.648  12.930  18.665  0.00  0.00    +0.000 HD
ATOM     22  H   UNL     1      -5.060  12.797  21.462  0.00  0.00    +0.000 HD
ENDROOT
BRANCH  13  23
ATOM     23  C   UNL     1       3.242   6.525  18.766  0.00  0.00    +0.000 A 
ATOM     24  C   UNL     1       4.232   6.355  17.745  0.00  0.00    +0.000 A 
ATOM     25  C   UNL     1       5.032   5.232  17.639  0.00  0.00    +0.000 A 
ATOM     26  C   UNL     1       4.845   4.260  18.589  0.00  0.00    +0.000 A 
ATOM     27  N   UNL     1       3.898   4.326  19.560  0.00  0.00    +0.000 NA
ATOM     28  C   UNL     1       3.106   5.442  19.609  0.00  0.00    +0.000 A 
ENDBRANCH  13  23
TORSDOF 1
ENDMDL
MODEL 4
REMARK VINA RESULT:      -8.1      3.280      8.353
REMARK  Name = 
REMARK  2 active torsions:
REMARK  status: ('A' for Active; 'I' for Inactive)
REMARK    1  A    between atoms: C_1  and  C_2
REMARK    2  A    between atoms: C_13  and  C_14
REMARK                            x       y       z     vdW  Elec       q    Type
REMARK                         _______ _______ _______ _____ _____    ______ ____
ROOT
ATOM      1  C   UNL     1      -4.758  11.776  17.311  0.00  0.00    +0.000 C 
ATOM      2  C   UNL     1      -3.371  11.956  17.936  0.00  0.00    +0.000 C 
ATOM      3  C   UNL     1      -2.356  10.946  17.334  0.00  0.00    +0.000 C 
ATOM      4  N   UNL     1      -0.943  11.119  17.762  0.00  0.00    +0.000 N 
ATOM      5  C   UNL     1      -0.615  10.874  19.072  0.00  0.00    +0.000 A 
ATOM      6  C   UNL     1      -1.310  11.449  20.127  0.00  0.00    +0.000 A 
ATOM      7  S   UNL     1      -0.581  11.132  21.621  0.00  0.00    +0.000 S 
ATOM      8  C   UNL     1       0.408   9.937  20.947  0.00  0.00    +0.000 A 
ATOM      9  C   UNL     1       1.124   9.072  21.757  0.00  0.00    +0.000 A 
ATOM     10  C   UNL     1       1.617   7.962  21.130  0.00  0.00    +0.000 A 
ATOM     11  C   UNL     1       1.646   7.920  19.790  0.00  0.00    +0.000 A 
ATOM     12  N   UNL     1       2.161   6.776  19.479  0.00  0.00    +0.000 NA
ATOM     13  C   UNL     1       3.022   6.650  18.493  0.00  0.00    +0.000 A 
ATOM     14  C   UNL     1       3.045   7.655  17.536  0.00  0.00    +0.000 A 
ATOM     15  C   UNL     1       2.107   8.752  17.676  0.00  0.00    +0.000 A 
ATOM     16  C   UNL     1       1.366   8.960  18.900  0.00  0.00    +0.000 A 
ATOM     17  C   UNL     1       0.417   9.919  19.532  0.00  0.00    +0.000 A 
ATOM     18  C   UNL     1      -2.535  12.197  20.233  0.00  0.00    +0.000 C 
ATOM     19  O   UNL     1      -2.813  12.989  21.138  0.00  0.00    +0.000 OA
ATOM     20  N   UNL     1      -3.548  11.877  19.374  0.00  0.00    +0.000 N 
ATOM     21  H   UNL     1      -0.618  12.031  17.435  0.00  0.00    +0.000 HD
ATOM     22  H   UNL     1      -4.380  12.338  19.723  0.00  0.00    +0.000 HD
ENDROOT
BRANCH  13  23
ATOM     23  C   UNL     1       3.823   5.451  18.824  0.00  0.00    +0.000 A 
ATOM     24  C   UNL     1       3.120   4.281  19.259  0.00  0.00    +0.000 A 
ATOM     25  C   UNL     1       3.752   3.146  19.732  0.00  0.00    +0.000 A 
ATOM     26  C   UNL     1       5.123   3.178  19.758  0.00  0.00    +0.000 A 
ATOM     27  N   UNL     1       5.859   4.264  19.406  0.00  0.00    +0.000 NA
ATOM     28  C   UNL     1       5.192   5.378  18.974  0.00  0.00    +0.000 A 
ENDBRANCH  13  23
TORSDOF 1
ENDMDL
MODEL 5
REMARK VINA RESULT:      -7.7      1.212      1.436
REMARK  Name = 
REMARK  2 active torsions:
REMARK  status: ('A' for Active; 'I' for Inactive)
REMARK    1  A    between atoms: C_1  and  C_2
REMARK    2  A    between atoms: C_13  and  C_14
REMARK                            x       y       z     vdW  Elec       q    Type
REMARK                         _______ _______ _______ _____ _____    ______ ____
ROOT
ATOM      1  C   UNL     1       3.151   1.365  18.853  0.00  0.00    +0.000 C 
ATOM      2  C   UNL     1       3.716   2.781  19.009  0.00  0.00    +0.000 C 
ATOM      3  C   UNL     1       2.784   3.656  19.892  0.00  0.00    +0.000 C 
ATOM      4  N   UNL     1       3.299   5.008  20.231  0.00  0.00    +0.000 N 
ATOM      5  C   UNL     1       3.437   5.933  19.225  0.00  0.00    +0.000 A 
ATOM      6  C   UNL     1       4.118   5.649  18.050  0.00  0.00    +0.000 A 
ATOM      7  S   UNL     1       4.302   7.017  17.071  0.00  0.00    +0.000 S 
ATOM      8  C   UNL     1       3.173   7.887  17.980  0.00  0.00    +0.000 A 
ATOM      9  C   UNL     1       2.667   9.089  17.516  0.00  0.00    +0.000 A 
ATOM     10  C   UNL     1       1.542   9.533  18.155  0.00  0.00    +0.000 A 
ATOM     11  C   UNL     1       1.185   8.978  19.322  0.00  0.00    +0.000 A 
ATOM     12  N   UNL     1       0.108   9.588  19.693  0.00  0.00    +0.000 NA
ATOM     13  C   UNL     1      -0.099   9.924  20.948  0.00  0.00    +0.000 A 
ATOM     14  C   UNL     1       0.635   9.252  21.916  0.00  0.00    +0.000 A 
ATOM     15  C   UNL     1       1.552   8.217  21.481  0.00  0.00    +0.000 A 
ATOM     16  C   UNL     1       1.915   8.066  20.090  0.00  0.00    +0.000 A 
ATOM     17  C   UNL     1       2.816   7.275  19.206  0.00  0.00    +0.000 A 
ATOM     18  C   UNL     1       4.644   4.446  17.460  0.00  0.00    +0.000 C 
ATOM     19  O   UNL     1       5.570   4.395  16.645  0.00  0.00    +0.000 OA
ATOM     20  N   UNL     1       3.955   3.285  17.669  0.00  0.00    +0.000 N 
ATOM     21  H   UNL     1       4.149   4.898  20.788  0.00  0.00    +0.000 HD
ATOM     22  H   UNL     1       4.334   2.603  17.023  0.00  0.00    +0.000 HD
ENDROOT
BRANCH  13  23
ATOM     23  C   UNL     1      -1.024  11.077  20.896  0.00  0.00    +0.000 A 
ATOM     24  C   UNL     1      -1.369  11.711  22.133  0.00  0.00    +0.000 A 
ATOM     25  C   UNL     1      -2.327  12.703  22.239  0.00  0.00    +0.000 A 
ATOM     26  C   UNL     1      -2.946  13.078  21.075  0.00  0.00    +0.000 A 
ATOM     27  N   UNL     1      -2.708  12.495  19.872  0.00  0.00    +0.000 NA
ATOM     28  C   UNL     1      -1.774  11.495  19.817  0.00  0.00    +0.000 A 
ENDBRANCH  13  23
TORSDOF 1
ENDMDL
MODEL 6
REMARK VINA RESULT:      -7.5      3.215      8.322
REMARK  Name = 
REMARK  2 active torsions:
REMARK  status: ('A' for Active; 'I' for Inactive)
REMARK    1  A    between atoms: C_1  and  C_2
REMARK    2  A    between atoms: C_13  and  C_14
REMARK                            x       y       z     vdW  Elec       q    Type
REMARK                         _______ _______ _______ _____ _____    ______ ____
ROOT
ATOM      1  C   UNL     1      -4.430  11.746  17.098  0.00  0.00    +0.000 C 
ATOM      2  C   UNL     1      -3.005  11.845  17.652  0.00  0.00    +0.000 C 
ATOM      3  C   UNL     1      -2.173  10.589  17.274  0.00  0.00    +0.000 C 
ATOM      4  N   UNL     1      -0.732  10.636  17.637  0.00  0.00    +0.000 N 
ATOM      5  C   UNL     1      -0.386  10.631  18.965  0.00  0.00    +0.000 A 
ATOM      6  C   UNL     1      -0.944  11.516  19.877  0.00  0.00    +0.000 A 
ATOM      7  S   UNL     1      -0.203  11.422  21.396  0.00  0.00    +0.000 S 
ATOM      8  C   UNL     1       0.574   9.976  20.988  0.00  0.00    +0.000 A 
ATOM      9  C   UNL     1       1.193   9.208  21.958  0.00  0.00    +0.000 A 
ATOM     10  C   UNL     1       1.493   7.927  21.583  0.00  0.00    +0.000 A 
ATOM     11  C   UNL     1       1.457   7.595  20.285  0.00  0.00    +0.000 A 
ATOM     12  N   UNL     1       1.787   6.347  20.226  0.00  0.00    +0.000 NA
ATOM     13  C   UNL     1       2.577   5.885  19.281  0.00  0.00    +0.000 A 
ATOM     14  C   UNL     1       2.702   6.647  18.127  0.00  0.00    +0.000 A 
ATOM     15  C   UNL     1       1.939   7.876  18.035  0.00  0.00    +0.000 A 
ATOM     16  C   UNL     1       1.290   8.450  19.192  0.00  0.00    +0.000 A 
ATOM     17  C   UNL     1       0.518   9.653  19.610  0.00  0.00    +0.000 A 
ATOM     18  C   UNL     1      -2.042  12.445  19.831  0.00  0.00    +0.000 C 
ATOM     19  O   UNL     1      -2.163  13.445  20.544  0.00  0.00    +0.000 OA
ATOM     20  N   UNL     1      -3.128  12.104  19.076  0.00  0.00    +0.000 N 
ATOM     21  H   UNL     1      -0.295  11.398  17.115  0.00  0.00    +0.000 HD
ATOM     22  H   UNL     1      -3.869  12.749  19.325  0.00  0.00    +0.000 HD
ENDROOT
BRANCH  13  23
ATOM     23  C   UNL     1       3.211   4.679  19.857  0.00  0.00    +0.000 A 
ATOM     24  C   UNL     1       4.343   4.129  19.172  0.00  0.00    +0.000 A 
ATOM     25  C   UNL     1       4.936   2.931  19.523  0.00  0.00    +0.000 A 
ATOM     26  C   UNL     1       4.392   2.273  20.595  0.00  0.00    +0.000 A 
ATOM     27  N   UNL     1       3.293   2.705  21.267  0.00  0.00    +0.000 NA
ATOM     28  C   UNL     1       2.717   3.880  20.867  0.00  0.00    +0.000 A 
ENDBRANCH  13  23
TORSDOF 1
ENDMDL
