MODEL 1
REMARK VINA RESULT:      -8.0      0.000      0.000
REMARK  Name = 
REMARK  2 active torsions:
REMARK  status: ('A' for Active; 'I' for Inactive)
REMARK    1  A    between atoms: O_1  and  C_2
REMARK    2  A    between atoms: C_6  and  C_7
REMARK                            x       y       z     vdW  Elec       q    Type
REMARK                         _______ _______ _______ _____ _____    ______ ____
ROOT
ATOM      1  C   UNL     1       6.900   4.984  15.165  0.00  0.00    +0.000 A 
ATOM      2  N   UNL     1       5.582   4.793  14.910  0.00  0.00    +0.000 NA
ATOM      3  N   UNL     1       4.758   4.458  15.898  0.00  0.00    +0.000 NA
ATOM      4  C   UNL     1       5.315   4.332  17.130  0.00  0.00    +0.000 A 
ATOM      5  C   UNL     1       4.809   4.012  18.421  0.00  0.00    +0.000 A 
ATOM      6  N   UNL     1       5.802   4.044  19.338  0.00  0.00    +0.000 NA
ATOM      7  N   UNL     1       6.906   4.350  18.623  0.00  0.00    +0.000 N 
ATOM      8  C   UNL     1       6.667   4.544  17.299  0.00  0.00    +0.000 A 
ATOM      9  N   UNL     1       7.548   4.880  16.338  0.00  0.00    +0.000 NA
ATOM     10  H   UNL     1       7.797   4.418  19.099  0.00  0.00    +0.000 HD
ENDROOT
BRANCH   5  11
ATOM     11  C   UNL     1       3.432   3.690  18.798  0.00  0.00    +0.000 A 
ATOM     12  C   UNL     1       2.760   2.604  18.218  0.00  0.00    +0.000 A 
ATOM     13  C   UNL     1       1.446   2.302  18.584  0.00  0.00    +0.000 A 
ATOM     14  C   UNL     1       0.787   3.085  19.530  0.00  0.00    +0.000 A 
ATOM     15  C   UNL     1       1.441   4.167  20.114  0.00  0.00    +0.000 A 
ATOM     16  C   UNL     1       2.758   4.466  19.753  0.00  0.00    +0.000 A 
ENDBRANCH   5  11
BRANCH   1  17
ATOM     17  O   UNL     1       7.651   5.337  14.083  0.00  0.00    +0.000 OA
ATOM     18  H   UNL     1       6.987   5.817  13.559  0.00  0.00    +0.000 HD
ENDBRANCH   1  17
TORSDOF 2
ENDMDL
MODEL 2
REMARK VINA RESULT:      -7.9      0.040      1.207
REMARK  Name = 
REMARK  2 active torsions:
REMARK  status: ('A' for Active; 'I' for Inactive)
REMARK    1  A    between atoms: O_1  and  C_2
REMARK    2  A    between atoms: C_6  and  C_7
REMARK                            x       y       z     vdW  Elec       q    Type
REMARK                         _______ _______ _______ _____ _____    ______ ____
ROOT
ATOM      1  C   UNL     1       6.914   4.965  15.150  0.00  0.00    +0.000 A 
ATOM      2  N   UNL     1       5.595   4.767  14.901  0.00  0.00    +0.000 NA
ATOM      3  N   UNL     1       4.777   4.436  15.895  0.00  0.00    +0.000 NA
ATOM      4  C   UNL     1       5.339   4.321  17.126  0.00  0.00    +0.000 A 
ATOM      5  C   UNL     1       4.840   4.009  18.421  0.00  0.00    +0.000 A 
ATOM      6  N   UNL     1       5.836   4.052  19.334  0.00  0.00    +0.000 NA
ATOM      7  N   UNL     1       6.936   4.358  18.613  0.00  0.00    +0.000 N 
ATOM      8  C   UNL     1       6.691   4.541  17.288  0.00  0.00    +0.000 A 
ATOM      9  N   UNL     1       7.566   4.873  16.321  0.00  0.00    +0.000 NA
ATOM     10  H   UNL     1       7.829   4.432  19.084  0.00  0.00    +0.000 HD
ENDROOT
BRANCH   5  11
ATOM     11  C   UNL     1       3.465   3.684  18.806  0.00  0.00    +0.000 A 
ATOM     12  C   UNL     1       2.795   4.431  19.786  0.00  0.00    +0.000 A 
ATOM     13  C   UNL     1       1.482   4.115  20.148  0.00  0.00    +0.000 A 
ATOM     14  C   UNL     1       0.828   3.048  19.537  0.00  0.00    +0.000 A 
ATOM     15  C   UNL     1       1.480   2.297  18.563  0.00  0.00    +0.000 A 
ATOM     16  C   UNL     1       2.791   2.616  18.195  0.00  0.00    +0.000 A 
ENDBRANCH   5  11
BRANCH   1  17
ATOM     17  O   UNL     1       7.659   5.314  14.062  0.00  0.00    +0.000 OA
ATOM     18  H   UNL     1       7.770   4.445  13.641  0.00  0.00    +0.000 HD
ENDBRANCH   1  17
TORSDOF 2
ENDMDL
MODEL 3
REMARK VINA RESULT:      -7.4      1.717      2.316
REMARK  Name = 
REMARK  2 active torsions:
REMARK  status: ('A' for Active; 'I' for Inactive)
REMARK    1  A    between atoms: O_1  and  C_2
REMARK    2  A    between atoms: C_6  and  C_7
REMARK                            x       y       z     vdW  Elec       q    Type
REMARK                         _______ _______ _______ _____ _____    ______ ____
ROOT
ATOM      1  C   UNL     1       6.493   5.309  15.644  0.00  0.00    +0.000 A 
ATOM      2  N   UNL     1       6.134   4.100  16.143  0.00  0.00    +0.000 NA
ATOM      3  N   UNL     1       5.106   4.009  16.981  0.00  0.00    +0.000 NA
ATOM      4  C   UNL     1       4.469   5.170  17.281  0.00  0.00    +0.000 A 
ATOM      5  C   UNL     1       3.352   5.509  18.096  0.00  0.00    +0.000 A 
ATOM      6  N   UNL     1       3.105   6.837  18.029  0.00  0.00    +0.000 NA
ATOM      7  N   UNL     1       4.067   7.314  17.210  0.00  0.00    +0.000 N 
ATOM      8  C   UNL     1       4.902   6.356  16.726  0.00  0.00    +0.000 A 
ATOM      9  N   UNL     1       5.936   6.509  15.879  0.00  0.00    +0.000 NA
ATOM     10  H   UNL     1       4.100   8.307  17.016  0.00  0.00    +0.000 HD
ENDROOT
BRANCH   5  11
ATOM     11  C   UNL     1       2.526   4.619  18.914  0.00  0.00    +0.000 A 
ATOM     12  C   UNL     1       2.549   4.700  20.314  0.00  0.00    +0.000 A 
ATOM     13  C   UNL     1       1.757   3.848  21.089  0.00  0.00    +0.000 A 
ATOM     14  C   UNL     1       0.939   2.903  20.472  0.00  0.00    +0.000 A 
ATOM     15  C   UNL     1       0.907   2.811  19.084  0.00  0.00    +0.000 A 
ATOM     16  C   UNL     1       1.694   3.667  18.307  0.00  0.00    +0.000 A 
ENDBRANCH   5  11
BRANCH   1  17
ATOM     17  O   UNL     1       7.552   5.285  14.784  0.00  0.00    +0.000 OA
ATOM     18  H   UNL     1       8.207   5.783  15.300  0.00  0.00    +0.000 HD
ENDBRANCH   1  17
TORSDOF 2
ENDMDL
MODEL 4
REMARK VINA RESULT:      -7.4      1.722      2.042
REMARK  Name = 
REMARK  2 active torsions:
REMARK  status: ('A' for Active; 'I' for Inactive)
REMARK    1  A    between atoms: O_1  and  C_2
REMARK    2  A    between atoms: C_6  and  C_7
REMARK                            x       y       z     vdW  Elec       q    Type
REMARK                         _______ _______ _______ _____ _____    ______ ____
ROOT
ATOM      1  C   UNL     1       6.473   5.311  15.641  0.00  0.00    +0.000 A 
ATOM      2  N   UNL     1       6.130   4.103  16.156  0.00  0.00    +0.000 NA
ATOM      3  N   UNL     1       5.111   4.011  17.004  0.00  0.00    +0.000 NA
ATOM      4  C   UNL     1       4.466   5.169  17.299  0.00  0.00    +0.000 A 
ATOM      5  C   UNL     1       3.354   5.506  18.121  0.00  0.00    +0.000 A 
ATOM      6  N   UNL     1       3.095   6.831  18.045  0.00  0.00    +0.000 NA
ATOM      7  N   UNL     1       4.045   7.309  17.213  0.00  0.00    +0.000 N 
ATOM      8  C   UNL     1       4.884   6.354  16.729  0.00  0.00    +0.000 A 
ATOM      9  N   UNL     1       5.908   6.508  15.871  0.00  0.00    +0.000 NA
ATOM     10  H   UNL     1       4.067   8.300  17.008  0.00  0.00    +0.000 HD
ENDROOT
BRANCH   5  11
ATOM     11  C   UNL     1       2.544   4.616  18.956  0.00  0.00    +0.000 A 
ATOM     12  C   UNL     1       1.674   3.681  18.379  0.00  0.00    +0.000 A 
ATOM     13  C   UNL     1       0.905   2.834  19.182  0.00  0.00    +0.000 A 
ATOM     14  C   UNL     1       0.995   2.918  20.570  0.00  0.00    +0.000 A 
ATOM     15  C   UNL     1       1.854   3.842  21.157  0.00  0.00    +0.000 A 
ATOM     16  C   UNL     1       2.629   4.685  20.355  0.00  0.00    +0.000 A 
ENDBRANCH   5  11
BRANCH   1  17
ATOM     17  O   UNL     1       7.524   5.288  14.772  0.00  0.00    +0.000 OA
ATOM     18  H   UNL     1       7.457   6.181  14.394  0.00  0.00    +0.000 HD
ENDBRANCH   1  17
TORSDOF 2
ENDMDL
MODEL 5
REMARK VINA RESULT:      -7.3      2.890      5.577
REMARK  Name = 
REMARK  2 active torsions:
REMARK  status: ('A' for Active; 'I' for Inactive)
REMARK    1  A    between atoms: O_1  and  C_2
REMARK    2  A    between atoms: C_6  and  C_7
REMARK                            x       y       z     vdW  Elec       q    Type
REMARK                         _______ _______ _______ _____ _____    ______ ____
ROOT
ATOM      1  C   UNL     1       4.244   5.454  19.087  0.00  0.00    +0.000 A 
ATOM      2  N   UNL     1       3.694   5.539  17.850  0.00  0.00    +0.000 NA
ATOM      3  N   UNL     1       4.433   5.274  16.778  0.00  0.00    +0.000 NA
ATOM      4  C   UNL     1       5.725   4.923  17.008  0.00  0.00    +0.000 A 
ATOM      5  C   UNL     1       6.819   4.558  16.175  0.00  0.00    +0.000 A 
ATOM      6  N   UNL     1       7.908   4.272  16.924  0.00  0.00    +0.000 NA
ATOM      7  N   UNL     1       7.502   4.482  18.195  0.00  0.00    +0.000 N 
ATOM      8  C   UNL     1       6.201   4.862  18.301  0.00  0.00    +0.000 A 
ATOM      9  N   UNL     1       5.503   5.123  19.421  0.00  0.00    +0.000 NA
ATOM     10  H   UNL     1       8.162   4.345  18.951  0.00  0.00    +0.000 HD
ENDROOT
BRANCH   5  11
ATOM     11  C   UNL     1       6.853   4.470  14.714  0.00  0.00    +0.000 A 
ATOM     12  C   UNL     1       6.021   3.575  14.026  0.00  0.00    +0.000 A 
ATOM     13  C   UNL     1       6.058   3.497  12.631  0.00  0.00    +0.000 A 
ATOM     14  C   UNL     1       6.931   4.309  11.910  0.00  0.00    +0.000 A 
ATOM     15  C   UNL     1       7.763   5.202  12.580  0.00  0.00    +0.000 A 
ATOM     16  C   UNL     1       7.723   5.286  13.975  0.00  0.00    +0.000 A 
ENDBRANCH   5  11
BRANCH   1  17
ATOM     17  O   UNL     1       3.393   5.733  20.116  0.00  0.00    +0.000 OA
ATOM     18  H   UNL     1       3.745   6.591  20.406  0.00  0.00    +0.000 HD
ENDBRANCH   1  17
TORSDOF 2
ENDMDL
MODEL 6
REMARK VINA RESULT:      -7.3      1.282      1.814
REMARK  Name = 
REMARK  2 active torsions:
REMARK  status: ('A' for Active; 'I' for Inactive)
REMARK    1  A    between atoms: O_1  and  C_2
REMARK    2  A    between atoms: C_6  and  C_7
REMARK                            x       y       z     vdW  Elec       q    Type
REMARK                         _______ _______ _______ _____ _____    ______ ____
ROOT
ATOM      1  C   UNL     1       6.913   5.197  14.948  0.00  0.00    +0.000 A 
ATOM      2  N   UNL     1       5.610   5.574  14.986  0.00  0.00    +0.000 NA
ATOM      3  N   UNL     1       4.939   5.518  16.132  0.00  0.00    +0.000 NA
ATOM      4  C   UNL     1       5.630   5.078  17.215  0.00  0.00    +0.000 A 
ATOM      5  C   UNL     1       5.308   4.884  18.587  0.00  0.00    +0.000 A 
ATOM      6  N   UNL     1       6.389   4.440  19.268  0.00  0.00    +0.000 NA
ATOM      7  N   UNL     1       7.353   4.334  18.328  0.00  0.00    +0.000 N 
ATOM      8  C   UNL     1       6.954   4.715  17.085  0.00  0.00    +0.000 A 
ATOM      9  N   UNL     1       7.682   4.746  15.954  0.00  0.00    +0.000 NA
ATOM     10  H   UNL     1       8.269   3.999  18.598  0.00  0.00    +0.000 HD
ENDROOT
BRANCH   5  11
ATOM     11  C   UNL     1       4.026   5.113  19.257  0.00  0.00    +0.000 A 
ATOM     12  C   UNL     1       3.407   6.371  19.219  0.00  0.00    +0.000 A 
ATOM     13  C   UNL     1       2.183   6.581  19.859  0.00  0.00    +0.000 A 
ATOM     14  C   UNL     1       1.567   5.538  20.548  0.00  0.00    +0.000 A 
ATOM     15  C   UNL     1       2.171   4.284  20.595  0.00  0.00    +0.000 A 
ATOM     16  C   UNL     1       3.392   4.070  19.949  0.00  0.00    +0.000 A 
ENDBRANCH   5  11
BRANCH   1  17
ATOM     17  O   UNL     1       7.508   5.306  13.726  0.00  0.00    +0.000 OA
ATOM     18  H   UNL     1       7.974   6.152  13.834  0.00  0.00    +0.000 HD
ENDBRANCH   1  17
TORSDOF 2
ENDMDL
MODEL 7
REMARK VINA RESULT:      -7.1      3.926      5.778
REMARK  Name = 
REMARK  2 active torsions:
REMARK  status: ('A' for Active; 'I' for Inactive)
REMARK    1  A    between atoms: O_1  and  C_2
REMARK    2  A    between atoms: C_6  and  C_7
REMARK                            x       y       z     vdW  Elec       q    Type
REMARK                         _______ _______ _______ _____ _____    ______ ____
ROOT
ATOM      1  C   UNL     1       7.649   5.389  19.122  0.00  0.00    +0.000 A 
ATOM      2  N   UNL     1       8.250   4.503  18.289  0.00  0.00    +0.000 NA
ATOM      3  N   UNL     1       7.857   4.415  17.022  0.00  0.00    +0.000 NA
ATOM      4  C   UNL     1       6.853   5.248  16.643  0.00  0.00    +0.000 A 
ATOM      5  C   UNL     1       6.164   5.481  15.420  0.00  0.00    +0.000 A 
ATOM      6  N   UNL     1       5.243   6.459  15.576  0.00  0.00    +0.000 NA
ATOM      7  N   UNL     1       5.343   6.805  16.878  0.00  0.00    +0.000 N 
ATOM      8  C   UNL     1       6.299   6.118  17.558  0.00  0.00    +0.000 A 
ATOM      9  N   UNL     1       6.652   6.248  18.850  0.00  0.00    +0.000 NA
ATOM     10  H   UNL     1       4.731   7.523  17.244  0.00  0.00    +0.000 HD
ENDROOT
BRANCH   5  11
ATOM     11  C   UNL     1       6.359   4.816  14.130  0.00  0.00    +0.000 A 
ATOM     12  C   UNL     1       7.446   5.143  13.307  0.00  0.00    +0.000 A 
ATOM     13  C   UNL     1       7.626   4.503  12.078  0.00  0.00    +0.000 A 
ATOM     14  C   UNL     1       6.720   3.532  11.657  0.00  0.00    +0.000 A 
ATOM     15  C   UNL     1       5.636   3.197  12.464  0.00  0.00    +0.000 A 
ATOM     16  C   UNL     1       5.458   3.832  13.697  0.00  0.00    +0.000 A 
ENDBRANCH   5  11
BRANCH   1  17
ATOM     17  O   UNL     1       8.139   5.405  20.395  0.00  0.00    +0.000 OA
ATOM     18  H   UNL     1       7.866   6.294  20.675  0.00  0.00    +0.000 HD
ENDBRANCH   1  17
TORSDOF 2
ENDMDL
MODEL 8
REMARK VINA RESULT:      -7.1      3.925      5.728
REMARK  Name = 
REMARK  2 active torsions:
REMARK  status: ('A' for Active; 'I' for Inactive)
REMARK    1  A    between atoms: O_1  and  C_2
REMARK    2  A    between atoms: C_6  and  C_7
REMARK                            x       y       z     vdW  Elec       q    Type
REMARK                         _______ _______ _______ _____ _____    ______ ____
ROOT
ATOM      1  C   UNL     1       7.644   5.399  19.079  0.00  0.00    +0.000 A 
ATOM      2  N   UNL     1       8.233   4.499  18.253  0.00  0.00    +0.000 NA
ATOM      3  N   UNL     1       7.832   4.399  16.990  0.00  0.00    +0.000 NA
ATOM      4  C   UNL     1       6.832   5.235  16.607  0.00  0.00    +0.000 A 
ATOM      5  C   UNL     1       6.137   5.460  15.386  0.00  0.00    +0.000 A 
ATOM      6  N   UNL     1       5.225   6.447  15.536  0.00  0.00    +0.000 NA
ATOM      7  N   UNL     1       5.336   6.807  16.833  0.00  0.00    +0.000 N 
ATOM      8  C   UNL     1       6.290   6.121  17.516  0.00  0.00    +0.000 A 
ATOM      9  N   UNL     1       6.653   6.262  18.804  0.00  0.00    +0.000 NA
ATOM     10  H   UNL     1       4.731   7.534  17.195  0.00  0.00    +0.000 HD
ENDROOT
BRANCH   5  11
ATOM     11  C   UNL     1       6.319   4.778  14.103  0.00  0.00    +0.000 A 
ATOM     12  C   UNL     1       5.393   3.826  13.655  0.00  0.00    +0.000 A 
ATOM     13  C   UNL     1       5.572   3.179  12.429  0.00  0.00    +0.000 A 
ATOM     14  C   UNL     1       6.683   3.475  11.641  0.00  0.00    +0.000 A 
ATOM     15  C   UNL     1       7.612   4.417  12.073  0.00  0.00    +0.000 A 
ATOM     16  C   UNL     1       7.430   5.069  13.297  0.00  0.00    +0.000 A 
ENDBRANCH   5  11
BRANCH   1  17
ATOM     17  O   UNL     1       8.143   5.426  20.349  0.00  0.00    +0.000 OA
ATOM     18  H   UNL     1       7.371   5.107  20.846  0.00  0.00    +0.000 HD
ENDBRANCH   1  17
TORSDOF 2
ENDMDL
MODEL 9
REMARK VINA RESULT:      -7.0      2.569      5.703
REMARK  Name = 
REMARK  2 active torsions:
REMARK  status: ('A' for Active; 'I' for Inactive)
REMARK    1  A    between atoms: O_1  and  C_2
REMARK    2  A    between atoms: C_6  and  C_7
REMARK                            x       y       z     vdW  Elec       q    Type
REMARK                         _______ _______ _______ _____ _____    ______ ____
ROOT
ATOM      1  C   UNL     1       3.890   4.477  18.899  0.00  0.00    +0.000 A 
ATOM      2  N   UNL     1       3.378   4.463  17.642  0.00  0.00    +0.000 NA
ATOM      3  N   UNL     1       4.197   4.449  16.595  0.00  0.00    +0.000 NA
ATOM      4  C   UNL     1       5.527   4.447  16.869  0.00  0.00    +0.000 A 
ATOM      5  C   UNL     1       6.706   4.422  16.073  0.00  0.00    +0.000 A 
ATOM      6  N   UNL     1       7.806   4.406  16.859  0.00  0.00    +0.000 NA
ATOM      7  N   UNL     1       7.317   4.449  18.117  0.00  0.00    +0.000 N 
ATOM      8  C   UNL     1       5.959   4.462  18.179  0.00  0.00    +0.000 A 
ATOM      9  N   UNL     1       5.180   4.481  19.276  0.00  0.00    +0.000 NA
ATOM     10  H   UNL     1       7.964   4.461  18.896  0.00  0.00    +0.000 HD
ENDROOT
BRANCH   5  11
ATOM     11  C   UNL     1       6.810   4.406  14.613  0.00  0.00    +0.000 A 
ATOM     12  C   UNL     1       7.681   5.277  13.943  0.00  0.00    +0.000 A 
ATOM     13  C   UNL     1       7.776   5.256  12.548  0.00  0.00    +0.000 A 
ATOM     14  C   UNL     1       6.998   4.366  11.810  0.00  0.00    +0.000 A 
ATOM     15  C   UNL     1       6.129   3.496  12.461  0.00  0.00    +0.000 A 
ATOM     16  C   UNL     1       6.037   3.512  13.856  0.00  0.00    +0.000 A 
ENDBRANCH   5  11
BRANCH   1  17
ATOM     17  O   UNL     1       2.962   4.477  19.898  0.00  0.00    +0.000 OA
ATOM     18  H   UNL     1       3.540   4.385  20.673  0.00  0.00    +0.000 HD
ENDBRANCH   1  17
TORSDOF 2
ENDMDL
