MODEL 1
REMARK VINA RESULT:      -9.1      0.000      0.000
REMARK  Name = 
REMARK  6 active torsions:
REMARK  status: ('A' for Active; 'I' for Inactive)
REMARK    1  A    between atoms: C_1  and  N_2
REMARK    2  A    between atoms: C_5  and  C_6
REMARK    3  A    between atoms: C_12  and  C_13
REMARK    4  A    between atoms: C_15  and  C_16
REMARK    5  A    between atoms: C_16  and  C_17
REMARK    6  A    between atoms: C_17  and  C_18
REMARK                            x       y       z     vdW  Elec       q    Type
REMARK                         _______ _______ _______ _____ _____    ______ ____
ROOT
ATOM      1  C   UNL     1       3.693   4.539  18.919  0.00  0.00    +0.000 A 
ATOM      2  C   UNL     1       3.727   3.232  19.452  0.00  0.00    +0.000 A 
ATOM      3  C   UNL     1       3.019   2.888  20.603  0.00  0.00    +0.000 A 
ATOM      4  C   UNL     1       2.244   3.831  21.281  0.00  0.00    +0.000 A 
ATOM      5  C   UNL     1       2.206   5.126  20.758  0.00  0.00    +0.000 A 
ATOM      6  N   UNL     1       1.550   6.249  21.217  0.00  0.00    +0.000 N 
ATOM      7  C   UNL     1       1.816   7.321  20.404  0.00  0.00    +0.000 A 
ATOM      8  C   UNL     1       2.623   6.874  19.383  0.00  0.00    +0.000 A 
ATOM      9  C   UNL     1       2.899   5.494  19.603  0.00  0.00    +0.000 A 
ATOM     10  H   UNL     1       0.978   6.291  22.049  0.00  0.00    +0.000 HD
ENDROOT
BRANCH   1  15
ATOM     11  C   UNL     1       7.342   4.898  14.487  0.00  0.00    +0.000 C 
ATOM     12  N   UNL     1       6.597   4.536  15.694  0.00  0.00    +0.000 NA
ATOM     13  C   UNL     1       6.688   5.611  16.691  0.00  0.00    +0.000 C 
ATOM     14  C   UNL     1       5.950   5.239  17.977  0.00  0.00    +0.000 C 
ATOM     15  C   UNL     1       4.488   4.894  17.674  0.00  0.00    +0.000 C 
ATOM     16  C   UNL     1       4.408   3.808  16.596  0.00  0.00    +0.000 C 
ATOM     17  C   UNL     1       5.198   4.229  15.356  0.00  0.00    +0.000 C 
ENDBRANCH   1  15
BRANCH   7  18
ATOM     18  C   UNL     1       1.334   8.634  20.663  0.00  0.00    +0.000 A 
ATOM     19  N   UNL     1       0.888   9.451  19.732  0.00  0.00    +0.000 NA
ATOM     20  C   UNL     1       0.453  10.526  20.467  0.00  0.00    +0.000 A 
ATOM     21  N   UNL     1       0.645  10.424  21.787  0.00  0.00    +0.000 NA
ATOM     22  O   UNL     1       1.230   9.166  21.923  0.00  0.00    +0.000 OA
BRANCH  20  23
ATOM     23  C   UNL     1      -0.206  11.710  19.860  0.00  0.00    +0.000 C 
BRANCH  23  24
ATOM     24  C   UNL     1      -1.731  11.598  19.879  0.00  0.00    +0.000 C 
BRANCH  24  25
ATOM     25  C   UNL     1      -2.291  11.204  18.535  0.00  0.00    +0.000 A 
ATOM     26  C   UNL     1      -3.510  11.736  18.094  0.00  0.00    +0.000 A 
ATOM     27  C   UNL     1      -4.025  11.378  16.846  0.00  0.00    +0.000 A 
ATOM     28  C   UNL     1      -3.325  10.484  16.039  0.00  0.00    +0.000 A 
ATOM     29 CL   UNL     1      -3.954  10.057  14.495  0.00  0.00    +0.000 Cl
ATOM     30  C   UNL     1      -2.119   9.937  16.472  0.00  0.00    +0.000 A 
ATOM     31  C   UNL     1      -1.604  10.294  17.719  0.00  0.00    +0.000 A 
ENDBRANCH  24  25
ENDBRANCH  23  24
ENDBRANCH  20  23
ENDBRANCH   7  18
TORSDOF 5
ENDMDL
MODEL 2
REMARK VINA RESULT:      -8.8      0.759      1.187
REMARK  Name = 
REMARK  6 active torsions:
REMARK  status: ('A' for Active; 'I' for Inactive)
REMARK    1  A    between atoms: C_1  and  N_2
REMARK    2  A    between atoms: C_5  and  C_6
REMARK    3  A    between atoms: C_12  and  C_13
REMARK    4  A    between atoms: C_15  and  C_16
REMARK    5  A    between atoms: C_16  and  C_17
REMARK    6  A    between atoms: C_17  and  C_18
REMARK                            x       y       z     vdW  Elec       q    Type
REMARK                         _______ _______ _______ _____ _____    ______ ____
ROOT
ATOM      1  C   UNL     1       3.840   3.738  19.478  0.00  0.00    +0.000 A 
ATOM      2  C   UNL     1       3.715   2.524  20.188  0.00  0.00    +0.000 A 
ATOM      3  C   UNL     1       2.848   2.392  21.273  0.00  0.00    +0.000 A 
ATOM      4  C   UNL     1       2.064   3.464  21.704  0.00  0.00    +0.000 A 
ATOM      5  C   UNL     1       2.183   4.668  21.005  0.00  0.00    +0.000 A 
ATOM      6  N   UNL     1       1.557   5.879  21.212  0.00  0.00    +0.000 N 
ATOM      7  C   UNL     1       1.996   6.804  20.300  0.00  0.00    +0.000 A 
ATOM      8  C   UNL     1       2.888   6.169  19.466  0.00  0.00    +0.000 A 
ATOM      9  C   UNL     1       3.037   4.825  19.911  0.00  0.00    +0.000 A 
ATOM     10  H   UNL     1       0.891   6.073  21.948  0.00  0.00    +0.000 HD
ENDROOT
BRANCH   1  15
ATOM     11  C   UNL     1       7.063   5.340  14.992  0.00  0.00    +0.000 C 
ATOM     12  N   UNL     1       6.121   5.245  16.109  0.00  0.00    +0.000 NA
ATOM     13  C   UNL     1       5.117   4.206  15.841  0.00  0.00    +0.000 C 
ATOM     14  C   UNL     1       4.097   4.115  16.976  0.00  0.00    +0.000 C 
ATOM     15  C   UNL     1       4.805   3.864  18.311  0.00  0.00    +0.000 C 
ATOM     16  C   UNL     1       5.883   4.924  18.553  0.00  0.00    +0.000 C 
ATOM     17  C   UNL     1       6.843   4.988  17.364  0.00  0.00    +0.000 C 
ENDBRANCH   1  15
BRANCH   7  18
ATOM     18  C   UNL     1       1.580   8.165  20.307  0.00  0.00    +0.000 A 
ATOM     19  N   UNL     1       1.145   8.806  19.244  0.00  0.00    +0.000 NA
ATOM     20  C   UNL     1       0.779  10.023  19.763  0.00  0.00    +0.000 A 
ATOM     21  N   UNL     1       1.003  10.169  21.074  0.00  0.00    +0.000 NA
ATOM     22  O   UNL     1       1.535   8.934  21.441  0.00  0.00    +0.000 OA
BRANCH  20  23
ATOM     23  C   UNL     1       0.157  11.098  18.950  0.00  0.00    +0.000 C 
BRANCH  23  24
ATOM     24  C   UNL     1      -1.362  11.149  19.121  0.00  0.00    +0.000 C 
BRANCH  24  25
ATOM     25  C   UNL     1      -2.092  10.842  17.837  0.00  0.00    +0.000 A 
ATOM     26  C   UNL     1      -3.268  11.532  17.510  0.00  0.00    +0.000 A 
ATOM     27  C   UNL     1      -3.939  11.254  16.318  0.00  0.00    +0.000 A 
ATOM     28  C   UNL     1      -3.440  10.283  15.453  0.00  0.00    +0.000 A 
ATOM     29 CL   UNL     1      -4.261   9.953  13.976  0.00  0.00    +0.000 Cl
ATOM     30  C   UNL     1      -2.281   9.580  15.773  0.00  0.00    +0.000 A 
ATOM     31  C   UNL     1      -1.609   9.857  16.964  0.00  0.00    +0.000 A 
ENDBRANCH  24  25
ENDBRANCH  23  24
ENDBRANCH  20  23
ENDBRANCH   7  18
TORSDOF 5
ENDMDL
MODEL 3
REMARK VINA RESULT:      -8.8      1.105      1.454
REMARK  Name = 
REMARK  6 active torsions:
REMARK  status: ('A' for Active; 'I' for Inactive)
REMARK    1  A    between atoms: C_1  and  N_2
REMARK    2  A    between atoms: C_5  and  C_6
REMARK    3  A    between atoms: C_12  and  C_13
REMARK    4  A    between atoms: C_15  and  C_16
REMARK    5  A    between atoms: C_16  and  C_17
REMARK    6  A    between atoms: C_17  and  C_18
REMARK                            x       y       z     vdW  Elec       q    Type
REMARK                         _______ _______ _______ _____ _____    ______ ____
ROOT
ATOM      1  C   UNL     1       3.989   4.289  18.499  0.00  0.00    +0.000 A 
ATOM      2  C   UNL     1       4.064   2.948  18.935  0.00  0.00    +0.000 A 
ATOM      3  C   UNL     1       3.403   2.510  20.083  0.00  0.00    +0.000 A 
ATOM      4  C   UNL     1       2.638   3.387  20.854  0.00  0.00    +0.000 A 
ATOM      5  C   UNL     1       2.559   4.716  20.427  0.00  0.00    +0.000 A 
ATOM      6  N   UNL     1       1.903   5.791  20.988  0.00  0.00    +0.000 N 
ATOM      7  C   UNL     1       2.122   6.923  20.246  0.00  0.00    +0.000 A 
ATOM      8  C   UNL     1       2.898   6.565  19.167  0.00  0.00    +0.000 A 
ATOM      9  C   UNL     1       3.204   5.179  19.278  0.00  0.00    +0.000 A 
ATOM     10  H   UNL     1       1.360   5.762  21.841  0.00  0.00    +0.000 HD
ENDROOT
BRANCH   1  15
ATOM     11  C   UNL     1       7.466   5.030  13.978  0.00  0.00    +0.000 C 
ATOM     12  N   UNL     1       6.770   4.569  15.181  0.00  0.00    +0.000 NA
ATOM     13  C   UNL     1       6.885   5.568  16.251  0.00  0.00    +0.000 C 
ATOM     14  C   UNL     1       6.200   5.091  17.531  0.00  0.00    +0.000 C 
ATOM     15  C   UNL     1       4.733   4.747  17.256  0.00  0.00    +0.000 C 
ATOM     16  C   UNL     1       4.626   3.744  16.104  0.00  0.00    +0.000 C 
ATOM     17  C   UNL     1       5.365   4.266  14.871  0.00  0.00    +0.000 C 
ENDBRANCH   1  15
BRANCH   7  18
ATOM     18  C   UNL     1       1.628   8.205  20.616  0.00  0.00    +0.000 A 
ATOM     19  N   UNL     1       1.151   9.084  19.760  0.00  0.00    +0.000 NA
ATOM     20  C   UNL     1       0.718  10.093  20.585  0.00  0.00    +0.000 A 
ATOM     21  N   UNL     1       0.941   9.892  21.888  0.00  0.00    +0.000 NA
ATOM     22  O   UNL     1       1.545   8.636  21.915  0.00  0.00    +0.000 OA
BRANCH  20  23
ATOM     23  C   UNL     1       0.030  11.310  20.085  0.00  0.00    +0.000 C 
BRANCH  23  24
ATOM     24  C   UNL     1      -0.396  11.176  18.623  0.00  0.00    +0.000 C 
BRANCH  24  25
ATOM     25  C   UNL     1      -1.895  11.119  18.467  0.00  0.00    +0.000 A 
ATOM     26  C   UNL     1      -2.486  10.129  17.669  0.00  0.00    +0.000 A 
ATOM     27  C   UNL     1      -3.874  10.071  17.532  0.00  0.00    +0.000 A 
ATOM     28  C   UNL     1      -4.674  11.004  18.188  0.00  0.00    +0.000 A 
ATOM     29 CL   UNL     1      -6.386  10.920  18.029  0.00  0.00    +0.000 Cl
ATOM     30  C   UNL     1      -4.099  12.001  18.972  0.00  0.00    +0.000 A 
ATOM     31  C   UNL     1      -2.712  12.060  19.110  0.00  0.00    +0.000 A 
ENDBRANCH  24  25
ENDBRANCH  23  24
ENDBRANCH  20  23
ENDBRANCH   7  18
TORSDOF 5
ENDMDL
MODEL 4
REMARK VINA RESULT:      -8.7      6.486      9.345
REMARK  Name = 
REMARK  6 active torsions:
REMARK  status: ('A' for Active; 'I' for Inactive)
REMARK    1  A    between atoms: C_1  and  N_2
REMARK    2  A    between atoms: C_5  and  C_6
REMARK    3  A    between atoms: C_12  and  C_13
REMARK    4  A    between atoms: C_15  and  C_16
REMARK    5  A    between atoms: C_16  and  C_17
REMARK    6  A    between atoms: C_17  and  C_18
REMARK                            x       y       z     vdW  Elec       q    Type
REMARK                         _______ _______ _______ _____ _____    ______ ____
ROOT
ATOM      1  C   UNL     1       4.979   4.515  17.010  0.00  0.00    +0.000 A 
ATOM      2  C   UNL     1       4.933   3.647  15.896  0.00  0.00    +0.000 A 
ATOM      3  C   UNL     1       5.853   3.742  14.852  0.00  0.00    +0.000 A 
ATOM      4  C   UNL     1       6.862   4.706  14.865  0.00  0.00    +0.000 A 
ATOM      5  C   UNL     1       6.913   5.567  15.964  0.00  0.00    +0.000 A 
ATOM      6  N   UNL     1       7.773   6.610  16.236  0.00  0.00    +0.000 N 
ATOM      7  C   UNL     1       7.438   7.208  17.423  0.00  0.00    +0.000 A 
ATOM      8  C   UNL     1       6.370   6.515  17.946  0.00  0.00    +0.000 A 
ATOM      9  C   UNL     1       6.009   5.490  17.026  0.00  0.00    +0.000 A 
ATOM     10  H   UNL     1       8.528   6.915  15.635  0.00  0.00    +0.000 HD
ENDROOT
BRANCH   1  15
ATOM     11  C   UNL     1       1.016   2.951  20.874  0.00  0.00    +0.000 C 
ATOM     12  N   UNL     1       1.995   3.030  19.789  0.00  0.00    +0.000 NA
ATOM     13  C   UNL     1       1.560   4.006  18.780  0.00  0.00    +0.000 C 
ATOM     14  C   UNL     1       2.547   4.077  17.615  0.00  0.00    +0.000 C 
ATOM     15  C   UNL     1       3.954   4.406  18.126  0.00  0.00    +0.000 C 
ATOM     16  C   UNL     1       4.374   3.411  19.213  0.00  0.00    +0.000 C 
ATOM     17  C   UNL     1       3.324   3.362  20.324  0.00  0.00    +0.000 C 
ENDBRANCH   1  15
BRANCH   7  18
ATOM     18  C   UNL     1       8.105   8.357  17.933  0.00  0.00    +0.000 A 
ATOM     19  N   UNL     1       8.064   9.543  17.365  0.00  0.00    +0.000 NA
ATOM     20  C   UNL     1       8.755  10.323  18.260  0.00  0.00    +0.000 A 
ATOM     21  N   UNL     1       9.245   9.668  19.319  0.00  0.00    +0.000 NA
ATOM     22  O   UNL     1       8.814   8.359  19.107  0.00  0.00    +0.000 OA
BRANCH  20  23
ATOM     23  C   UNL     1       8.932  11.787  18.093  0.00  0.00    +0.000 C 
BRANCH  23  24
ATOM     24  C   UNL     1      10.357  12.238  18.415  0.00  0.00    +0.000 C 
BRANCH  24  25
ATOM     25  C   UNL     1      10.399  13.233  19.548  0.00  0.00    +0.000 A 
ATOM     26  C   UNL     1      11.132  14.421  19.419  0.00  0.00    +0.000 A 
ATOM     27  C   UNL     1      11.164  15.346  20.465  0.00  0.00    +0.000 A 
ATOM     28  C   UNL     1      10.469  15.083  21.643  0.00  0.00    +0.000 A 
ATOM     29 CL   UNL     1      10.497  16.232  22.924  0.00  0.00    +0.000 Cl
ATOM     30  C   UNL     1       9.749  13.900  21.789  0.00  0.00    +0.000 A 
ATOM     31  C   UNL     1       9.715  12.975  20.745  0.00  0.00    +0.000 A 
ENDBRANCH  24  25
ENDBRANCH  23  24
ENDBRANCH  20  23
ENDBRANCH   7  18
TORSDOF 5
ENDMDL
MODEL 5
REMARK VINA RESULT:      -8.7      3.233      3.983
REMARK  Name = 
REMARK  6 active torsions:
REMARK  status: ('A' for Active; 'I' for Inactive)
REMARK    1  A    between atoms: C_1  and  N_2
REMARK    2  A    between atoms: C_5  and  C_6
REMARK    3  A    between atoms: C_12  and  C_13
REMARK    4  A    between atoms: C_15  and  C_16
REMARK    5  A    between atoms: C_16  and  C_17
REMARK    6  A    between atoms: C_17  and  C_18
REMARK                            x       y       z     vdW  Elec       q    Type
REMARK                         _______ _______ _______ _____ _____    ______ ____
ROOT
ATOM      1  C   UNL     1       3.899   3.765  19.439  0.00  0.00    +0.000 A 
ATOM      2  C   UNL     1       3.778   2.606  20.235  0.00  0.00    +0.000 A 
ATOM      3  C   UNL     1       2.898   2.545  21.317  0.00  0.00    +0.000 A 
ATOM      4  C   UNL     1       2.100   3.637  21.659  0.00  0.00    +0.000 A 
ATOM      5  C   UNL     1       2.214   4.787  20.874  0.00  0.00    +0.000 A 
ATOM      6  N   UNL     1       1.575   6.004  20.984  0.00  0.00    +0.000 N 
ATOM      7  C   UNL     1       2.016   6.864  20.011  0.00  0.00    +0.000 A 
ATOM      8  C   UNL     1       2.924   6.179  19.237  0.00  0.00    +0.000 A 
ATOM      9  C   UNL     1       3.080   4.872  19.781  0.00  0.00    +0.000 A 
ATOM     10  H   UNL     1       0.898   6.244  21.696  0.00  0.00    +0.000 HD
ENDROOT
BRANCH   1  15
ATOM     11  C   UNL     1       7.186   5.079  14.905  0.00  0.00    +0.000 C 
ATOM     12  N   UNL     1       6.231   5.056  16.015  0.00  0.00    +0.000 NA
ATOM     13  C   UNL     1       5.218   4.016  15.795  0.00  0.00    +0.000 C 
ATOM     14  C   UNL     1       4.185   4.000  16.922  0.00  0.00    +0.000 C 
ATOM     15  C   UNL     1       4.877   3.815  18.277  0.00  0.00    +0.000 C 
ATOM     16  C   UNL     1       5.966   4.874  18.471  0.00  0.00    +0.000 C 
ATOM     17  C   UNL     1       6.938   4.861  17.290  0.00  0.00    +0.000 C 
ENDBRANCH   1  15
BRANCH   7  18
ATOM     18  C   UNL     1       1.586   8.217  19.913  0.00  0.00    +0.000 A 
ATOM     19  N   UNL     1       1.058   8.895  20.910  0.00  0.00    +0.000 NA
ATOM     20  C   UNL     1       0.909  10.147  20.367  0.00  0.00    +0.000 A 
ATOM     21  N   UNL     1       1.280  10.257  19.087  0.00  0.00    +0.000 NA
ATOM     22  O   UNL     1       1.734   8.975  18.780  0.00  0.00    +0.000 OA
BRANCH  20  23
ATOM     23  C   UNL     1       0.398  11.309  21.138  0.00  0.00    +0.000 C 
BRANCH  23  24
ATOM     24  C   UNL     1      -0.461  10.882  22.329  0.00  0.00    +0.000 C 
BRANCH  24  25
ATOM     25  C   UNL     1      -1.280  12.023  22.881  0.00  0.00    +0.000 A 
ATOM     26  C   UNL     1      -2.588  11.799  23.331  0.00  0.00    +0.000 A 
ATOM     27  C   UNL     1      -3.344  12.853  23.850  0.00  0.00    +0.000 A 
ATOM     28  C   UNL     1      -2.795  14.132  23.915  0.00  0.00    +0.000 A 
ATOM     29 CL   UNL     1      -3.723  15.425  24.569  0.00  0.00    +0.000 Cl
ATOM     30  C   UNL     1      -1.502  14.369  23.458  0.00  0.00    +0.000 A 
ATOM     31  C   UNL     1      -0.745  13.318  22.939  0.00  0.00    +0.000 A 
ENDBRANCH  24  25
ENDBRANCH  23  24
ENDBRANCH  20  23
ENDBRANCH   7  18
TORSDOF 5
ENDMDL
MODEL 6
REMARK VINA RESULT:      -8.7      1.181      1.680
REMARK  Name = 
REMARK  6 active torsions:
REMARK  status: ('A' for Active; 'I' for Inactive)
REMARK    1  A    between atoms: C_1  and  N_2
REMARK    2  A    between atoms: C_5  and  C_6
REMARK    3  A    between atoms: C_12  and  C_13
REMARK    4  A    between atoms: C_15  and  C_16
REMARK    5  A    between atoms: C_16  and  C_17
REMARK    6  A    between atoms: C_17  and  C_18
REMARK                            x       y       z     vdW  Elec       q    Type
REMARK                         _______ _______ _______ _____ _____    ______ ____
ROOT
ATOM      1  C   UNL     1       3.873   3.711  19.431  0.00  0.00    +0.000 A 
ATOM      2  C   UNL     1       3.745   2.535  20.202  0.00  0.00    +0.000 A 
ATOM      3  C   UNL     1       2.891   2.466  21.302  0.00  0.00    +0.000 A 
ATOM      4  C   UNL     1       2.124   3.565  21.691  0.00  0.00    +0.000 A 
ATOM      5  C   UNL     1       2.245   4.732  20.931  0.00  0.00    +0.000 A 
ATOM      6  N   UNL     1       1.634   5.959  21.086  0.00  0.00    +0.000 N 
ATOM      7  C   UNL     1       2.071   6.833  20.124  0.00  0.00    +0.000 A 
ATOM      8  C   UNL     1       2.946   6.149  19.312  0.00  0.00    +0.000 A 
ATOM      9  C   UNL     1       3.086   4.826  19.820  0.00  0.00    +0.000 A 
ATOM     10  H   UNL     1       0.980   6.196  21.820  0.00  0.00    +0.000 HD
ENDROOT
BRANCH   1  15
ATOM     11  C   UNL     1       7.139   5.090  14.903  0.00  0.00    +0.000 C 
ATOM     12  N   UNL     1       6.213   5.061  16.036  0.00  0.00    +0.000 NA
ATOM     13  C   UNL     1       5.120   4.115  15.776  0.00  0.00    +0.000 C 
ATOM     14  C   UNL     1       4.116   4.096  16.929  0.00  0.00    +0.000 C 
ATOM     15  C   UNL     1       4.824   3.769  18.248  0.00  0.00    +0.000 C 
ATOM     16  C   UNL     1       5.993   4.731  18.481  0.00  0.00    +0.000 C 
ATOM     17  C   UNL     1       6.933   4.729  17.274  0.00  0.00    +0.000 C 
ENDBRANCH   1  15
BRANCH   7  18
ATOM     18  C   UNL     1       1.669   8.197  20.070  0.00  0.00    +0.000 A 
ATOM     19  N   UNL     1       1.614   8.903  18.961  0.00  0.00    +0.000 NA
ATOM     20  C   UNL     1       1.086  10.094  19.396  0.00  0.00    +0.000 A 
ATOM     21  N   UNL     1       0.855  10.163  20.712  0.00  0.00    +0.000 NA
ATOM     22  O   UNL     1       1.239   8.902  21.165  0.00  0.00    +0.000 OA
BRANCH  20  23
ATOM     23  C   UNL     1       0.768  11.222  18.484  0.00  0.00    +0.000 C 
BRANCH  23  24
ATOM     24  C   UNL     1      -0.157  12.250  19.136  0.00  0.00    +0.000 C 
BRANCH  24  25
ATOM     25  C   UNL     1      -1.606  12.015  18.789  0.00  0.00    +0.000 A 
ATOM     26  C   UNL     1      -2.615  12.349  19.704  0.00  0.00    +0.000 A 
ATOM     27  C   UNL     1      -3.957  12.140  19.380  0.00  0.00    +0.000 A 
ATOM     28  C   UNL     1      -4.293  11.592  18.144  0.00  0.00    +0.000 A 
ATOM     29 CL   UNL     1      -5.949  11.349  17.741  0.00  0.00    +0.000 Cl
ATOM     30  C   UNL     1      -3.300  11.243  17.233  0.00  0.00    +0.000 A 
ATOM     31  C   UNL     1      -1.959  11.451  17.555  0.00  0.00    +0.000 A 
ENDBRANCH  24  25
ENDBRANCH  23  24
ENDBRANCH  20  23
ENDBRANCH   7  18
TORSDOF 5
ENDMDL
MODEL 7
REMARK VINA RESULT:      -8.7      1.340      1.985
REMARK  Name = 
REMARK  6 active torsions:
REMARK  status: ('A' for Active; 'I' for Inactive)
REMARK    1  A    between atoms: C_1  and  N_2
REMARK    2  A    between atoms: C_5  and  C_6
REMARK    3  A    between atoms: C_12  and  C_13
REMARK    4  A    between atoms: C_15  and  C_16
REMARK    5  A    between atoms: C_16  and  C_17
REMARK    6  A    between atoms: C_17  and  C_18
REMARK                            x       y       z     vdW  Elec       q    Type
REMARK                         _______ _______ _______ _____ _____    ______ ____
ROOT
ATOM      1  C   UNL     1       3.961   3.798  19.321  0.00  0.00    +0.000 A 
ATOM      2  C   UNL     1       3.845   2.677  20.173  0.00  0.00    +0.000 A 
ATOM      3  C   UNL     1       2.981   2.672  21.268  0.00  0.00    +0.000 A 
ATOM      4  C   UNL     1       2.192   3.783  21.570  0.00  0.00    +0.000 A 
ATOM      5  C   UNL     1       2.302   4.895  20.730  0.00  0.00    +0.000 A 
ATOM      6  N   UNL     1       1.670   6.119  20.791  0.00  0.00    +0.000 N 
ATOM      7  C   UNL     1       2.101   6.930  19.773  0.00  0.00    +0.000 A 
ATOM      8  C   UNL     1       2.995   6.204  19.019  0.00  0.00    +0.000 A 
ATOM      9  C   UNL     1       3.153   4.924  19.623  0.00  0.00    +0.000 A 
ATOM     10  H   UNL     1       1.004   6.397  21.500  0.00  0.00    +0.000 HD
ENDROOT
BRANCH   1  15
ATOM     11  C   UNL     1       7.271   4.913  14.752  0.00  0.00    +0.000 C 
ATOM     12  N   UNL     1       6.334   4.950  15.876  0.00  0.00    +0.000 NA
ATOM     13  C   UNL     1       5.242   3.990  15.660  0.00  0.00    +0.000 C 
ATOM     14  C   UNL     1       4.228   4.039  16.803  0.00  0.00    +0.000 C 
ATOM     15  C   UNL     1       4.923   3.787  18.146  0.00  0.00    +0.000 C 
ATOM     16  C   UNL     1       6.091   4.760  18.333  0.00  0.00    +0.000 C 
ATOM     17  C   UNL     1       7.042   4.688  17.138  0.00  0.00    +0.000 C 
ENDBRANCH   1  15
BRANCH   7  18
ATOM     18  C   UNL     1       1.677   8.279  19.617  0.00  0.00    +0.000 A 
ATOM     19  N   UNL     1       0.955   8.930  20.504  0.00  0.00    +0.000 NA
ATOM     20  C   UNL     1       0.893  10.192  19.965  0.00  0.00    +0.000 A 
ATOM     21  N   UNL     1       1.503  10.332  18.783  0.00  0.00    +0.000 NA
ATOM     22  O   UNL     1       2.029   9.062  18.548  0.00  0.00    +0.000 OA
BRANCH  20  23
ATOM     23  C   UNL     1       0.224  11.331  20.642  0.00  0.00    +0.000 C 
BRANCH  23  24
ATOM     24  C   UNL     1      -0.264  12.388  19.651  0.00  0.00    +0.000 C 
BRANCH  24  25
ATOM     25  C   UNL     1      -1.671  12.120  19.177  0.00  0.00    +0.000 A 
ATOM     26  C   UNL     1      -1.894  11.484  17.948  0.00  0.00    +0.000 A 
ATOM     27  C   UNL     1      -3.197  11.228  17.514  0.00  0.00    +0.000 A 
ATOM     28  C   UNL     1      -4.278  11.612  18.304  0.00  0.00    +0.000 A 
ATOM     29 CL   UNL     1      -5.882  11.281  17.773  0.00  0.00    +0.000 Cl
ATOM     30  C   UNL     1      -4.069  12.257  19.520  0.00  0.00    +0.000 A 
ATOM     31  C   UNL     1      -2.769  12.514  19.956  0.00  0.00    +0.000 A 
ENDBRANCH  24  25
ENDBRANCH  23  24
ENDBRANCH  20  23
ENDBRANCH   7  18
TORSDOF 5
ENDMDL
MODEL 8
REMARK VINA RESULT:      -8.7      6.608      9.393
REMARK  Name = 
REMARK  6 active torsions:
REMARK  status: ('A' for Active; 'I' for Inactive)
REMARK    1  A    between atoms: C_1  and  N_2
REMARK    2  A    between atoms: C_5  and  C_6
REMARK    3  A    between atoms: C_12  and  C_13
REMARK    4  A    between atoms: C_15  and  C_16
REMARK    5  A    between atoms: C_16  and  C_17
REMARK    6  A    between atoms: C_17  and  C_18
REMARK                            x       y       z     vdW  Elec       q    Type
REMARK                         _______ _______ _______ _____ _____    ______ ____
ROOT
ATOM      1  C   UNL     1       4.930   4.588  16.853  0.00  0.00    +0.000 A 
ATOM      2  C   UNL     1       4.933   3.702  15.753  0.00  0.00    +0.000 A 
ATOM      3  C   UNL     1       5.922   3.755  14.770  0.00  0.00    +0.000 A 
ATOM      4  C   UNL     1       6.952   4.694  14.832  0.00  0.00    +0.000 A 
ATOM      5  C   UNL     1       6.954   5.574  15.918  0.00  0.00    +0.000 A 
ATOM      6  N   UNL     1       7.822   6.600  16.228  0.00  0.00    +0.000 N 
ATOM      7  C   UNL     1       7.426   7.227  17.381  0.00  0.00    +0.000 A 
ATOM      8  C   UNL     1       6.309   6.570  17.845  0.00  0.00    +0.000 A 
ATOM      9  C   UNL     1       5.982   5.538  16.921  0.00  0.00    +0.000 A 
ATOM     10  H   UNL     1       8.621   6.875  15.673  0.00  0.00    +0.000 HD
ENDROOT
BRANCH   1  15
ATOM     11  C   UNL     1       0.942   3.152  20.741  0.00  0.00    +0.000 C 
ATOM     12  N   UNL     1       1.997   3.185  19.726  0.00  0.00    +0.000 NA
ATOM     13  C   UNL     1       1.497   3.806  18.492  0.00  0.00    +0.000 C 
ATOM     14  C   UNL     1       2.570   3.815  17.402  0.00  0.00    +0.000 C 
ATOM     15  C   UNL     1       3.833   4.524  17.902  0.00  0.00    +0.000 C 
ATOM     16  C   UNL     1       4.312   3.900  19.216  0.00  0.00    +0.000 C 
ATOM     17  C   UNL     1       3.180   3.887  20.244  0.00  0.00    +0.000 C 
ENDBRANCH   1  15
BRANCH   7  18
ATOM     18  C   UNL     1       8.087   8.368  17.915  0.00  0.00    +0.000 A 
ATOM     19  N   UNL     1       8.001   9.576  17.399  0.00  0.00    +0.000 NA
ATOM     20  C   UNL     1       8.709  10.332  18.300  0.00  0.00    +0.000 A 
ATOM     21  N   UNL     1       9.252   9.645  19.311  0.00  0.00    +0.000 NA
ATOM     22  O   UNL     1       8.840   8.338  19.061  0.00  0.00    +0.000 OA
BRANCH  20  23
ATOM     23  C   UNL     1       8.850  11.806  18.189  0.00  0.00    +0.000 C 
BRANCH  23  24
ATOM     24  C   UNL     1       9.915  12.359  19.136  0.00  0.00    +0.000 C 
BRANCH  24  25
ATOM     25  C   UNL     1      10.398  13.725  18.716  0.00  0.00    +0.000 A 
ATOM     26  C   UNL     1      10.862  13.940  17.411  0.00  0.00    +0.000 A 
ATOM     27  C   UNL     1      11.302  15.206  17.019  0.00  0.00    +0.000 A 
ATOM     28  C   UNL     1      11.283  16.258  17.932  0.00  0.00    +0.000 A 
ATOM     29 CL   UNL     1      11.811  17.822  17.441  0.00  0.00    +0.000 Cl
ATOM     30  C   UNL     1      10.838  16.054  19.235  0.00  0.00    +0.000 A 
ATOM     31  C   UNL     1      10.399  14.790  19.629  0.00  0.00    +0.000 A 
ENDBRANCH  24  25
ENDBRANCH  23  24
ENDBRANCH  20  23
ENDBRANCH   7  18
TORSDOF 5
ENDMDL
MODEL 9
REMARK VINA RESULT:      -8.6      2.660      3.303
REMARK  Name = 
REMARK  6 active torsions:
REMARK  status: ('A' for Active; 'I' for Inactive)
REMARK    1  A    between atoms: C_1  and  N_2
REMARK    2  A    between atoms: C_5  and  C_6
REMARK    3  A    between atoms: C_12  and  C_13
REMARK    4  A    between atoms: C_15  and  C_16
REMARK    5  A    between atoms: C_16  and  C_17
REMARK    6  A    between atoms: C_17  and  C_18
REMARK                            x       y       z     vdW  Elec       q    Type
REMARK                         _______ _______ _______ _____ _____    ______ ____
ROOT
ATOM      1  C   UNL     1       3.922   3.834  19.272  0.00  0.00    +0.000 A 
ATOM      2  C   UNL     1       3.782   2.724  20.133  0.00  0.00    +0.000 A 
ATOM      3  C   UNL     1       2.912   2.744  21.223  0.00  0.00    +0.000 A 
ATOM      4  C   UNL     1       2.143   3.872  21.512  0.00  0.00    +0.000 A 
ATOM      5  C   UNL     1       2.277   4.974  20.663  0.00  0.00    +0.000 A 
ATOM      6  N   UNL     1       1.667   6.210  20.710  0.00  0.00    +0.000 N 
ATOM      7  C   UNL     1       2.118   7.004  19.688  0.00  0.00    +0.000 A 
ATOM      8  C   UNL     1       3.003   6.255  18.944  0.00  0.00    +0.000 A 
ATOM      9  C   UNL     1       3.133   4.978  19.560  0.00  0.00    +0.000 A 
ATOM     10  H   UNL     1       1.003   6.506  21.413  0.00  0.00    +0.000 HD
ENDROOT
BRANCH   1  15
ATOM     11  C   UNL     1       7.280   4.851  14.715  0.00  0.00    +0.000 C 
ATOM     12  N   UNL     1       6.339   4.915  15.834  0.00  0.00    +0.000 NA
ATOM     13  C   UNL     1       5.225   3.982  15.617  0.00  0.00    +0.000 C 
ATOM     14  C   UNL     1       4.207   4.059  16.754  0.00  0.00    +0.000 C 
ATOM     15  C   UNL     1       4.889   3.796  18.101  0.00  0.00    +0.000 C 
ATOM     16  C   UNL     1       6.080   4.741  18.291  0.00  0.00    +0.000 C 
ATOM     17  C   UNL     1       7.035   4.641  17.101  0.00  0.00    +0.000 C 
ENDBRANCH   1  15
BRANCH   7  18
ATOM     18  C   UNL     1       1.720   8.359  19.518  0.00  0.00    +0.000 A 
ATOM     19  N   UNL     1       1.121   9.071  20.448  0.00  0.00    +0.000 NA
ATOM     20  C   UNL     1       1.037  10.311  19.863  0.00  0.00    +0.000 A 
ATOM     21  N   UNL     1       1.516  10.380  18.615  0.00  0.00    +0.000 NA
ATOM     22  O   UNL     1       1.973   9.084  18.382  0.00  0.00    +0.000 OA
BRANCH  20  23
ATOM     23  C   UNL     1       0.481  11.500  20.556  0.00  0.00    +0.000 C 
BRANCH  23  24
ATOM     24  C   UNL     1      -0.166  11.140  21.894  0.00  0.00    +0.000 C 
BRANCH  24  25
ATOM     25  C   UNL     1      -1.524  11.776  22.060  0.00  0.00    +0.000 A 
ATOM     26  C   UNL     1      -2.145  12.410  20.974  0.00  0.00    +0.000 A 
ATOM     27  C   UNL     1      -3.406  12.991  21.125  0.00  0.00    +0.000 A 
ATOM     28  C   UNL     1      -4.046  12.944  22.361  0.00  0.00    +0.000 A 
ATOM     29 CL   UNL     1      -5.607  13.647  22.540  0.00  0.00    +0.000 Cl
ATOM     30  C   UNL     1      -3.434  12.330  23.450  0.00  0.00    +0.000 A 
ATOM     31  C   UNL     1      -2.174  11.749  23.302  0.00  0.00    +0.000 A 
ENDBRANCH  24  25
ENDBRANCH  23  24
ENDBRANCH  20  23
ENDBRANCH   7  18
TORSDOF 5
ENDMDL
