MODEL 1
REMARK VINA RESULT:      -8.1      0.000      0.000
REMARK  Name = 
REMARK  4 active torsions:
REMARK  status: ('A' for Active; 'I' for Inactive)
REMARK    1  A    between atoms: C_1  and  C_2
REMARK    2  A    between atoms: C_6  and  C_7
REMARK    3  A    between atoms: C_14  and  O_15
REMARK    4  A    between atoms: O_15  and  C_16
REMARK                            x       y       z     vdW  Elec       q    Type
REMARK                         _______ _______ _______ _____ _____    ______ ____
ROOT
ATOM      1  C   UNL     1       8.331   9.006  18.128  0.00  0.00    +0.000 C 
ATOM      2  O   UNL     1       7.597   9.364  17.213  0.00  0.00    +0.000 OA
ATOM      3  N   UNL     1       8.394   7.715  18.613  0.00  0.00    +0.000 N 
ATOM      4  C   UNL     1       7.587   6.690  18.107  0.00  0.00    +0.000 A 
ATOM      5  C   UNL     1       7.317   6.547  16.750  0.00  0.00    +0.000 A 
ATOM      6  C   UNL     1       6.442   5.545  16.339  0.00  0.00    +0.000 A 
ATOM      7  C   UNL     1       5.856   4.725  17.295  0.00  0.00    +0.000 A 
ATOM      8  C   UNL     1       6.227   4.909  18.617  0.00  0.00    +0.000 A 
ATOM      9  N   UNL     1       7.094   5.859  19.037  0.00  0.00    +0.000 NA
ATOM     10  H   UNL     1       8.657   7.574  19.578  0.00  0.00    +0.000 HD
ENDROOT
BRANCH   1  16
ATOM     11  C   UNL     1      11.656  12.824  18.094  0.00  0.00    +0.000 C 
ATOM     12  C   UNL     1      10.720  11.905  18.825  0.00  0.00    +0.000 A 
ATOM     13  C   UNL     1      10.493  12.072  20.197  0.00  0.00    +0.000 A 
ATOM     14  C   UNL     1       9.623  11.224  20.879  0.00  0.00    +0.000 A 
ATOM     15  C   UNL     1       8.962  10.210  20.189  0.00  0.00    +0.000 A 
ATOM     16  C   UNL     1       9.163  10.036  18.812  0.00  0.00    +0.000 A 
ATOM     17  C   UNL     1      10.054  10.876  18.134  0.00  0.00    +0.000 A 
ENDBRANCH   1  16
BRANCH   8  18
ATOM     18  O   UNL     1       5.635   4.075  19.558  0.00  0.00    +0.000 OA
BRANCH  18  19
ATOM     19  C   UNL     1       4.265   4.009  19.548  0.00  0.00    +0.000 A 
ATOM     20  C   UNL     1       3.547   5.178  19.780  0.00  0.00    +0.000 A 
ATOM     21  C   UNL     1       2.155   5.139  19.760  0.00  0.00    +0.000 A 
ATOM     22  C   UNL     1       1.533   3.927  19.489  0.00  0.00    +0.000 A 
ATOM     23  N   UNL     1       2.198   2.780  19.226  0.00  0.00    +0.000 NA
ATOM     24  C   UNL     1       3.549   2.851  19.257  0.00  0.00    +0.000 A 
ENDBRANCH  18  19
ENDBRANCH   8  18
TORSDOF 3
ENDMDL
MODEL 2
REMARK VINA RESULT:      -8.0      4.962      6.448
REMARK  Name = 
REMARK  4 active torsions:
REMARK  status: ('A' for Active; 'I' for Inactive)
REMARK    1  A    between atoms: C_1  and  C_2
REMARK    2  A    between atoms: C_6  and  C_7
REMARK    3  A    between atoms: C_14  and  O_15
REMARK    4  A    between atoms: O_15  and  C_16
REMARK                            x       y       z     vdW  Elec       q    Type
REMARK                         _______ _______ _______ _____ _____    ______ ____
ROOT
ATOM      1  C   UNL     1       1.903   8.802  18.401  0.00  0.00    +0.000 C 
ATOM      2  O   UNL     1       1.941   9.032  17.196  0.00  0.00    +0.000 OA
ATOM      3  N   UNL     1       2.565   7.757  19.013  0.00  0.00    +0.000 N 
ATOM      4  C   UNL     1       3.331   6.837  18.290  0.00  0.00    +0.000 A 
ATOM      5  C   UNL     1       4.156   7.210  17.234  0.00  0.00    +0.000 A 
ATOM      6  C   UNL     1       4.825   6.220  16.518  0.00  0.00    +0.000 A 
ATOM      7  C   UNL     1       4.641   4.889  16.872  0.00  0.00    +0.000 A 
ATOM      8  C   UNL     1       3.843   4.618  17.971  0.00  0.00    +0.000 A 
ATOM      9  N   UNL     1       3.203   5.564  18.697  0.00  0.00    +0.000 NA
ATOM     10  H   UNL     1       2.178   7.372  19.863  0.00  0.00    +0.000 HD
ENDROOT
BRANCH   1  16
ATOM     11  C   UNL     1      -0.418   9.871  22.772  0.00  0.00    +0.000 C 
ATOM     12  C   UNL     1      -0.051  10.225  21.359  0.00  0.00    +0.000 A 
ATOM     13  C   UNL     1      -0.417  11.467  20.824  0.00  0.00    +0.000 A 
ATOM     14  C   UNL     1      -0.076  11.802  19.516  0.00  0.00    +0.000 A 
ATOM     15  C   UNL     1       0.646  10.901  18.736  0.00  0.00    +0.000 A 
ATOM     16  C   UNL     1       1.035   9.659  19.257  0.00  0.00    +0.000 A 
ATOM     17  C   UNL     1       0.673   9.316  20.566  0.00  0.00    +0.000 A 
ENDBRANCH   1  16
BRANCH   8  18
ATOM     18  O   UNL     1       3.676   3.282  18.314  0.00  0.00    +0.000 OA
BRANCH  18  19
ATOM     19  C   UNL     1       2.975   3.023  19.465  0.00  0.00    +0.000 A 
ATOM     20  C   UNL     1       1.587   3.091  19.421  0.00  0.00    +0.000 A 
ATOM     21  C   UNL     1       0.854   2.819  20.572  0.00  0.00    +0.000 A 
ATOM     22  C   UNL     1       1.544   2.470  21.726  0.00  0.00    +0.000 A 
ATOM     23  N   UNL     1       2.889   2.362  21.797  0.00  0.00    +0.000 NA
ATOM     24  C   UNL     1       3.572   2.636  20.661  0.00  0.00    +0.000 A 
ENDBRANCH  18  19
ENDBRANCH   8  18
TORSDOF 3
ENDMDL
MODEL 3
REMARK VINA RESULT:      -8.0      0.536      1.005
REMARK  Name = 
REMARK  4 active torsions:
REMARK  status: ('A' for Active; 'I' for Inactive)
REMARK    1  A    between atoms: C_1  and  C_2
REMARK    2  A    between atoms: C_6  and  C_7
REMARK    3  A    between atoms: C_14  and  O_15
REMARK    4  A    between atoms: O_15  and  C_16
REMARK                            x       y       z     vdW  Elec       q    Type
REMARK                         _______ _______ _______ _____ _____    ______ ____
ROOT
ATOM      1  C   UNL     1       8.324   9.002  18.112  0.00  0.00    +0.000 C 
ATOM      2  O   UNL     1       7.595   9.348  17.188  0.00  0.00    +0.000 OA
ATOM      3  N   UNL     1       8.385   7.717  18.613  0.00  0.00    +0.000 N 
ATOM      4  C   UNL     1       7.583   6.685  18.114  0.00  0.00    +0.000 A 
ATOM      5  C   UNL     1       7.323   6.525  16.757  0.00  0.00    +0.000 A 
ATOM      6  C   UNL     1       6.452   5.516  16.353  0.00  0.00    +0.000 A 
ATOM      7  C   UNL     1       5.861   4.708  17.315  0.00  0.00    +0.000 A 
ATOM      8  C   UNL     1       6.223   4.908  18.637  0.00  0.00    +0.000 A 
ATOM      9  N   UNL     1       7.086   5.864  19.051  0.00  0.00    +0.000 NA
ATOM     10  H   UNL     1       8.642   7.589  19.582  0.00  0.00    +0.000 HD
ENDROOT
BRANCH   1  16
ATOM     11  C   UNL     1      11.564  12.892  18.048  0.00  0.00    +0.000 C 
ATOM     12  C   UNL     1      10.666  11.944  18.789  0.00  0.00    +0.000 A 
ATOM     13  C   UNL     1      10.468  12.089  20.168  0.00  0.00    +0.000 A 
ATOM     14  C   UNL     1       9.633  11.215  20.859  0.00  0.00    +0.000 A 
ATOM     15  C   UNL     1       8.977  10.195  20.173  0.00  0.00    +0.000 A 
ATOM     16  C   UNL     1       9.149  10.042  18.789  0.00  0.00    +0.000 A 
ATOM     17  C   UNL     1      10.006  10.909  18.100  0.00  0.00    +0.000 A 
ENDBRANCH   1  16
BRANCH   8  18
ATOM     18  O   UNL     1       5.626   4.084  19.584  0.00  0.00    +0.000 OA
BRANCH  18  19
ATOM     19  C   UNL     1       4.260   3.970  19.528  0.00  0.00    +0.000 A 
ATOM     20  C   UNL     1       3.715   2.728  19.220  0.00  0.00    +0.000 A 
ATOM     21  C   UNL     1       2.331   2.584  19.171  0.00  0.00    +0.000 A 
ATOM     22  C   UNL     1       1.542   3.692  19.451  0.00  0.00    +0.000 A 
ATOM     23  N   UNL     1       2.036   4.904  19.786  0.00  0.00    +0.000 NA
ATOM     24  C   UNL     1       3.385   5.012  19.821  0.00  0.00    +0.000 A 
ENDBRANCH  18  19
ENDBRANCH   8  18
TORSDOF 3
ENDMDL
MODEL 4
REMARK VINA RESULT:      -8.0      5.791      9.045
REMARK  Name = 
REMARK  4 active torsions:
REMARK  status: ('A' for Active; 'I' for Inactive)
REMARK    1  A    between atoms: C_1  and  C_2
REMARK    2  A    between atoms: C_6  and  C_7
REMARK    3  A    between atoms: C_14  and  O_15
REMARK    4  A    between atoms: O_15  and  C_16
REMARK                            x       y       z     vdW  Elec       q    Type
REMARK                         _______ _______ _______ _____ _____    ______ ____
ROOT
ATOM      1  C   UNL     1       2.200   6.173  19.735  0.00  0.00    +0.000 C 
ATOM      2  O   UNL     1       1.442   5.703  20.578  0.00  0.00    +0.000 OA
ATOM      3  N   UNL     1       2.310   7.520  19.456  0.00  0.00    +0.000 N 
ATOM      4  C   UNL     1       1.530   8.481  20.108  0.00  0.00    +0.000 A 
ATOM      5  C   UNL     1       1.247   8.422  21.468  0.00  0.00    +0.000 A 
ATOM      6  C   UNL     1       0.398   9.378  22.022  0.00  0.00    +0.000 A 
ATOM      7  C   UNL     1      -0.148  10.355  21.199  0.00  0.00    +0.000 A 
ATOM      8  C   UNL     1       0.234  10.365  19.868  0.00  0.00    +0.000 A 
ATOM      9  N   UNL     1       1.076   9.462  19.313  0.00  0.00    +0.000 NA
ATOM     10  H   UNL     1       2.590   7.799  18.526  0.00  0.00    +0.000 HD
ENDROOT
BRANCH   1  16
ATOM     11  C   UNL     1       3.585   1.516  18.310  0.00  0.00    +0.000 C 
ATOM     12  C   UNL     1       3.657   3.009  18.165  0.00  0.00    +0.000 A 
ATOM     13  C   UNL     1       4.409   3.584  17.132  0.00  0.00    +0.000 A 
ATOM     14  C   UNL     1       4.475   4.969  16.992  0.00  0.00    +0.000 A 
ATOM     15  C   UNL     1       3.778   5.789  17.875  0.00  0.00    +0.000 A 
ATOM     16  C   UNL     1       3.007   5.233  18.906  0.00  0.00    +0.000 A 
ATOM     17  C   UNL     1       2.958   3.842  19.058  0.00  0.00    +0.000 A 
ENDBRANCH   1  16
BRANCH   8  18
ATOM     18  O   UNL     1      -0.318  11.353  19.062  0.00  0.00    +0.000 OA
BRANCH  18  19
ATOM     19  C   UNL     1      -1.604  11.148  18.629  0.00  0.00    +0.000 A 
ATOM     20  C   UNL     1      -1.852  10.067  17.790  0.00  0.00    +0.000 A 
ATOM     21  C   UNL     1      -3.152   9.830  17.350  0.00  0.00    +0.000 A 
ATOM     22  C   UNL     1      -4.161  10.681  17.785  0.00  0.00    +0.000 A 
ATOM     23  N   UNL     1      -3.961  11.719  18.625  0.00  0.00    +0.000 NA
ATOM     24  C   UNL     1      -2.687  11.925  19.032  0.00  0.00    +0.000 A 
ENDBRANCH  18  19
ENDBRANCH   8  18
TORSDOF 3
ENDMDL
MODEL 5
REMARK VINA RESULT:      -7.9      4.385      7.014
REMARK  Name = 
REMARK  4 active torsions:
REMARK  status: ('A' for Active; 'I' for Inactive)
REMARK    1  A    between atoms: C_1  and  C_2
REMARK    2  A    between atoms: C_6  and  C_7
REMARK    3  A    between atoms: C_14  and  O_15
REMARK    4  A    between atoms: O_15  and  C_16
REMARK                            x       y       z     vdW  Elec       q    Type
REMARK                         _______ _______ _______ _____ _____    ______ ____
ROOT
ATOM      1  C   UNL     1       1.573   7.717  20.225  0.00  0.00    +0.000 C 
ATOM      2  O   UNL     1       1.260   7.153  21.269  0.00  0.00    +0.000 OA
ATOM      3  N   UNL     1       2.346   7.144  19.235  0.00  0.00    +0.000 N 
ATOM      4  C   UNL     1       2.870   5.852  19.354  0.00  0.00    +0.000 A 
ATOM      5  C   UNL     1       2.146   4.795  19.897  0.00  0.00    +0.000 A 
ATOM      6  C   UNL     1       2.771   3.560  20.049  0.00  0.00    +0.000 A 
ATOM      7  C   UNL     1       4.099   3.421  19.666  0.00  0.00    +0.000 A 
ATOM      8  C   UNL     1       4.720   4.515  19.085  0.00  0.00    +0.000 A 
ATOM      9  N   UNL     1       4.126   5.717  18.904  0.00  0.00    +0.000 NA
ATOM     10  H   UNL     1       2.905   7.748  18.649  0.00  0.00    +0.000 HD
ENDROOT
BRANCH   1  16
ATOM     11  C   UNL     1      -0.342  12.089  21.913  0.00  0.00    +0.000 C 
ATOM     12  C   UNL     1       0.287  11.263  20.828  0.00  0.00    +0.000 A 
ATOM     13  C   UNL     1       0.629  11.850  19.603  0.00  0.00    +0.000 A 
ATOM     14  C   UNL     1       1.216  11.089  18.594  0.00  0.00    +0.000 A 
ATOM     15  C   UNL     1       1.477   9.738  18.808  0.00  0.00    +0.000 A 
ATOM     16  C   UNL     1       1.156   9.135  20.033  0.00  0.00    +0.000 A 
ATOM     17  C   UNL     1       0.547   9.897  21.038  0.00  0.00    +0.000 A 
ENDBRANCH   1  16
BRANCH   8  18
ATOM     18  O   UNL     1       6.046   4.355  18.702  0.00  0.00    +0.000 OA
BRANCH  18  19
ATOM     19  C   UNL     1       6.332   4.552  17.375  0.00  0.00    +0.000 A 
ATOM     20  C   UNL     1       5.662   3.778  16.434  0.00  0.00    +0.000 A 
ATOM     21  C   UNL     1       5.924   3.970  15.080  0.00  0.00    +0.000 A 
ATOM     22  C   UNL     1       6.840   4.950  14.719  0.00  0.00    +0.000 A 
ATOM     23  N   UNL     1       7.484   5.742  15.603  0.00  0.00    +0.000 NA
ATOM     24  C   UNL     1       7.210   5.528  16.911  0.00  0.00    +0.000 A 
ENDBRANCH  18  19
ENDBRANCH   8  18
TORSDOF 3
ENDMDL
MODEL 6
REMARK VINA RESULT:      -7.9      4.951      6.582
REMARK  Name = 
REMARK  4 active torsions:
REMARK  status: ('A' for Active; 'I' for Inactive)
REMARK    1  A    between atoms: C_1  and  C_2
REMARK    2  A    between atoms: C_6  and  C_7
REMARK    3  A    between atoms: C_14  and  O_15
REMARK    4  A    between atoms: O_15  and  C_16
REMARK                            x       y       z     vdW  Elec       q    Type
REMARK                         _______ _______ _______ _____ _____    ______ ____
ROOT
ATOM      1  C   UNL     1       1.818   8.832  18.318  0.00  0.00    +0.000 C 
ATOM      2  O   UNL     1       1.922   9.070  17.119  0.00  0.00    +0.000 OA
ATOM      3  N   UNL     1       2.452   7.787  18.960  0.00  0.00    +0.000 N 
ATOM      4  C   UNL     1       3.264   6.876  18.275  0.00  0.00    +0.000 A 
ATOM      5  C   UNL     1       4.144   7.263  17.269  0.00  0.00    +0.000 A 
ATOM      6  C   UNL     1       4.859   6.282  16.586  0.00  0.00    +0.000 A 
ATOM      7  C   UNL     1       4.664   4.947  16.919  0.00  0.00    +0.000 A 
ATOM      8  C   UNL     1       3.807   4.664  17.971  0.00  0.00    +0.000 A 
ATOM      9  N   UNL     1       3.122   5.601  18.665  0.00  0.00    +0.000 NA
ATOM     10  H   UNL     1       2.021   7.394  19.784  0.00  0.00    +0.000 HD
ENDROOT
BRANCH   1  16
ATOM     11  C   UNL     1      -2.123  11.973  18.802  0.00  0.00    +0.000 C 
ATOM     12  C   UNL     1      -1.021  11.147  19.402  0.00  0.00    +0.000 A 
ATOM     13  C   UNL     1      -0.897  11.038  20.793  0.00  0.00    +0.000 A 
ATOM     14  C   UNL     1       0.122  10.270  21.353  0.00  0.00    +0.000 A 
ATOM     15  C   UNL     1       1.015   9.593  20.526  0.00  0.00    +0.000 A 
ATOM     16  C   UNL     1       0.898   9.677  19.131  0.00  0.00    +0.000 A 
ATOM     17  C   UNL     1      -0.114  10.466  18.570  0.00  0.00    +0.000 A 
ENDBRANCH   1  16
BRANCH   8  18
ATOM     18  O   UNL     1       3.631   3.324  18.294  0.00  0.00    +0.000 OA
BRANCH  18  19
ATOM     19  C   UNL     1       2.945   3.054  19.452  0.00  0.00    +0.000 A 
ATOM     20  C   UNL     1       1.556   3.113  19.424  0.00  0.00    +0.000 A 
ATOM     21  C   UNL     1       0.838   2.830  20.583  0.00  0.00    +0.000 A 
ATOM     22  C   UNL     1       1.544   2.479  21.727  0.00  0.00    +0.000 A 
ATOM     23  N   UNL     1       2.890   2.380  21.781  0.00  0.00    +0.000 NA
ATOM     24  C   UNL     1       3.558   2.665  20.639  0.00  0.00    +0.000 A 
ENDBRANCH  18  19
ENDBRANCH   8  18
TORSDOF 3
ENDMDL
MODEL 7
REMARK VINA RESULT:      -7.8      5.600      8.775
REMARK  Name = 
REMARK  4 active torsions:
REMARK  status: ('A' for Active; 'I' for Inactive)
REMARK    1  A    between atoms: C_1  and  C_2
REMARK    2  A    between atoms: C_6  and  C_7
REMARK    3  A    between atoms: C_14  and  O_15
REMARK    4  A    between atoms: O_15  and  C_16
REMARK                            x       y       z     vdW  Elec       q    Type
REMARK                         _______ _______ _______ _____ _____    ______ ____
ROOT
ATOM      1  C   UNL     1       2.207   6.279  19.614  0.00  0.00    +0.000 C 
ATOM      2  O   UNL     1       1.456   5.736  20.417  0.00  0.00    +0.000 OA
ATOM      3  N   UNL     1       2.284   7.644  19.423  0.00  0.00    +0.000 N 
ATOM      4  C   UNL     1       1.474   8.540  20.128  0.00  0.00    +0.000 A 
ATOM      5  C   UNL     1       1.182   8.387  21.479  0.00  0.00    +0.000 A 
ATOM      6  C   UNL     1       0.304   9.282  22.085  0.00  0.00    +0.000 A 
ATOM      7  C   UNL     1      -0.262  10.295  21.322  0.00  0.00    +0.000 A 
ATOM      8  C   UNL     1       0.130  10.402  19.998  0.00  0.00    +0.000 A 
ATOM      9  N   UNL     1       1.000   9.559  19.394  0.00  0.00    +0.000 NA
ATOM     10  H   UNL     1       2.564   7.990  18.516  0.00  0.00    +0.000 HD
ENDROOT
BRANCH   1  16
ATOM     11  C   UNL     1       6.678   4.648  17.887  0.00  0.00    +0.000 C 
ATOM     12  C   UNL     1       5.179   4.576  17.920  0.00  0.00    +0.000 A 
ATOM     13  C   UNL     1       4.502   3.583  17.201  0.00  0.00    +0.000 A 
ATOM     14  C   UNL     1       3.111   3.511  17.232  0.00  0.00    +0.000 A 
ATOM     15  C   UNL     1       2.387   4.424  17.994  0.00  0.00    +0.000 A 
ATOM     16  C   UNL     1       3.046   5.417  18.734  0.00  0.00    +0.000 A 
ATOM     17  C   UNL     1       4.443   5.500  18.685  0.00  0.00    +0.000 A 
ENDBRANCH   1  16
BRANCH   8  18
ATOM     18  O   UNL     1      -0.442  11.425  19.252  0.00  0.00    +0.000 OA
BRANCH  18  19
ATOM     19  C   UNL     1      -1.701  11.197  18.757  0.00  0.00    +0.000 A 
ATOM     20  C   UNL     1      -1.886  10.120  17.896  0.00  0.00    +0.000 A 
ATOM     21  C   UNL     1      -3.157   9.860  17.393  0.00  0.00    +0.000 A 
ATOM     22  C   UNL     1      -4.204  10.683  17.788  0.00  0.00    +0.000 A 
ATOM     23  N   UNL     1      -4.068  11.716  18.647  0.00  0.00    +0.000 NA
ATOM     24  C   UNL     1      -2.819  11.945  19.116  0.00  0.00    +0.000 A 
ENDBRANCH  18  19
ENDBRANCH   8  18
TORSDOF 3
ENDMDL
MODEL 8
REMARK VINA RESULT:      -7.8      0.801      1.787
REMARK  Name = 
REMARK  4 active torsions:
REMARK  status: ('A' for Active; 'I' for Inactive)
REMARK    1  A    between atoms: C_1  and  C_2
REMARK    2  A    between atoms: C_6  and  C_7
REMARK    3  A    between atoms: C_14  and  O_15
REMARK    4  A    between atoms: O_15  and  C_16
REMARK                            x       y       z     vdW  Elec       q    Type
REMARK                         _______ _______ _______ _____ _____    ______ ____
ROOT
ATOM      1  C   UNL     1       8.476   9.309  18.362  0.00  0.00    +0.000 C 
ATOM      2  O   UNL     1       7.733   9.684  17.461  0.00  0.00    +0.000 OA
ATOM      3  N   UNL     1       8.590   7.998  18.779  0.00  0.00    +0.000 N 
ATOM      4  C   UNL     1       7.831   6.969  18.213  0.00  0.00    +0.000 A 
ATOM      5  C   UNL     1       7.576   6.887  16.848  0.00  0.00    +0.000 A 
ATOM      6  C   UNL     1       6.747   5.871  16.377  0.00  0.00    +0.000 A 
ATOM      7  C   UNL     1       6.190   4.978  17.284  0.00  0.00    +0.000 A 
ATOM      8  C   UNL     1       6.545   5.107  18.617  0.00  0.00    +0.000 A 
ATOM      9  N   UNL     1       7.368   6.069  19.094  0.00  0.00    +0.000 NA
ATOM     10  H   UNL     1       8.853   7.818  19.738  0.00  0.00    +0.000 HD
ENDROOT
BRANCH   1  16
ATOM     11  C   UNL     1       9.284  12.278  22.383  0.00  0.00    +0.000 C 
ATOM     12  C   UNL     1       9.701  11.737  21.046  0.00  0.00    +0.000 A 
ATOM     13  C   UNL     1      10.939  12.092  20.495  0.00  0.00    +0.000 A 
ATOM     14  C   UNL     1      11.332  11.590  19.256  0.00  0.00    +0.000 A 
ATOM     15  C   UNL     1      10.495  10.717  18.566  0.00  0.00    +0.000 A 
ATOM     16  C   UNL     1       9.259  10.336  19.107  0.00  0.00    +0.000 A 
ATOM     17  C   UNL     1       8.857  10.858  20.343  0.00  0.00    +0.000 A 
ENDBRANCH   1  16
BRANCH   8  18
ATOM     18  O   UNL     1       5.983   4.201  19.508  0.00  0.00    +0.000 OA
BRANCH  18  19
ATOM     19  C   UNL     1       4.618   4.067  19.471  0.00  0.00    +0.000 A 
ATOM     20  C   UNL     1       4.085   2.793  19.299  0.00  0.00    +0.000 A 
ATOM     21  C   UNL     1       2.702   2.630  19.273  0.00  0.00    +0.000 A 
ATOM     22  C   UNL     1       1.903   3.754  19.439  0.00  0.00    +0.000 A 
ATOM     23  N   UNL     1       2.385   4.999  19.642  0.00  0.00    +0.000 NA
ATOM     24  C   UNL     1       3.733   5.124  19.658  0.00  0.00    +0.000 A 
ENDBRANCH  18  19
ENDBRANCH   8  18
TORSDOF 3
ENDMDL
MODEL 9
REMARK VINA RESULT:      -7.7      5.726      9.008
REMARK  Name = 
REMARK  4 active torsions:
REMARK  status: ('A' for Active; 'I' for Inactive)
REMARK    1  A    between atoms: C_1  and  C_2
REMARK    2  A    between atoms: C_6  and  C_7
REMARK    3  A    between atoms: C_14  and  O_15
REMARK    4  A    between atoms: O_15  and  C_16
REMARK                            x       y       z     vdW  Elec       q    Type
REMARK                         _______ _______ _______ _____ _____    ______ ____
ROOT
ATOM      1  C   UNL     1       2.188   6.263  19.775  0.00  0.00    +0.000 C 
ATOM      2  O   UNL     1       1.463   5.764  20.630  0.00  0.00    +0.000 OA
ATOM      3  N   UNL     1       2.257   7.616  19.509  0.00  0.00    +0.000 N 
ATOM      4  C   UNL     1       1.469   8.549  20.192  0.00  0.00    +0.000 A 
ATOM      5  C   UNL     1       1.222   8.467  21.558  0.00  0.00    +0.000 A 
ATOM      6  C   UNL     1       0.363   9.395  22.144  0.00  0.00    +0.000 A 
ATOM      7  C   UNL     1      -0.228  10.366  21.347  0.00  0.00    +0.000 A 
ATOM      8  C   UNL     1       0.121  10.402  20.007  0.00  0.00    +0.000 A 
ATOM      9  N   UNL     1       0.972   9.528  19.421  0.00  0.00    +0.000 NA
ATOM     10  H   UNL     1       2.507   7.913  18.577  0.00  0.00    +0.000 HD
ENDROOT
BRANCH   1  16
ATOM     11  C   UNL     1       3.506   1.666  18.113  0.00  0.00    +0.000 C 
ATOM     12  C   UNL     1       3.617   3.162  18.060  0.00  0.00    +0.000 A 
ATOM     13  C   UNL     1       4.414   3.778  17.087  0.00  0.00    +0.000 A 
ATOM     14  C   UNL     1       4.518   5.166  17.032  0.00  0.00    +0.000 A 
ATOM     15  C   UNL     1       3.813   5.950  17.942  0.00  0.00    +0.000 A 
ATOM     16  C   UNL     1       2.998   5.354  18.915  0.00  0.00    +0.000 A 
ATOM     17  C   UNL     1       2.912   3.958  18.982  0.00  0.00    +0.000 A 
ENDBRANCH   1  16
BRANCH   8  18
ATOM     18  O   UNL     1      -0.475  11.385  19.227  0.00  0.00    +0.000 OA
BRANCH  18  19
ATOM     19  C   UNL     1      -1.735  11.116  18.753  0.00  0.00    +0.000 A 
ATOM     20  C   UNL     1      -2.774  11.962  19.127  0.00  0.00    +0.000 A 
ATOM     21  C   UNL     1      -4.058  11.717  18.647  0.00  0.00    +0.000 A 
ATOM     22  C   UNL     1      -4.249  10.638  17.793  0.00  0.00    +0.000 A 
ATOM     23  N   UNL     1      -3.257   9.817  17.383  0.00  0.00    +0.000 NA
ATOM     24  C   UNL     1      -2.022  10.080  17.870  0.00  0.00    +0.000 A 
ENDBRANCH  18  19
ENDBRANCH   8  18
TORSDOF 3
ENDMDL
