MODEL 1
REMARK VINA RESULT:      -7.1      0.000      0.000
REMARK  Name = 
REMARK  8 active torsions:
REMARK  status: ('A' for Active; 'I' for Inactive)
REMARK    1  A    between atoms: C_1  and  N_2
REMARK    2  A    between atoms: N_2  and  C_3
REMARK    3  A    between atoms: N_2  and  C_4
REMARK    4  A    between atoms: C_4  and  C_5
REMARK    5  A    between atoms: C_5  and  N_6
REMARK    6  A    between atoms: C_7  and  C_9
REMARK    7  A    between atoms: C_12  and  O_13
REMARK    8  A    between atoms: O_13  and  C_14
REMARK                            x       y       z     vdW  Elec       q    Type
REMARK                         _______ _______ _______ _____ _____    ______ ____
ROOT
ATOM      1  C   UNL     1       5.586   5.257  16.173  0.00  0.00    +0.000 A 
ATOM      2  C   UNL     1       4.736   4.178  16.453  0.00  0.00    +0.000 A 
ATOM      3  C   UNL     1       3.631   4.349  17.291  0.00  0.00    +0.000 A 
ATOM      4  C   UNL     1       3.372   5.592  17.865  0.00  0.00    +0.000 A 
ATOM      5  C   UNL     1       4.200   6.680  17.562  0.00  0.00    +0.000 A 
ATOM      6  C   UNL     1       5.322   6.507  16.746  0.00  0.00    +0.000 A 
ENDROOT
BRANCH   1   8
ATOM      7  N   UNL     1       6.494   5.099  13.906  0.00  0.00    +0.000 N 
ATOM      8  C   UNL     1       6.738   5.018  15.257  0.00  0.00    +0.000 C 
ATOM      9  O   UNL     1       7.834   4.715  15.720  0.00  0.00    +0.000 OA
ATOM     10  H   UNL     1       5.585   5.329  13.533  0.00  0.00    +0.000 HD
BRANCH   7  11
ATOM     11  C   UNL     1       7.540   4.792  12.950  0.00  0.00    +0.000 C 
BRANCH  11  12
ATOM     12  C   UNL     1       7.039   3.933  11.773  0.00  0.00    +0.000 C 
BRANCH  12  14
ATOM     13  C   UNL     1       4.647   3.507  11.664  0.00  0.00    +0.000 C 
ATOM     14  N   UNL     1       5.946   2.993  12.112  0.00  0.00    +0.000 NA
ATOM     15  C   UNL     1       6.199   1.695  11.478  0.00  0.00    +0.000 C 
ENDBRANCH  12  14
ENDBRANCH  11  12
ENDBRANCH   7  11
ENDBRANCH   1   8
BRANCH   4  16
ATOM     16  O   UNL     1       2.247   5.664  18.654  0.00  0.00    +0.000 OA
BRANCH  16  17
ATOM     17  C   UNL     1       1.934   4.637  19.513  0.00  0.00    +0.000 A 
ATOM     18  C   UNL     1       2.509   4.710  20.783  0.00  0.00    +0.000 A 
ATOM     19  C   UNL     1       2.246   3.721  21.732  0.00  0.00    +0.000 A 
ATOM     20  C   UNL     1       1.406   2.655  21.412  0.00  0.00    +0.000 A 
ATOM     21  C   UNL     1       0.805   2.596  20.155  0.00  0.00    +0.000 A 
ATOM     22  C   UNL     1       1.045   3.601  19.216  0.00  0.00    +0.000 A 
ENDBRANCH  16  17
ENDBRANCH   4  16
TORSDOF 6
ENDMDL
MODEL 2
REMARK VINA RESULT:      -7.0      0.255      1.077
REMARK  Name = 
REMARK  8 active torsions:
REMARK  status: ('A' for Active; 'I' for Inactive)
REMARK    1  A    between atoms: C_1  and  N_2
REMARK    2  A    between atoms: N_2  and  C_3
REMARK    3  A    between atoms: N_2  and  C_4
REMARK    4  A    between atoms: C_4  and  C_5
REMARK    5  A    between atoms: C_5  and  N_6
REMARK    6  A    between atoms: C_7  and  C_9
REMARK    7  A    between atoms: C_12  and  O_13
REMARK    8  A    between atoms: O_13  and  C_14
REMARK                            x       y       z     vdW  Elec       q    Type
REMARK                         _______ _______ _______ _____ _____    ______ ____
ROOT
ATOM      1  C   UNL     1       5.630   5.328  16.187  0.00  0.00    +0.000 A 
ATOM      2  C   UNL     1       4.960   4.248  16.781  0.00  0.00    +0.000 A 
ATOM      3  C   UNL     1       3.872   4.473  17.628  0.00  0.00    +0.000 A 
ATOM      4  C   UNL     1       3.450   5.774  17.898  0.00  0.00    +0.000 A 
ATOM      5  C   UNL     1       4.096   6.853  17.282  0.00  0.00    +0.000 A 
ATOM      6  C   UNL     1       5.203   6.633  16.455  0.00  0.00    +0.000 A 
ENDROOT
BRANCH   1   8
ATOM      7  N   UNL     1       6.581   5.238  13.934  0.00  0.00    +0.000 N 
ATOM      8  C   UNL     1       6.773   5.024  15.280  0.00  0.00    +0.000 C 
ATOM      9  O   UNL     1       7.811   4.558  15.739  0.00  0.00    +0.000 OA
ATOM     10  H   UNL     1       5.716   5.602  13.562  0.00  0.00    +0.000 HD
BRANCH   7  11
ATOM     11  C   UNL     1       7.611   4.883  12.978  0.00  0.00    +0.000 C 
BRANCH  11  12
ATOM     12  C   UNL     1       7.065   4.078  11.783  0.00  0.00    +0.000 C 
BRANCH  12  14
ATOM     13  C   UNL     1       4.718   3.440  11.772  0.00  0.00    +0.000 C 
ATOM     14  N   UNL     1       6.079   3.033  12.139  0.00  0.00    +0.000 NA
ATOM     15  C   UNL     1       6.414   1.784  11.445  0.00  0.00    +0.000 C 
ENDBRANCH  12  14
ENDBRANCH  11  12
ENDBRANCH   7  11
ENDBRANCH   1   8
BRANCH   4  16
ATOM     16  O   UNL     1       2.355   5.889  18.722  0.00  0.00    +0.000 OA
BRANCH  16  17
ATOM     17  C   UNL     1       2.016   4.865  19.575  0.00  0.00    +0.000 A 
ATOM     18  C   UNL     1       1.164   3.891  19.048  0.00  0.00    +0.000 A 
ATOM     19  C   UNL     1       0.769   2.805  19.831  0.00  0.00    +0.000 A 
ATOM     20  C   UNL     1       1.225   2.691  21.144  0.00  0.00    +0.000 A 
ATOM     21  C   UNL     1       2.102   3.644  21.662  0.00  0.00    +0.000 A 
ATOM     22  C   UNL     1       2.520   4.714  20.870  0.00  0.00    +0.000 A 
ENDBRANCH  16  17
ENDBRANCH   4  16
TORSDOF 6
ENDMDL
MODEL 3
REMARK VINA RESULT:      -6.9      1.403      1.674
REMARK  Name = 
REMARK  8 active torsions:
REMARK  status: ('A' for Active; 'I' for Inactive)
REMARK    1  A    between atoms: C_1  and  N_2
REMARK    2  A    between atoms: N_2  and  C_3
REMARK    3  A    between atoms: N_2  and  C_4
REMARK    4  A    between atoms: C_4  and  C_5
REMARK    5  A    between atoms: C_5  and  N_6
REMARK    6  A    between atoms: C_7  and  C_9
REMARK    7  A    between atoms: C_12  and  O_13
REMARK    8  A    between atoms: O_13  and  C_14
REMARK                            x       y       z     vdW  Elec       q    Type
REMARK                         _______ _______ _______ _____ _____    ______ ____
ROOT
ATOM      1  C   UNL     1       6.479   4.964  15.714  0.00  0.00    +0.000 A 
ATOM      2  C   UNL     1       5.152   5.404  15.826  0.00  0.00    +0.000 A 
ATOM      3  C   UNL     1       4.509   5.395  17.066  0.00  0.00    +0.000 A 
ATOM      4  C   UNL     1       5.178   4.938  18.201  0.00  0.00    +0.000 A 
ATOM      5  C   UNL     1       6.513   4.528  18.098  0.00  0.00    +0.000 A 
ATOM      6  C   UNL     1       7.152   4.509  16.853  0.00  0.00    +0.000 A 
ENDROOT
BRANCH   1   8
ATOM      7  N   UNL     1       6.545   4.256  13.372  0.00  0.00    +0.000 N 
ATOM      8  C   UNL     1       7.118   5.013  14.368  0.00  0.00    +0.000 C 
ATOM      9  O   UNL     1       8.139   5.673  14.200  0.00  0.00    +0.000 OA
ATOM     10  H   UNL     1       5.717   3.700  13.523  0.00  0.00    +0.000 HD
BRANCH   7  11
ATOM     11  C   UNL     1       7.158   4.180  12.060  0.00  0.00    +0.000 C 
BRANCH  11  12
ATOM     12  C   UNL     1       7.030   2.784  11.421  0.00  0.00    +0.000 C 
BRANCH  12  14
ATOM     13  C   UNL     1       4.610   2.742  11.178  0.00  0.00    +0.000 C 
ATOM     14  N   UNL     1       5.778   2.064  11.750  0.00  0.00    +0.000 NA
ATOM     15  C   UNL     1       5.847   0.695  11.229  0.00  0.00    +0.000 C 
ENDBRANCH  12  14
ENDBRANCH  11  12
ENDBRANCH   7  11
ENDBRANCH   1   8
BRANCH   4  16
ATOM     16  O   UNL     1       4.468   4.993  19.377  0.00  0.00    +0.000 OA
BRANCH  16  17
ATOM     17  C   UNL     1       3.337   4.229  19.543  0.00  0.00    +0.000 A 
ATOM     18  C   UNL     1       2.283   4.841  20.223  0.00  0.00    +0.000 A 
ATOM     19  C   UNL     1       1.087   4.152  20.435  0.00  0.00    +0.000 A 
ATOM     20  C   UNL     1       0.945   2.846  19.967  0.00  0.00    +0.000 A 
ATOM     21  C   UNL     1       1.985   2.243  19.260  0.00  0.00    +0.000 A 
ATOM     22  C   UNL     1       3.169   2.943  19.023  0.00  0.00    +0.000 A 
ENDBRANCH  16  17
ENDBRANCH   4  16
TORSDOF 6
ENDMDL
MODEL 4
REMARK VINA RESULT:      -6.9      5.205      7.007
REMARK  Name = 
REMARK  8 active torsions:
REMARK  status: ('A' for Active; 'I' for Inactive)
REMARK    1  A    between atoms: C_1  and  N_2
REMARK    2  A    between atoms: N_2  and  C_3
REMARK    3  A    between atoms: N_2  and  C_4
REMARK    4  A    between atoms: C_4  and  C_5
REMARK    5  A    between atoms: C_5  and  N_6
REMARK    6  A    between atoms: C_7  and  C_9
REMARK    7  A    between atoms: C_12  and  O_13
REMARK    8  A    between atoms: O_13  and  C_14
REMARK                            x       y       z     vdW  Elec       q    Type
REMARK                         _______ _______ _______ _____ _____    ______ ____
ROOT
ATOM      1  C   UNL     1       2.349   7.220  19.397  0.00  0.00    +0.000 A 
ATOM      2  C   UNL     1       2.343   7.757  18.102  0.00  0.00    +0.000 A 
ATOM      3  C   UNL     1       1.659   8.945  17.834  0.00  0.00    +0.000 A 
ATOM      4  C   UNL     1       0.968   9.602  18.852  0.00  0.00    +0.000 A 
ATOM      5  C   UNL     1       0.999   9.086  20.153  0.00  0.00    +0.000 A 
ATOM      6  C   UNL     1       1.659   7.882  20.419  0.00  0.00    +0.000 A 
ENDROOT
BRANCH   1   8
ATOM      7  N   UNL     1       4.152   5.690  18.768  0.00  0.00    +0.000 N 
ATOM      8  C   UNL     1       3.111   5.959  19.625  0.00  0.00    +0.000 C 
ATOM      9  O   UNL     1       2.767   5.190  20.518  0.00  0.00    +0.000 OA
ATOM     10  H   UNL     1       4.416   6.317  18.023  0.00  0.00    +0.000 HD
BRANCH   7  11
ATOM     11  C   UNL     1       4.884   4.442  18.867  0.00  0.00    +0.000 C 
BRANCH  11  12
ATOM     12  C   UNL     1       4.272   3.321  18.007  0.00  0.00    +0.000 C 
BRANCH  12  14
ATOM     13  C   UNL     1       4.299   2.169  20.149  0.00  0.00    +0.000 C 
ATOM     14  N   UNL     1       3.807   2.138  18.767  0.00  0.00    +0.000 NA
ATOM     15  C   UNL     1       2.341   2.105  18.777  0.00  0.00    +0.000 C 
ENDBRANCH  12  14
ENDBRANCH  11  12
ENDBRANCH   7  11
ENDBRANCH   1   8
BRANCH   4  16
ATOM     16  O   UNL     1       0.349  10.777  18.493  0.00  0.00    +0.000 OA
BRANCH  16  17
ATOM     17  C   UNL     1      -1.013  10.817  18.311  0.00  0.00    +0.000 A 
ATOM     18  C   UNL     1      -1.701  11.765  19.072  0.00  0.00    +0.000 A 
ATOM     19  C   UNL     1      -3.086  11.892  18.953  0.00  0.00    +0.000 A 
ATOM     20  C   UNL     1      -3.786  11.069  18.072  0.00  0.00    +0.000 A 
ATOM     21  C   UNL     1      -3.099  10.144  17.287  0.00  0.00    +0.000 A 
ATOM     22  C   UNL     1      -1.711  10.038  17.385  0.00  0.00    +0.000 A 
ENDBRANCH  16  17
ENDBRANCH   4  16
TORSDOF 6
ENDMDL
MODEL 5
REMARK VINA RESULT:      -6.8      5.482      7.521
REMARK  Name = 
REMARK  8 active torsions:
REMARK  status: ('A' for Active; 'I' for Inactive)
REMARK    1  A    between atoms: C_1  and  N_2
REMARK    2  A    between atoms: N_2  and  C_3
REMARK    3  A    between atoms: N_2  and  C_4
REMARK    4  A    between atoms: C_4  and  C_5
REMARK    5  A    between atoms: C_5  and  N_6
REMARK    6  A    between atoms: C_7  and  C_9
REMARK    7  A    between atoms: C_12  and  O_13
REMARK    8  A    between atoms: O_13  and  C_14
REMARK                            x       y       z     vdW  Elec       q    Type
REMARK                         _______ _______ _______ _____ _____    ______ ____
ROOT
ATOM      1  C   UNL     1       2.219   7.304  19.523  0.00  0.00    +0.000 A 
ATOM      2  C   UNL     1       1.497   8.028  20.483  0.00  0.00    +0.000 A 
ATOM      3  C   UNL     1       0.925   9.259  20.155  0.00  0.00    +0.000 A 
ATOM      4  C   UNL     1       1.077   9.784  18.872  0.00  0.00    +0.000 A 
ATOM      5  C   UNL     1       1.770   9.050  17.902  0.00  0.00    +0.000 A 
ATOM      6  C   UNL     1       2.368   7.829  18.234  0.00  0.00    +0.000 A 
ENDROOT
BRANCH   1   8
ATOM      7  N   UNL     1       2.022   5.193  20.745  0.00  0.00    +0.000 N 
ATOM      8  C   UNL     1       2.791   5.988  19.927  0.00  0.00    +0.000 C 
ATOM      9  O   UNL     1       3.923   5.678  19.568  0.00  0.00    +0.000 OA
ATOM     10  H   UNL     1       1.100   5.464  21.052  0.00  0.00    +0.000 HD
BRANCH   7  11
ATOM     11  C   UNL     1       2.543   3.940  21.254  0.00  0.00    +0.000 C 
BRANCH  11  12
ATOM     12  C   UNL     1       1.911   2.710  20.575  0.00  0.00    +0.000 C 
BRANCH  12  14
ATOM     13  C   UNL     1       2.464   2.631  18.208  0.00  0.00    +0.000 C 
ATOM     14  N   UNL     1       2.751   2.075  19.534  0.00  0.00    +0.000 NA
ATOM     15  C   UNL     1       4.168   2.286  19.850  0.00  0.00    +0.000 C 
ENDBRANCH  12  14
ENDBRANCH  11  12
ENDBRANCH   7  11
ENDBRANCH   1   8
BRANCH   4  16
ATOM     16  O   UNL     1       0.455  10.989  18.641  0.00  0.00    +0.000 OA
BRANCH  16  17
ATOM     17  C   UNL     1      -0.909  11.046  18.473  0.00  0.00    +0.000 A 
ATOM     18  C   UNL     1      -1.583  11.972  19.272  0.00  0.00    +0.000 A 
ATOM     19  C   UNL     1      -2.967  12.114  19.169  0.00  0.00    +0.000 A 
ATOM     20  C   UNL     1      -3.682  11.327  18.266  0.00  0.00    +0.000 A 
ATOM     21  C   UNL     1      -3.009  10.424  17.445  0.00  0.00    +0.000 A 
ATOM     22  C   UNL     1      -1.621  10.303  17.527  0.00  0.00    +0.000 A 
ENDBRANCH  16  17
ENDBRANCH   4  16
TORSDOF 6
ENDMDL
MODEL 6
REMARK VINA RESULT:      -6.8      5.220      6.998
REMARK  Name = 
REMARK  8 active torsions:
REMARK  status: ('A' for Active; 'I' for Inactive)
REMARK    1  A    between atoms: C_1  and  N_2
REMARK    2  A    between atoms: N_2  and  C_3
REMARK    3  A    between atoms: N_2  and  C_4
REMARK    4  A    between atoms: C_4  and  C_5
REMARK    5  A    between atoms: C_5  and  N_6
REMARK    6  A    between atoms: C_7  and  C_9
REMARK    7  A    between atoms: C_12  and  O_13
REMARK    8  A    between atoms: O_13  and  C_14
REMARK                            x       y       z     vdW  Elec       q    Type
REMARK                         _______ _______ _______ _____ _____    ______ ____
ROOT
ATOM      1  C   UNL     1       2.312   7.454  19.240  0.00  0.00    +0.000 A 
ATOM      2  C   UNL     1       1.566   8.044  20.270  0.00  0.00    +0.000 A 
ATOM      3  C   UNL     1       0.896   9.250  20.053  0.00  0.00    +0.000 A 
ATOM      4  C   UNL     1       0.972   9.883  18.813  0.00  0.00    +0.000 A 
ATOM      5  C   UNL     1       1.690   9.280  17.773  0.00  0.00    +0.000 A 
ATOM      6  C   UNL     1       2.385   8.086  17.994  0.00  0.00    +0.000 A 
ENDROOT
BRANCH   1   8
ATOM      7  N   UNL     1       4.143   5.884  18.826  0.00  0.00    +0.000 N 
ATOM      8  C   UNL     1       2.991   6.158  19.526  0.00  0.00    +0.000 C 
ATOM      9  O   UNL     1       2.491   5.368  20.322  0.00  0.00    +0.000 OA
ATOM     10  H   UNL     1       4.537   6.529  18.158  0.00  0.00    +0.000 HD
BRANCH   7  11
ATOM     11  C   UNL     1       4.813   4.607  18.981  0.00  0.00    +0.000 C 
BRANCH  11  12
ATOM     12  C   UNL     1       4.537   3.643  17.812  0.00  0.00    +0.000 C 
BRANCH  12  14
ATOM     13  C   UNL     1       3.851   2.156  19.610  0.00  0.00    +0.000 C 
ATOM     14  N   UNL     1       3.759   2.436  18.173  0.00  0.00    +0.000 NA
ATOM     15  C   UNL     1       2.352   2.629  17.807  0.00  0.00    +0.000 C 
ENDBRANCH  12  14
ENDBRANCH  11  12
ENDBRANCH   7  11
ENDBRANCH   1   8
BRANCH   4  16
ATOM     16  O   UNL     1       0.256  11.051  18.692  0.00  0.00    +0.000 OA
BRANCH  16  17
ATOM     17  C   UNL     1      -1.095  11.015  18.439  0.00  0.00    +0.000 A 
ATOM     18  C   UNL     1      -1.519  10.040  17.533  0.00  0.00    +0.000 A 
ATOM     19  C   UNL     1      -2.872   9.915  17.217  0.00  0.00    +0.000 A 
ATOM     20  C   UNL     1      -3.806  10.767  17.806  0.00  0.00    +0.000 A 
ATOM     21  C   UNL     1      -3.390  11.721  18.734  0.00  0.00    +0.000 A 
ATOM     22  C   UNL     1      -2.040  11.826  19.073  0.00  0.00    +0.000 A 
ENDBRANCH  16  17
ENDBRANCH   4  16
TORSDOF 6
ENDMDL
MODEL 7
REMARK VINA RESULT:      -6.7      5.085      6.674
REMARK  Name = 
REMARK  8 active torsions:
REMARK  status: ('A' for Active; 'I' for Inactive)
REMARK    1  A    between atoms: C_1  and  N_2
REMARK    2  A    between atoms: N_2  and  C_3
REMARK    3  A    between atoms: N_2  and  C_4
REMARK    4  A    between atoms: C_4  and  C_5
REMARK    5  A    between atoms: C_5  and  N_6
REMARK    6  A    between atoms: C_7  and  C_9
REMARK    7  A    between atoms: C_12  and  O_13
REMARK    8  A    between atoms: O_13  and  C_14
REMARK                            x       y       z     vdW  Elec       q    Type
REMARK                         _______ _______ _______ _____ _____    ______ ____
ROOT
ATOM      1  C   UNL     1       2.321   7.347  19.346  0.00  0.00    +0.000 A 
ATOM      2  C   UNL     1       1.604   7.936  20.398  0.00  0.00    +0.000 A 
ATOM      3  C   UNL     1       0.896   9.122  20.192  0.00  0.00    +0.000 A 
ATOM      4  C   UNL     1       0.906   9.737  18.941  0.00  0.00    +0.000 A 
ATOM      5  C   UNL     1       1.594   9.136  17.880  0.00  0.00    +0.000 A 
ATOM      6  C   UNL     1       2.328   7.963  18.089  0.00  0.00    +0.000 A 
ENDROOT
BRANCH   1   8
ATOM      7  N   UNL     1       4.222   5.858  18.946  0.00  0.00    +0.000 N 
ATOM      8  C   UNL     1       3.043   6.073  19.622  0.00  0.00    +0.000 C 
ATOM      9  O   UNL     1       2.555   5.247  20.389  0.00  0.00    +0.000 OA
ATOM     10  H   UNL     1       4.606   6.533  18.301  0.00  0.00    +0.000 HD
BRANCH   7  11
ATOM     11  C   UNL     1       4.936   4.605  19.091  0.00  0.00    +0.000 C 
BRANCH  11  12
ATOM     12  C   UNL     1       5.140   3.875  17.750  0.00  0.00    +0.000 C 
BRANCH  12  14
ATOM     13  C   UNL     1       7.418   4.602  17.309  0.00  0.00    +0.000 C 
ATOM     14  N   UNL     1       6.043   4.563  16.800  0.00  0.00    +0.000 NA
ATOM     15  C   UNL     1       6.024   3.864  15.510  0.00  0.00    +0.000 C 
ENDBRANCH  12  14
ENDBRANCH  11  12
ENDBRANCH   7  11
ENDBRANCH   1   8
BRANCH   4  16
ATOM     16  O   UNL     1       0.157  10.886  18.833  0.00  0.00    +0.000 OA
BRANCH  16  17
ATOM     17  C   UNL     1      -1.157  10.824  18.434  0.00  0.00    +0.000 A 
ATOM     18  C   UNL     1      -2.022  11.736  19.044  0.00  0.00    +0.000 A 
ATOM     19  C   UNL     1      -3.374  11.760  18.701  0.00  0.00    +0.000 A 
ATOM     20  C   UNL     1      -3.866  10.870  17.747  0.00  0.00    +0.000 A 
ATOM     21  C   UNL     1      -3.000   9.979  17.114  0.00  0.00    +0.000 A 
ATOM     22  C   UNL     1      -1.642   9.975  17.436  0.00  0.00    +0.000 A 
ENDBRANCH  16  17
ENDBRANCH   4  16
TORSDOF 6
ENDMDL
MODEL 8
REMARK VINA RESULT:      -6.7      6.560      9.274
REMARK  Name = 
REMARK  8 active torsions:
REMARK  status: ('A' for Active; 'I' for Inactive)
REMARK    1  A    between atoms: C_1  and  N_2
REMARK    2  A    between atoms: N_2  and  C_3
REMARK    3  A    between atoms: N_2  and  C_4
REMARK    4  A    between atoms: C_4  and  C_5
REMARK    5  A    between atoms: C_5  and  N_6
REMARK    6  A    between atoms: C_7  and  C_9
REMARK    7  A    between atoms: C_12  and  O_13
REMARK    8  A    between atoms: O_13  and  C_14
REMARK                            x       y       z     vdW  Elec       q    Type
REMARK                         _______ _______ _______ _____ _____    ______ ____
ROOT
ATOM      1  C   UNL     1       0.781   9.872  19.299  0.00  0.00    +0.000 A 
ATOM      2  C   UNL     1       0.895   9.176  20.511  0.00  0.00    +0.000 A 
ATOM      3  C   UNL     1       1.614   7.980  20.572  0.00  0.00    +0.000 A 
ATOM      4  C   UNL     1       2.215   7.463  19.425  0.00  0.00    +0.000 A 
ATOM      5  C   UNL     1       2.130   8.172  18.220  0.00  0.00    +0.000 A 
ATOM      6  C   UNL     1       1.388   9.355  18.149  0.00  0.00    +0.000 A 
ENDROOT
BRANCH   1   8
ATOM      7  N   UNL     1      -1.343  11.072  19.101  0.00  0.00    +0.000 N 
ATOM      8  C   UNL     1       0.016  11.152  19.300  0.00  0.00    +0.000 C 
ATOM      9  O   UNL     1       0.610  12.219  19.426  0.00  0.00    +0.000 OA
ATOM     10  H   UNL     1      -1.821  10.192  18.978  0.00  0.00    +0.000 HD
BRANCH   7  11
ATOM     11  C   UNL     1      -2.144  12.276  18.999  0.00  0.00    +0.000 C 
BRANCH  11  12
ATOM     12  C   UNL     1      -2.855  12.634  20.317  0.00  0.00    +0.000 C 
BRANCH  12  14
ATOM     13  C   UNL     1      -4.908  12.151  19.104  0.00  0.00    +0.000 C 
ATOM     14  N   UNL     1      -4.298  12.939  20.181  0.00  0.00    +0.000 NA
ATOM     15  C   UNL     1      -4.984  12.645  21.444  0.00  0.00    +0.000 C 
ENDBRANCH  12  14
ENDBRANCH  11  12
ENDBRANCH   7  11
ENDBRANCH   1   8
BRANCH   4  16
ATOM     16  O   UNL     1       2.922   6.295  19.595  0.00  0.00    +0.000 OA
BRANCH  16  17
ATOM     17  C   UNL     1       2.287   5.079  19.496  0.00  0.00    +0.000 A 
ATOM     18  C   UNL     1       1.880   4.506  20.703  0.00  0.00    +0.000 A 
ATOM     19  C   UNL     1       1.219   3.277  20.710  0.00  0.00    +0.000 A 
ATOM     20  C   UNL     1       0.964   2.617  19.509  0.00  0.00    +0.000 A 
ATOM     21  C   UNL     1       1.341   3.201  18.300  0.00  0.00    +0.000 A 
ATOM     22  C   UNL     1       1.976   4.444  18.291  0.00  0.00    +0.000 A 
ENDBRANCH  16  17
ENDBRANCH   4  16
TORSDOF 6
ENDMDL
MODEL 9
REMARK VINA RESULT:      -6.7      6.673      9.452
REMARK  Name = 
REMARK  8 active torsions:
REMARK  status: ('A' for Active; 'I' for Inactive)
REMARK    1  A    between atoms: C_1  and  N_2
REMARK    2  A    between atoms: N_2  and  C_3
REMARK    3  A    between atoms: N_2  and  C_4
REMARK    4  A    between atoms: C_4  and  C_5
REMARK    5  A    between atoms: C_5  and  N_6
REMARK    6  A    between atoms: C_7  and  C_9
REMARK    7  A    between atoms: C_12  and  O_13
REMARK    8  A    between atoms: O_13  and  C_14
REMARK                            x       y       z     vdW  Elec       q    Type
REMARK                         _______ _______ _______ _____ _____    ______ ____
ROOT
ATOM      1  C   UNL     1       0.729  10.004  19.313  0.00  0.00    +0.000 A 
ATOM      2  C   UNL     1       0.813   9.273  20.506  0.00  0.00    +0.000 A 
ATOM      3  C   UNL     1       1.535   8.077  20.551  0.00  0.00    +0.000 A 
ATOM      4  C   UNL     1       2.167   7.595  19.406  0.00  0.00    +0.000 A 
ATOM      5  C   UNL     1       2.111   8.339  18.221  0.00  0.00    +0.000 A 
ATOM      6  C   UNL     1       1.367   9.522  18.164  0.00  0.00    +0.000 A 
ENDROOT
BRANCH   1   8
ATOM      7  N   UNL     1      -1.101  11.364  20.203  0.00  0.00    +0.000 N 
ATOM      8  C   UNL     1      -0.040  11.281  19.331  0.00  0.00    +0.000 C 
ATOM      9  O   UNL     1       0.256  12.184  18.553  0.00  0.00    +0.000 OA
ATOM     10  H   UNL     1      -1.350  10.610  20.825  0.00  0.00    +0.000 HD
BRANCH   7  11
ATOM     11  C   UNL     1      -1.952  12.538  20.217  0.00  0.00    +0.000 C 
BRANCH  11  12
ATOM     12  C   UNL     1      -3.320  12.290  19.555  0.00  0.00    +0.000 C 
BRANCH  12  14
ATOM     13  C   UNL     1      -5.700  12.088  20.019  0.00  0.00    +0.000 C 
ATOM     14  N   UNL     1      -4.476  12.850  20.292  0.00  0.00    +0.000 NA
ATOM     15  C   UNL     1      -4.201  12.822  21.733  0.00  0.00    +0.000 C 
ENDBRANCH  12  14
ENDBRANCH  11  12
ENDBRANCH   7  11
ENDBRANCH   1   8
BRANCH   4  16
ATOM     16  O   UNL     1       2.872   6.425  19.559  0.00  0.00    +0.000 OA
BRANCH  16  17
ATOM     17  C   UNL     1       2.218   5.215  19.565  0.00  0.00    +0.000 A 
ATOM     18  C   UNL     1       2.024   4.623  18.315  0.00  0.00    +0.000 A 
ATOM     19  C   UNL     1       1.379   3.389  18.215  0.00  0.00    +0.000 A 
ATOM     20  C   UNL     1       0.925   2.745  19.366  0.00  0.00    +0.000 A 
ATOM     21  C   UNL     1       1.146   3.319  20.617  0.00  0.00    +0.000 A 
ATOM     22  C   UNL     1       1.817   4.538  20.720  0.00  0.00    +0.000 A 
ENDBRANCH  16  17
ENDBRANCH   4  16
TORSDOF 6
ENDMDL
