MODEL 1
REMARK VINA RESULT:      -8.1      0.000      0.000
REMARK  Name = 
REMARK  8 active torsions:
REMARK  status: ('A' for Active; 'I' for Inactive)
REMARK    1  A    between atoms: C_1  and  C_2
REMARK    2  A    between atoms: C_8  and  C_9
REMARK    3  A    between atoms: C_12  and  C_13
REMARK    4  A    between atoms: C_16  and  C_17
REMARK    5  A    between atoms: C_17  and  N_18
REMARK    6  A    between atoms: N_21  and  C_22
REMARK    7  A    between atoms: C_22  and  C_23
REMARK    8  A    between atoms: N_27  and  C_28
REMARK                            x       y       z     vdW  Elec       q    Type
REMARK                         _______ _______ _______ _____ _____    ______ ____
ROOT
ATOM      1  C   UNL     1      -0.130  11.401  21.593  0.00  0.00    +0.000 A 
ATOM      2  C   UNL     1      -1.239  11.263  22.448  0.00  0.00    +0.000 A 
ATOM      3  C   UNL     1      -1.751  12.365  23.177  0.00  0.00    +0.000 A 
ATOM      4  C   UNL     1      -1.156  13.629  23.082  0.00  0.00    +0.000 A 
ATOM      5  C   UNL     1      -0.066  13.762  22.209  0.00  0.00    +0.000 A 
ATOM      6  C   UNL     1       0.438  12.675  21.489  0.00  0.00    +0.000 A 
ENDROOT
BRANCH   1  10
ATOM      7  C   UNL     1       1.609   8.212  20.043  0.00  0.00    +0.000 A 
ATOM      8  C   UNL     1       1.402   9.098  19.008  0.00  0.00    +0.000 A 
ATOM      9  C   UNL     1       0.729  10.278  19.435  0.00  0.00    +0.000 A 
ATOM     10  C   UNL     1       0.460  10.299  20.797  0.00  0.00    +0.000 A 
ATOM     11  S   UNL     1       0.989   8.836  21.520  0.00  0.00    +0.000 S 
BRANCH   7  19
ATOM     12  C   UNL     1       1.609   2.903  21.720  0.00  0.00    +0.000 C 
ATOM     13  C   UNL     1       2.595   3.428  20.728  0.00  0.00    +0.000 A 
ATOM     14  C   UNL     1       3.570   2.604  20.135  0.00  0.00    +0.000 A 
ATOM     15  C   UNL     1       4.488   3.097  19.204  0.00  0.00    +0.000 A 
ATOM     16  C   UNL     1       4.469   4.444  18.816  0.00  0.00    +0.000 A 
ATOM     17  C   UNL     1       3.507   5.291  19.390  0.00  0.00    +0.000 A 
ATOM     18  N   UNL     1       3.265   6.628  19.177  0.00  0.00    +0.000 NA
ATOM     19  C   UNL     1       2.246   6.930  19.952  0.00  0.00    +0.000 A 
ATOM     20  N   UNL     1       1.839   5.836  20.668  0.00  0.00    +0.000 N 
ATOM     21  C   UNL     1       2.618   4.768  20.315  0.00  0.00    +0.000 A 
ATOM     22  H   UNL     1       1.076   5.831  21.329  0.00  0.00    +0.000 HD
ENDBRANCH   7  19
ENDBRANCH   1  10
BRANCH   4  23
ATOM     23  C   UNL     1      -1.673  14.912  23.724  0.00  0.00    +0.000 C 
BRANCH  23  24
ATOM     24  N   UNL     1      -2.321  15.936  22.886  0.00  0.00    +0.000 NA
ATOM     25  C   UNL     1      -2.396  15.594  21.455  0.00  0.00    +0.000 C 
ATOM     26  C   UNL     1      -3.460  14.552  20.996  0.00  0.00    +0.000 C 
ATOM     27  N   UNL     1      -4.749  14.492  21.692  0.00  0.00    +0.000 NA
ATOM     28  C   UNL     1      -4.720  15.020  23.059  0.00  0.00    +0.000 C 
ATOM     29  C   UNL     1      -3.712  16.163  23.347  0.00  0.00    +0.000 C 
BRANCH  27  30
ATOM     30  C   UNL     1      -5.978  14.800  20.936  0.00  0.00    +0.000 C 
BRANCH  30  31
ATOM     31  C   UNL     1      -6.816  13.579  20.445  0.00  0.00    +0.000 C 
ATOM     32  C   UNL     1      -6.024  12.250  20.468  0.00  0.00    +0.000 C 
ATOM     33  C   UNL     1      -5.225  11.950  19.197  0.00  0.00    +0.000 C 
ATOM     34  C   UNL     1      -6.000  12.249  17.917  0.00  0.00    +0.000 C 
ATOM     35  N   UNL     1      -6.541  13.615  17.938  0.00  0.00    +0.000 NA
ATOM     36  C   UNL     1      -7.237  13.890  16.677  0.00  0.00    +0.000 C 
ATOM     37  C   UNL     1      -7.470  13.783  19.065  0.00  0.00    +0.000 C 
ENDBRANCH  30  31
ENDBRANCH  27  30
ENDBRANCH  23  24
ENDBRANCH   4  23
TORSDOF 6
ENDMDL
MODEL 2
REMARK VINA RESULT:      -8.0      1.484      2.301
REMARK  Name = 
REMARK  8 active torsions:
REMARK  status: ('A' for Active; 'I' for Inactive)
REMARK    1  A    between atoms: C_1  and  C_2
REMARK    2  A    between atoms: C_8  and  C_9
REMARK    3  A    between atoms: C_12  and  C_13
REMARK    4  A    between atoms: C_16  and  C_17
REMARK    5  A    between atoms: C_17  and  N_18
REMARK    6  A    between atoms: N_21  and  C_22
REMARK    7  A    between atoms: C_22  and  C_23
REMARK    8  A    between atoms: N_27  and  C_28
REMARK                            x       y       z     vdW  Elec       q    Type
REMARK                         _______ _______ _______ _____ _____    ______ ____
ROOT
ATOM      1  C   UNL     1       0.216  11.490  20.749  0.00  0.00    +0.000 A 
ATOM      2  C   UNL     1       0.659  12.794  21.036  0.00  0.00    +0.000 A 
ATOM      3  C   UNL     1      -0.001  13.605  21.993  0.00  0.00    +0.000 A 
ATOM      4  C   UNL     1      -1.131  13.136  22.675  0.00  0.00    +0.000 A 
ATOM      5  C   UNL     1      -1.551  11.826  22.399  0.00  0.00    +0.000 A 
ATOM      6  C   UNL     1      -0.898  11.026  21.456  0.00  0.00    +0.000 A 
ENDROOT
BRANCH   1  10
ATOM      7  C   UNL     1       1.965   8.656  18.626  0.00  0.00    +0.000 A 
ATOM      8  C   UNL     1       2.006   9.806  17.868  0.00  0.00    +0.000 A 
ATOM      9  C   UNL     1       1.356  10.899  18.511  0.00  0.00    +0.000 A 
ATOM     10  C   UNL     1       0.855  10.583  19.766  0.00  0.00    +0.000 A 
ATOM     11  S   UNL     1       1.142   8.927  20.111  0.00  0.00    +0.000 S 
BRANCH   7  19
ATOM     12  C   UNL     1       6.231   5.926  16.313  0.00  0.00    +0.000 C 
ATOM     13  C   UNL     1       5.054   5.218  16.902  0.00  0.00    +0.000 A 
ATOM     14  C   UNL     1       4.964   3.815  16.932  0.00  0.00    +0.000 A 
ATOM     15  C   UNL     1       3.864   3.155  17.487  0.00  0.00    +0.000 A 
ATOM     16  C   UNL     1       2.800   3.876  18.048  0.00  0.00    +0.000 A 
ATOM     17  C   UNL     1       2.861   5.278  18.033  0.00  0.00    +0.000 A 
ATOM     18  N   UNL     1       1.973   6.208  18.521  0.00  0.00    +0.000 NA
ATOM     19  C   UNL     1       2.513   7.380  18.267  0.00  0.00    +0.000 A 
ATOM     20  N   UNL     1       3.708   7.233  17.614  0.00  0.00    +0.000 N 
ATOM     21  C   UNL     1       3.964   5.897  17.467  0.00  0.00    +0.000 A 
ATOM     22  H   UNL     1       4.299   7.995  17.315  0.00  0.00    +0.000 HD
ENDBRANCH   7  19
ENDBRANCH   1  10
BRANCH   4  23
ATOM     23  C   UNL     1      -1.862  13.861  23.800  0.00  0.00    +0.000 C 
BRANCH  23  24
ATOM     24  N   UNL     1      -2.548  15.134  23.523  0.00  0.00    +0.000 NA
ATOM     25  C   UNL     1      -2.835  15.374  22.098  0.00  0.00    +0.000 C 
ATOM     26  C   UNL     1      -4.017  14.600  21.439  0.00  0.00    +0.000 C 
ATOM     27  N   UNL     1      -5.203  14.286  22.243  0.00  0.00    +0.000 NA
ATOM     28  C   UNL     1      -4.958  14.244  23.688  0.00  0.00    +0.000 C 
ATOM     29  C   UNL     1      -3.847  15.178  24.236  0.00  0.00    +0.000 C 
BRANCH  27  30
ATOM     30  C   UNL     1      -6.499  14.874  21.853  0.00  0.00    +0.000 C 
BRANCH  30  31
ATOM     31  C   UNL     1      -7.536  13.904  21.207  0.00  0.00    +0.000 C 
ATOM     32  C   UNL     1      -7.189  12.411  21.425  0.00  0.00    +0.000 C 
ATOM     33  C   UNL     1      -6.266  11.799  20.368  0.00  0.00    +0.000 C 
ATOM     34  C   UNL     1      -6.636  12.202  18.944  0.00  0.00    +0.000 C 
ATOM     35  N   UNL     1      -6.747  13.663  18.823  0.00  0.00    +0.000 NA
ATOM     36  C   UNL     1      -7.055  14.022  17.435  0.00  0.00    +0.000 C 
ATOM     37  C   UNL     1      -7.800  14.174  19.714  0.00  0.00    +0.000 C 
ENDBRANCH  30  31
ENDBRANCH  27  30
ENDBRANCH  23  24
ENDBRANCH   4  23
TORSDOF 6
ENDMDL
MODEL 3
REMARK VINA RESULT:      -8.0      3.675      5.765
REMARK  Name = 
REMARK  8 active torsions:
REMARK  status: ('A' for Active; 'I' for Inactive)
REMARK    1  A    between atoms: C_1  and  C_2
REMARK    2  A    between atoms: C_8  and  C_9
REMARK    3  A    between atoms: C_12  and  C_13
REMARK    4  A    between atoms: C_16  and  C_17
REMARK    5  A    between atoms: C_17  and  N_18
REMARK    6  A    between atoms: N_21  and  C_22
REMARK    7  A    between atoms: C_22  and  C_23
REMARK    8  A    between atoms: N_27  and  C_28
REMARK                            x       y       z     vdW  Elec       q    Type
REMARK                         _______ _______ _______ _____ _____    ______ ____
ROOT
ATOM      1  C   UNL     1       2.226   7.541  19.383  0.00  0.00    +0.000 A 
ATOM      2  C   UNL     1       1.729   7.288  20.675  0.00  0.00    +0.000 A 
ATOM      3  C   UNL     1       0.886   8.216  21.336  0.00  0.00    +0.000 A 
ATOM      4  C   UNL     1       0.535   9.428  20.729  0.00  0.00    +0.000 A 
ATOM      5  C   UNL     1       1.016   9.661  19.432  0.00  0.00    +0.000 A 
ATOM      6  C   UNL     1       1.846   8.744  18.779  0.00  0.00    +0.000 A 
ENDROOT
BRANCH   1  10
ATOM      7  C   UNL     1       4.521   5.519  16.886  0.00  0.00    +0.000 A 
ATOM      8  C   UNL     1       4.214   4.667  17.925  0.00  0.00    +0.000 A 
ATOM      9  C   UNL     1       3.424   5.302  18.926  0.00  0.00    +0.000 A 
ATOM     10  C   UNL     1       3.107   6.620  18.626  0.00  0.00    +0.000 A 
ATOM     11  S   UNL     1       3.836   7.074  17.141  0.00  0.00    +0.000 S 
BRANCH   7  19
ATOM     12  C   UNL     1       4.717   2.849  12.003  0.00  0.00    +0.000 C 
ATOM     13  C   UNL     1       5.856   3.672  12.510  0.00  0.00    +0.000 A 
ATOM     14  C   UNL     1       7.041   3.845  11.772  0.00  0.00    +0.000 A 
ATOM     15  C   UNL     1       8.103   4.619  12.246  0.00  0.00    +0.000 A 
ATOM     16  C   UNL     1       8.025   5.265  13.488  0.00  0.00    +0.000 A 
ATOM     17  C   UNL     1       6.855   5.112  14.249  0.00  0.00    +0.000 A 
ATOM     18  N   UNL     1       6.520   5.640  15.474  0.00  0.00    +0.000 NA
ATOM     19  C   UNL     1       5.307   5.200  15.728  0.00  0.00    +0.000 A 
ATOM     20  N   UNL     1       4.862   4.391  14.717  0.00  0.00    +0.000 N 
ATOM     21  C   UNL     1       5.826   4.331  13.749  0.00  0.00    +0.000 A 
ATOM     22  H   UNL     1       3.960   3.937  14.697  0.00  0.00    +0.000 HD
ENDBRANCH   7  19
ENDBRANCH   1  10
BRANCH   4  23
ATOM     23  C   UNL     1      -0.446  10.456  21.284  0.00  0.00    +0.000 C 
BRANCH  23  24
ATOM     24  N   UNL     1      -0.511  11.799  20.683  0.00  0.00    +0.000 NA
ATOM     25  C   UNL     1      -1.854  12.196  20.223  0.00  0.00    +0.000 C 
ATOM     26  C   UNL     1      -2.906  12.626  21.290  0.00  0.00    +0.000 C 
ATOM     27  N   UNL     1      -2.455  13.330  22.495  0.00  0.00    +0.000 NA
ATOM     28  C   UNL     1      -1.051  13.091  22.843  0.00  0.00    +0.000 C 
ATOM     29  C   UNL     1      -0.076  12.819  21.667  0.00  0.00    +0.000 C 
BRANCH  27  30
ATOM     30  C   UNL     1      -2.923  14.711  22.726  0.00  0.00    +0.000 C 
BRANCH  30  31
ATOM     31  C   UNL     1      -4.010  14.900  23.829  0.00  0.00    +0.000 C 
ATOM     32  C   UNL     1      -3.933  13.833  24.947  0.00  0.00    +0.000 C 
ATOM     33  C   UNL     1      -4.726  12.552  24.677  0.00  0.00    +0.000 C 
ATOM     34  C   UNL     1      -6.111  12.816  24.094  0.00  0.00    +0.000 C 
ATOM     35  N   UNL     1      -6.027  13.691  22.915  0.00  0.00    +0.000 NA
ATOM     36  C   UNL     1      -7.365  13.886  22.349  0.00  0.00    +0.000 C 
ATOM     37  C   UNL     1      -5.447  14.992  23.281  0.00  0.00    +0.000 C 
ENDBRANCH  30  31
ENDBRANCH  27  30
ENDBRANCH  23  24
ENDBRANCH   4  23
TORSDOF 6
ENDMDL
MODEL 4
REMARK VINA RESULT:      -7.9      1.226      1.471
REMARK  Name = 
REMARK  8 active torsions:
REMARK  status: ('A' for Active; 'I' for Inactive)
REMARK    1  A    between atoms: C_1  and  C_2
REMARK    2  A    between atoms: C_8  and  C_9
REMARK    3  A    between atoms: C_12  and  C_13
REMARK    4  A    between atoms: C_16  and  C_17
REMARK    5  A    between atoms: C_17  and  N_18
REMARK    6  A    between atoms: N_21  and  C_22
REMARK    7  A    between atoms: C_22  and  C_23
REMARK    8  A    between atoms: N_27  and  C_28
REMARK                            x       y       z     vdW  Elec       q    Type
REMARK                         _______ _______ _______ _____ _____    ______ ____
ROOT
ATOM      1  C   UNL     1       0.216  10.564  21.166  0.00  0.00    +0.000 A 
ATOM      2  C   UNL     1      -0.661  10.266  22.225  0.00  0.00    +0.000 A 
ATOM      3  C   UNL     1      -1.222  11.290  23.029  0.00  0.00    +0.000 A 
ATOM      4  C   UNL     1      -0.905  12.636  22.805  0.00  0.00    +0.000 A 
ATOM      5  C   UNL     1      -0.049  12.924  21.731  0.00  0.00    +0.000 A 
ATOM      6  C   UNL     1       0.502  11.914  20.937  0.00  0.00    +0.000 A 
ENDROOT
BRANCH   1  10
ATOM      7  C   UNL     1       1.879   7.488  19.333  0.00  0.00    +0.000 A 
ATOM      8  C   UNL     1       2.010   8.572  18.492  0.00  0.00    +0.000 A 
ATOM      9  C   UNL     1       1.398   9.743  19.025  0.00  0.00    +0.000 A 
ATOM     10  C   UNL     1       0.838   9.552  20.280  0.00  0.00    +0.000 A 
ATOM     11  S   UNL     1       1.022   7.915  20.760  0.00  0.00    +0.000 S 
BRANCH   7  19
ATOM     12  C   UNL     1       2.810   2.428  21.464  0.00  0.00    +0.000 C 
ATOM     13  C   UNL     1       3.098   2.759  20.035  0.00  0.00    +0.000 A 
ATOM     14  C   UNL     1       3.599   1.804  19.132  0.00  0.00    +0.000 A 
ATOM     15  C   UNL     1       3.863   2.115  17.796  0.00  0.00    +0.000 A 
ATOM     16  C   UNL     1       3.631   3.404  17.297  0.00  0.00    +0.000 A 
ATOM     17  C   UNL     1       3.131   4.380  18.174  0.00  0.00    +0.000 A 
ATOM     18  N   UNL     1       2.807   5.696  17.942  0.00  0.00    +0.000 NA
ATOM     19  C   UNL     1       2.370   6.161  19.092  0.00  0.00    +0.000 A 
ATOM     20  N   UNL     1       2.421   5.192  20.058  0.00  0.00    +0.000 N 
ATOM     21  C   UNL     1       2.888   4.036  19.494  0.00  0.00    +0.000 A 
ATOM     22  H   UNL     1       2.138   5.321  21.019  0.00  0.00    +0.000 HD
ENDBRANCH   7  19
ENDBRANCH   1  10
BRANCH   4  23
ATOM     23  C   UNL     1      -1.521  13.833  23.521  0.00  0.00    +0.000 C 
BRANCH  23  24
ATOM     24  N   UNL     1      -1.953  15.006  22.743  0.00  0.00    +0.000 NA
ATOM     25  C   UNL     1      -2.606  14.681  21.463  0.00  0.00    +0.000 C 
ATOM     26  C   UNL     1      -4.077  14.166  21.491  0.00  0.00    +0.000 C 
ATOM     27  N   UNL     1      -4.993  14.673  22.518  0.00  0.00    +0.000 NA
ATOM     28  C   UNL     1      -4.328  15.184  23.719  0.00  0.00    +0.000 C 
ATOM     29  C   UNL     1      -2.921  15.809  23.528  0.00  0.00    +0.000 C 
BRANCH  27  30
ATOM     30  C   UNL     1      -6.178  15.443  22.092  0.00  0.00    +0.000 C 
BRANCH  30  31
ATOM     31  C   UNL     1      -7.496  14.633  21.888  0.00  0.00    +0.000 C 
ATOM     32  C   UNL     1      -7.477  13.255  22.591  0.00  0.00    +0.000 C 
ATOM     33  C   UNL     1      -6.890  12.111  21.760  0.00  0.00    +0.000 C 
ATOM     34  C   UNL     1      -7.363  12.120  20.310  0.00  0.00    +0.000 C 
ATOM     35  N   UNL     1      -7.148  13.437  19.694  0.00  0.00    +0.000 NA
ATOM     36  C   UNL     1      -7.567  13.400  18.290  0.00  0.00    +0.000 C 
ATOM     37  C   UNL     1      -7.909  14.470  20.413  0.00  0.00    +0.000 C 
ENDBRANCH  30  31
ENDBRANCH  27  30
ENDBRANCH  23  24
ENDBRANCH   4  23
TORSDOF 6
ENDMDL
MODEL 5
REMARK VINA RESULT:      -7.9      2.260      3.788
REMARK  Name = 
REMARK  8 active torsions:
REMARK  status: ('A' for Active; 'I' for Inactive)
REMARK    1  A    between atoms: C_1  and  C_2
REMARK    2  A    between atoms: C_8  and  C_9
REMARK    3  A    between atoms: C_12  and  C_13
REMARK    4  A    between atoms: C_16  and  C_17
REMARK    5  A    between atoms: C_17  and  N_18
REMARK    6  A    between atoms: N_21  and  C_22
REMARK    7  A    between atoms: C_22  and  C_23
REMARK    8  A    between atoms: N_27  and  C_28
REMARK                            x       y       z     vdW  Elec       q    Type
REMARK                         _______ _______ _______ _____ _____    ______ ____
ROOT
ATOM      1  C   UNL     1       0.535   8.905  21.246  0.00  0.00    +0.000 A 
ATOM      2  C   UNL     1      -0.084   9.924  20.498  0.00  0.00    +0.000 A 
ATOM      3  C   UNL     1      -0.803  10.970  21.129  0.00  0.00    +0.000 A 
ATOM      4  C   UNL     1      -0.936  11.013  22.523  0.00  0.00    +0.000 A 
ATOM      5  C   UNL     1      -0.295  10.006  23.261  0.00  0.00    +0.000 A 
ATOM      6  C   UNL     1       0.416   8.976  22.638  0.00  0.00    +0.000 A 
ENDROOT
BRANCH   1  10
ATOM      7  C   UNL     1       2.737   6.335  19.212  0.00  0.00    +0.000 A 
ATOM      8  C   UNL     1       2.040   5.608  20.153  0.00  0.00    +0.000 A 
ATOM      9  C   UNL     1       1.239   6.437  20.990  0.00  0.00    +0.000 A 
ATOM     10  C   UNL     1       1.306   7.783  20.660  0.00  0.00    +0.000 A 
ATOM     11  S   UNL     1       2.399   8.014  19.359  0.00  0.00    +0.000 S 
BRANCH   7  19
ATOM     12  C   UNL     1       7.717   6.796  16.765  0.00  0.00    +0.000 C 
ATOM     13  C   UNL     1       6.752   5.710  16.415  0.00  0.00    +0.000 A 
ATOM     14  C   UNL     1       7.054   4.720  15.463  0.00  0.00    +0.000 A 
ATOM     15  C   UNL     1       6.152   3.703  15.141  0.00  0.00    +0.000 A 
ATOM     16  C   UNL     1       4.899   3.626  15.766  0.00  0.00    +0.000 A 
ATOM     17  C   UNL     1       4.569   4.600  16.722  0.00  0.00    +0.000 A 
ATOM     18  N   UNL     1       3.431   4.746  17.481  0.00  0.00    +0.000 NA
ATOM     19  C   UNL     1       3.638   5.809  18.227  0.00  0.00    +0.000 A 
ATOM     20  N   UNL     1       4.861   6.362  17.957  0.00  0.00    +0.000 N 
ATOM     21  C   UNL     1       5.487   5.598  17.010  0.00  0.00    +0.000 A 
ATOM     22  H   UNL     1       5.233   7.186  18.407  0.00  0.00    +0.000 HD
ENDBRANCH   7  19
ENDBRANCH   1  10
BRANCH   4  23
ATOM     23  C   UNL     1      -1.584  12.135  23.327  0.00  0.00    +0.000 C 
BRANCH  23  24
ATOM     24  N   UNL     1      -1.554  13.513  22.810  0.00  0.00    +0.000 NA
ATOM     25  C   UNL     1      -2.215  13.689  21.504  0.00  0.00    +0.000 C 
ATOM     26  C   UNL     1      -3.772  13.710  21.458  0.00  0.00    +0.000 C 
ATOM     27  N   UNL     1      -4.514  14.286  22.584  0.00  0.00    +0.000 NA
ATOM     28  C   UNL     1      -3.776  14.294  23.850  0.00  0.00    +0.000 C 
ATOM     29  C   UNL     1      -2.233  14.428  23.760  0.00  0.00    +0.000 C 
BRANCH  27  30
ATOM     30  C   UNL     1      -5.347  15.481  22.346  0.00  0.00    +0.000 C 
BRANCH  30  31
ATOM     31  C   UNL     1      -6.892  15.270  22.385  0.00  0.00    +0.000 C 
ATOM     32  C   UNL     1      -7.428  14.968  23.805  0.00  0.00    +0.000 C 
ATOM     33  C   UNL     1      -7.424  13.488  24.198  0.00  0.00    +0.000 C 
ATOM     34  C   UNL     1      -7.917  12.571  23.083  0.00  0.00    +0.000 C 
ATOM     35  N   UNL     1      -7.190  12.827  21.831  0.00  0.00    +0.000 NA
ATOM     36  C   UNL     1      -7.651  11.899  20.794  0.00  0.00    +0.000 C 
ATOM     37  C   UNL     1      -7.404  14.213  21.388  0.00  0.00    +0.000 C 
ENDBRANCH  30  31
ENDBRANCH  27  30
ENDBRANCH  23  24
ENDBRANCH   4  23
TORSDOF 6
ENDMDL
MODEL 6
REMARK VINA RESULT:      -7.9      1.349      2.183
REMARK  Name = 
REMARK  8 active torsions:
REMARK  status: ('A' for Active; 'I' for Inactive)
REMARK    1  A    between atoms: C_1  and  C_2
REMARK    2  A    between atoms: C_8  and  C_9
REMARK    3  A    between atoms: C_12  and  C_13
REMARK    4  A    between atoms: C_16  and  C_17
REMARK    5  A    between atoms: C_17  and  N_18
REMARK    6  A    between atoms: N_21  and  C_22
REMARK    7  A    between atoms: C_22  and  C_23
REMARK    8  A    between atoms: N_27  and  C_28
REMARK                            x       y       z     vdW  Elec       q    Type
REMARK                         _______ _______ _______ _____ _____    ______ ____
ROOT
ATOM      1  C   UNL     1      -0.940  12.800  22.494  0.00  0.00    +0.000 A 
ATOM      2  C   UNL     1      -0.350  13.945  21.928  0.00  0.00    +0.000 A 
ATOM      3  C   UNL     1      -0.874  15.240  22.167  0.00  0.00    +0.000 A 
ATOM      4  C   UNL     1      -2.011  15.420  22.964  0.00  0.00    +0.000 A 
ATOM      5  C   UNL     1      -2.578  14.275  23.544  0.00  0.00    +0.000 A 
ATOM      6  C   UNL     1      -2.059  12.997  23.310  0.00  0.00    +0.000 A 
ENDROOT
BRANCH   1  10
ATOM      7  C   UNL     1       0.580   9.327  21.389  0.00  0.00    +0.000 A 
ATOM      8  C   UNL     1      -0.210   9.085  22.492  0.00  0.00    +0.000 A 
ATOM      9  C   UNL     1      -0.780  10.279  23.019  0.00  0.00    +0.000 A 
ATOM     10  C   UNL     1      -0.448  11.416  22.295  0.00  0.00    +0.000 A 
ATOM     11  S   UNL     1       0.608  11.003  21.008  0.00  0.00    +0.000 S 
BRANCH   7  19
ATOM     12  C   UNL     1       2.343   4.053  21.101  0.00  0.00    +0.000 C 
ATOM     13  C   UNL     1       2.604   5.044  20.013  0.00  0.00    +0.000 A 
ATOM     14  C   UNL     1       3.290   4.697  18.835  0.00  0.00    +0.000 A 
ATOM     15  C   UNL     1       3.529   5.624  17.817  0.00  0.00    +0.000 A 
ATOM     16  C   UNL     1       3.083   6.948  17.930  0.00  0.00    +0.000 A 
ATOM     17  C   UNL     1       2.395   7.325  19.095  0.00  0.00    +0.000 A 
ATOM     18  N   UNL     1       1.848   8.537  19.446  0.00  0.00    +0.000 NA
ATOM     19  C   UNL     1       1.305   8.349  20.630  0.00  0.00    +0.000 A 
ATOM     20  N   UNL     1       1.503   7.063  21.057  0.00  0.00    +0.000 N 
ATOM     21  C   UNL     1       2.183   6.380  20.085  0.00  0.00    +0.000 A 
ATOM     22  H   UNL     1       1.177   6.691  21.937  0.00  0.00    +0.000 HD
ENDBRANCH   7  19
ENDBRANCH   1  10
BRANCH   4  23
ATOM     23  C   UNL     1      -2.606  16.759  23.386  0.00  0.00    +0.000 C 
BRANCH  23  24
ATOM     24  N   UNL     1      -3.427  17.525  22.433  0.00  0.00    +0.000 NA
ATOM     25  C   UNL     1      -3.492  16.944  21.081  0.00  0.00    +0.000 C 
ATOM     26  C   UNL     1      -4.398  15.697  20.852  0.00  0.00    +0.000 C 
ATOM     27  N   UNL     1      -5.642  15.567  21.618  0.00  0.00    +0.000 NA
ATOM     28  C   UNL     1      -5.653  16.312  22.880  0.00  0.00    +0.000 C 
ATOM     29  C   UNL     1      -4.822  17.621  22.926  0.00  0.00    +0.000 C 
BRANCH  27  30
ATOM     30  C   UNL     1      -6.926  15.564  20.889  0.00  0.00    +0.000 C 
BRANCH  30  31
ATOM     31  C   UNL     1      -7.642  14.185  20.748  0.00  0.00    +0.000 C 
ATOM     32  C   UNL     1      -6.975  13.067  21.585  0.00  0.00    +0.000 C 
ATOM     33  C   UNL     1      -5.842  12.318  20.880  0.00  0.00    +0.000 C 
ATOM     34  C   UNL     1      -6.163  11.971  19.430  0.00  0.00    +0.000 C 
ATOM     35  N   UNL     1      -6.602  13.163  18.689  0.00  0.00    +0.000 NA
ATOM     36  C   UNL     1      -6.857  12.809  17.290  0.00  0.00    +0.000 C 
ATOM     37  C   UNL     1      -7.823  13.721  19.291  0.00  0.00    +0.000 C 
ENDBRANCH  30  31
ENDBRANCH  27  30
ENDBRANCH  23  24
ENDBRANCH   4  23
TORSDOF 6
ENDMDL
MODEL 7
REMARK VINA RESULT:      -7.8      3.513      5.384
REMARK  Name = 
REMARK  8 active torsions:
REMARK  status: ('A' for Active; 'I' for Inactive)
REMARK    1  A    between atoms: C_1  and  C_2
REMARK    2  A    between atoms: C_8  and  C_9
REMARK    3  A    between atoms: C_12  and  C_13
REMARK    4  A    between atoms: C_16  and  C_17
REMARK    5  A    between atoms: C_17  and  N_18
REMARK    6  A    between atoms: N_21  and  C_22
REMARK    7  A    between atoms: C_22  and  C_23
REMARK    8  A    between atoms: N_27  and  C_28
REMARK                            x       y       z     vdW  Elec       q    Type
REMARK                         _______ _______ _______ _____ _____    ______ ____
ROOT
ATOM      1  C   UNL     1       2.083   7.618  19.504  0.00  0.00    +0.000 A 
ATOM      2  C   UNL     1       1.719   7.450  20.853  0.00  0.00    +0.000 A 
ATOM      3  C   UNL     1       0.852   8.364  21.503  0.00  0.00    +0.000 A 
ATOM      4  C   UNL     1       0.340   9.477  20.823  0.00  0.00    +0.000 A 
ATOM      5  C   UNL     1       0.689   9.622  19.472  0.00  0.00    +0.000 A 
ATOM      6  C   UNL     1       1.543   8.719  18.831  0.00  0.00    +0.000 A 
ENDROOT
BRANCH   1  10
ATOM      7  C   UNL     1       4.433   5.624  17.036  0.00  0.00    +0.000 A 
ATOM      8  C   UNL     1       4.101   4.760  18.057  0.00  0.00    +0.000 A 
ATOM      9  C   UNL     1       3.288   5.383  19.047  0.00  0.00    +0.000 A 
ATOM     10  C   UNL     1       2.980   6.705  18.757  0.00  0.00    +0.000 A 
ATOM     11  S   UNL     1       3.745   7.177  17.296  0.00  0.00    +0.000 S 
BRANCH   7  19
ATOM     12  C   UNL     1       4.773   2.940  12.169  0.00  0.00    +0.000 C 
ATOM     13  C   UNL     1       5.885   3.791  12.692  0.00  0.00    +0.000 A 
ATOM     14  C   UNL     1       7.078   3.988  11.973  0.00  0.00    +0.000 A 
ATOM     15  C   UNL     1       8.114   4.788  12.462  0.00  0.00    +0.000 A 
ATOM     16  C   UNL     1       8.000   5.437  13.700  0.00  0.00    +0.000 A 
ATOM     17  C   UNL     1       6.821   5.260  14.441  0.00  0.00    +0.000 A 
ATOM     18  N   UNL     1       6.453   5.786  15.658  0.00  0.00    +0.000 NA
ATOM     19  C   UNL     1       5.246   5.318  15.894  0.00  0.00    +0.000 A 
ATOM     20  N   UNL     1       4.836   4.495  14.879  0.00  0.00    +0.000 N 
ATOM     21  C   UNL     1       5.818   4.453  13.927  0.00  0.00    +0.000 A 
ATOM     22  H   UNL     1       3.946   4.021  14.846  0.00  0.00    +0.000 HD
ENDBRANCH   7  19
ENDBRANCH   1  10
BRANCH   4  23
ATOM     23  C   UNL     1      -0.683  10.467  21.370  0.00  0.00    +0.000 C 
BRANCH  23  24
ATOM     24  N   UNL     1      -0.334  11.895  21.470  0.00  0.00    +0.000 NA
ATOM     25  C   UNL     1      -0.883  12.733  20.389  0.00  0.00    +0.000 C 
ATOM     26  C   UNL     1      -2.396  13.104  20.434  0.00  0.00    +0.000 C 
ATOM     27  N   UNL     1      -3.045  13.305  21.734  0.00  0.00    +0.000 NA
ATOM     28  C   UNL     1      -2.379  12.628  22.851  0.00  0.00    +0.000 C 
ATOM     29  C   UNL     1      -0.841  12.454  22.746  0.00  0.00    +0.000 C 
BRANCH  27  30
ATOM     30  C   UNL     1      -3.589  14.639  22.056  0.00  0.00    +0.000 C 
BRANCH  30  31
ATOM     31  C   UNL     1      -5.144  14.769  22.069  0.00  0.00    +0.000 C 
ATOM     32  C   UNL     1      -5.753  14.618  23.484  0.00  0.00    +0.000 C 
ATOM     33  C   UNL     1      -6.077  13.180  23.899  0.00  0.00    +0.000 C 
ATOM     34  C   UNL     1      -6.742  12.371  22.790  0.00  0.00    +0.000 C 
ATOM     35  N   UNL     1      -5.959  12.440  21.548  0.00  0.00    +0.000 NA
ATOM     36  C   UNL     1      -6.596  11.614  20.516  0.00  0.00    +0.000 C 
ATOM     37  C   UNL     1      -5.859  13.830  21.080  0.00  0.00    +0.000 C 
ENDBRANCH  30  31
ENDBRANCH  27  30
ENDBRANCH  23  24
ENDBRANCH   4  23
TORSDOF 6
ENDMDL
MODEL 8
REMARK VINA RESULT:      -7.8      2.515      4.216
REMARK  Name = 
REMARK  8 active torsions:
REMARK  status: ('A' for Active; 'I' for Inactive)
REMARK    1  A    between atoms: C_1  and  C_2
REMARK    2  A    between atoms: C_8  and  C_9
REMARK    3  A    between atoms: C_12  and  C_13
REMARK    4  A    between atoms: C_16  and  C_17
REMARK    5  A    between atoms: C_17  and  N_18
REMARK    6  A    between atoms: N_21  and  C_22
REMARK    7  A    between atoms: C_22  and  C_23
REMARK    8  A    between atoms: N_27  and  C_28
REMARK                            x       y       z     vdW  Elec       q    Type
REMARK                         _______ _______ _______ _____ _____    ______ ____
ROOT
ATOM      1  C   UNL     1      -0.799  11.382  21.116  0.00  0.00    +0.000 A 
ATOM      2  C   UNL     1      -0.827  11.488  22.519  0.00  0.00    +0.000 A 
ATOM      3  C   UNL     1      -1.671  12.422  23.172  0.00  0.00    +0.000 A 
ATOM      4  C   UNL     1      -2.494  13.284  22.436  0.00  0.00    +0.000 A 
ATOM      5  C   UNL     1      -2.476  13.153  21.039  0.00  0.00    +0.000 A 
ATOM      6  C   UNL     1      -1.646  12.231  20.396  0.00  0.00    +0.000 A 
ENDROOT
BRANCH   1  10
ATOM      7  C   UNL     1       1.489   8.509  19.664  0.00  0.00    +0.000 A 
ATOM      8  C   UNL     1       1.513   9.540  18.750  0.00  0.00    +0.000 A 
ATOM      9  C   UNL     1       0.677  10.626  19.140  0.00  0.00    +0.000 A 
ATOM     10  C   UNL     1       0.051  10.429  20.363  0.00  0.00    +0.000 A 
ATOM     11  S   UNL     1       0.457   8.883  20.987  0.00  0.00    +0.000 S 
BRANCH   7  19
ATOM     12  C   UNL     1       2.089   3.333  21.626  0.00  0.00    +0.000 C 
ATOM     13  C   UNL     1       2.910   3.858  20.493  0.00  0.00    +0.000 A 
ATOM     14  C   UNL     1       3.867   3.067  19.833  0.00  0.00    +0.000 A 
ATOM     15  C   UNL     1       4.630   3.559  18.771  0.00  0.00    +0.000 A 
ATOM     16  C   UNL     1       4.463   4.874  18.313  0.00  0.00    +0.000 A 
ATOM     17  C   UNL     1       3.514   5.689  18.951  0.00  0.00    +0.000 A 
ATOM     18  N   UNL     1       3.148   6.989  18.694  0.00  0.00    +0.000 NA
ATOM     19  C   UNL     1       2.206   7.270  19.568  0.00  0.00    +0.000 A 
ATOM     20  N   UNL     1       1.971   6.200  20.390  0.00  0.00    +0.000 N 
ATOM     21  C   UNL     1       2.782   5.167  20.005  0.00  0.00    +0.000 A 
ATOM     22  H   UNL     1       1.293   6.186  21.138  0.00  0.00    +0.000 HD
ENDBRANCH   7  19
ENDBRANCH   1  10
BRANCH   4  23
ATOM     23  C   UNL     1      -3.522  14.251  23.015  0.00  0.00    +0.000 C 
BRANCH  23  24
ATOM     24  N   UNL     1      -3.077  15.537  23.578  0.00  0.00    +0.000 NA
ATOM     25  C   UNL     1      -1.622  15.759  23.514  0.00  0.00    +0.000 C 
ATOM     26  C   UNL     1      -0.990  16.147  22.143  0.00  0.00    +0.000 C 
ATOM     27  N   UNL     1      -1.762  16.972  21.208  0.00  0.00    +0.000 NA
ATOM     28  C   UNL     1      -3.213  16.905  21.402  0.00  0.00    +0.000 C 
ATOM     29  C   UNL     1      -3.715  16.659  22.849  0.00  0.00    +0.000 C 
BRANCH  27  30
ATOM     30  C   UNL     1      -1.247  18.308  20.850  0.00  0.00    +0.000 C 
BRANCH  30  31
ATOM     31  C   UNL     1      -0.519  18.427  19.476  0.00  0.00    +0.000 C 
ATOM     32  C   UNL     1      -0.956  17.343  18.462  0.00  0.00    +0.000 C 
ATOM     33  C   UNL     1      -0.166  16.033  18.533  0.00  0.00    +0.000 C 
ATOM     34  C   UNL     1       1.337  16.246  18.683  0.00  0.00    +0.000 C 
ATOM     35  N   UNL     1       1.630  17.147  19.807  0.00  0.00    +0.000 NA
ATOM     36  C   UNL     1       3.081  17.294  19.957  0.00  0.00    +0.000 C 
ATOM     37  C   UNL     1       1.017  18.465  19.583  0.00  0.00    +0.000 C 
ENDBRANCH  30  31
ENDBRANCH  27  30
ENDBRANCH  23  24
ENDBRANCH   4  23
TORSDOF 6
ENDMDL
MODEL 9
REMARK VINA RESULT:      -7.7      2.771      4.563
REMARK  Name = 
REMARK  8 active torsions:
REMARK  status: ('A' for Active; 'I' for Inactive)
REMARK    1  A    between atoms: C_1  and  C_2
REMARK    2  A    between atoms: C_8  and  C_9
REMARK    3  A    between atoms: C_12  and  C_13
REMARK    4  A    between atoms: C_16  and  C_17
REMARK    5  A    between atoms: C_17  and  N_18
REMARK    6  A    between atoms: N_21  and  C_22
REMARK    7  A    between atoms: C_22  and  C_23
REMARK    8  A    between atoms: N_27  and  C_28
REMARK                            x       y       z     vdW  Elec       q    Type
REMARK                         _______ _______ _______ _____ _____    ______ ____
ROOT
ATOM      1  C   UNL     1      -0.858  11.267  20.838  0.00  0.00    +0.000 A 
ATOM      2  C   UNL     1      -1.791  12.209  20.368  0.00  0.00    +0.000 A 
ATOM      3  C   UNL     1      -2.590  12.966  21.261  0.00  0.00    +0.000 A 
ATOM      4  C   UNL     1      -2.488  12.786  22.646  0.00  0.00    +0.000 A 
ATOM      5  C   UNL     1      -1.538  11.861  23.106  0.00  0.00    +0.000 A 
ATOM      6  C   UNL     1      -0.748  11.117  22.224  0.00  0.00    +0.000 A 
ENDROOT
BRANCH   1  10
ATOM      7  C   UNL     1       1.596   8.735  19.060  0.00  0.00    +0.000 A 
ATOM      8  C   UNL     1       1.382   9.771  18.177  0.00  0.00    +0.000 A 
ATOM      9  C   UNL     1       0.465  10.734  18.688  0.00  0.00    +0.000 A 
ATOM     10  C   UNL     1       0.014  10.443  19.968  0.00  0.00    +0.000 A 
ATOM     11  S   UNL     1       0.683   8.955  20.500  0.00  0.00    +0.000 S 
BRANCH   7  19
ATOM     12  C   UNL     1       5.254   6.244  15.681  0.00  0.00    +0.000 C 
ATOM     13  C   UNL     1       4.870   5.669  17.007  0.00  0.00    +0.000 A 
ATOM     14  C   UNL     1       5.431   4.475  17.495  0.00  0.00    +0.000 A 
ATOM     15  C   UNL     1       5.073   3.942  18.736  0.00  0.00    +0.000 A 
ATOM     16  C   UNL     1       4.136   4.589  19.554  0.00  0.00    +0.000 A 
ATOM     17  C   UNL     1       3.559   5.784  19.095  0.00  0.00    +0.000 A 
ATOM     18  N   UNL     1       2.641   6.612  19.696  0.00  0.00    +0.000 NA
ATOM     19  C   UNL     1       2.449   7.601  18.850  0.00  0.00    +0.000 A 
ATOM     20  N   UNL     1       3.199   7.424  17.718  0.00  0.00    +0.000 N 
ATOM     21  C   UNL     1       3.933   6.277  17.856  0.00  0.00    +0.000 A 
ATOM     22  H   UNL     1       3.212   8.055  16.931  0.00  0.00    +0.000 HD
ENDBRANCH   7  19
ENDBRANCH   1  10
BRANCH   4  23
ATOM     23  C   UNL     1      -3.205  13.608  23.712  0.00  0.00    +0.000 C 
BRANCH  23  24
ATOM     24  N   UNL     1      -2.518  14.752  24.335  0.00  0.00    +0.000 NA
ATOM     25  C   UNL     1      -1.089  14.863  23.995  0.00  0.00    +0.000 C 
ATOM     26  C   UNL     1      -0.701  15.404  22.585  0.00  0.00    +0.000 C 
ATOM     27  N   UNL     1      -1.546  16.422  21.953  0.00  0.00    +0.000 NA
ATOM     28  C   UNL     1      -2.929  16.444  22.439  0.00  0.00    +0.000 C 
ATOM     29  C   UNL     1      -3.159  16.021  23.913  0.00  0.00    +0.000 C 
BRANCH  27  30
ATOM     30  C   UNL     1      -0.967  17.751  21.676  0.00  0.00    +0.000 C 
BRANCH  30  31
ATOM     31  C   UNL     1      -0.493  18.011  20.213  0.00  0.00    +0.000 C 
ATOM     32  C   UNL     1      -1.122  17.037  19.189  0.00  0.00    +0.000 C 
ATOM     33  C   UNL     1      -0.356  15.727  18.985  0.00  0.00    +0.000 C 
ATOM     34  C   UNL     1       1.153  15.924  18.885  0.00  0.00    +0.000 C 
ATOM     35  N   UNL     1       1.658  16.705  20.024  0.00  0.00    +0.000 NA
ATOM     36  C   UNL     1       3.115  16.837  19.926  0.00  0.00    +0.000 C 
ATOM     37  C   UNL     1       1.039  18.039  20.047  0.00  0.00    +0.000 C 
ENDBRANCH  30  31
ENDBRANCH  27  30
ENDBRANCH  23  24
ENDBRANCH   4  23
TORSDOF 6
ENDMDL
