MODEL 1
REMARK VINA RESULT:      -8.8      0.000      0.000
REMARK  Name = 
REMARK  6 active torsions:
REMARK  status: ('A' for Active; 'I' for Inactive)
REMARK    1  A    between atoms: C_2  and  C_4
REMARK    2  A    between atoms: C_7  and  N_8
REMARK    3  A    between atoms: N_8  and  C_9
REMARK    4  A    between atoms: N_8  and  S_17
REMARK    5  A    between atoms: C_9  and  C_10
REMARK    6  A    between atoms: S_17  and  C_20
REMARK                            x       y       z     vdW  Elec       q    Type
REMARK                         _______ _______ _______ _____ _____    ______ ____
ROOT
ATOM      1  N   UNL     1       4.785   3.856  17.829  0.00  0.00    +0.000 N 
ENDROOT
BRANCH   1   5
ATOM      2  C   UNL     1       7.021   4.766  14.335  0.00  0.00    +0.000 A 
ATOM      3  C   UNL     1       5.727   4.237  14.216  0.00  0.00    +0.000 A 
ATOM      4  C   UNL     1       4.981   3.909  15.359  0.00  0.00    +0.000 A 
ATOM      5  C   UNL     1       5.531   4.108  16.626  0.00  0.00    +0.000 A 
ATOM      6  C   UNL     1       6.833   4.600  16.742  0.00  0.00    +0.000 A 
ATOM      7  C   UNL     1       7.579   4.926  15.606  0.00  0.00    +0.000 A 
BRANCH   2   9
ATOM      8  N   UNL     1       8.816   6.002  13.228  0.00  0.00    +0.000 N 
ATOM      9  C   UNL     1       7.774   5.124  13.104  0.00  0.00    +0.000 C 
ATOM     10  O   UNL     1       7.455   4.686  12.004  0.00  0.00    +0.000 OA
ATOM     11  H   UNL     1       9.266   6.297  12.370  0.00  0.00    +0.000 HD
ATOM     12  H   UNL     1       8.988   6.547  14.058  0.00  0.00    +0.000 HD
ENDBRANCH   2   9
ENDBRANCH   1   5
BRANCH   1  13
ATOM     13  S   UNL     1       3.382   2.904  17.693  0.00  0.00    +0.000 S 
ATOM     14  O   UNL     1       2.475   3.573  16.781  0.00  0.00    +0.000 OA
ATOM     15  O   UNL     1       3.737   1.513  17.474  0.00  0.00    +0.000 OA
BRANCH  13  16
ATOM     16  C   UNL     1       2.642   2.971  19.307  0.00  0.00    +0.000 A 
ATOM     17  C   UNL     1       1.337   3.445  19.487  0.00  0.00    +0.000 A 
ATOM     18  C   UNL     1       0.754   3.406  20.761  0.00  0.00    +0.000 A 
ATOM     19  C   UNL     1       1.468   2.898  21.850  0.00  0.00    +0.000 A 
ATOM     20  C   UNL     1       2.763   2.417  21.660  0.00  0.00    +0.000 A 
ATOM     21  C   UNL     1       3.336   2.444  20.390  0.00  0.00    +0.000 A 
ATOM     22  F   UNL     1       4.577   1.961  20.255  0.00  0.00    +0.000 F 
ENDBRANCH  13  16
ENDBRANCH   1  13
BRANCH   1  23
ATOM     23  C   UNL     1       4.833   4.894  18.891  0.00  0.00    +0.000 C 
BRANCH  23  24
ATOM     24  C   UNL     1       3.950   6.102  18.641  0.00  0.00    +0.000 A 
ATOM     25  C   UNL     1       2.937   6.484  19.533  0.00  0.00    +0.000 A 
ATOM     26  C   UNL     1       2.049   7.510  19.215  0.00  0.00    +0.000 A 
ATOM     27  C   UNL     1       2.200   8.193  18.019  0.00  0.00    +0.000 A 
ATOM     28  F   UNL     1       1.318   9.145  17.690  0.00  0.00    +0.000 F 
ATOM     29  C   UNL     1       3.249   7.898  17.158  0.00  0.00    +0.000 A 
ATOM     30  C   UNL     1       4.128   6.858  17.471  0.00  0.00    +0.000 A 
ENDBRANCH  23  24
ENDBRANCH   1  23
TORSDOF 6
ENDMDL
MODEL 2
REMARK VINA RESULT:      -8.6      3.107      6.066
REMARK  Name = 
REMARK  6 active torsions:
REMARK  status: ('A' for Active; 'I' for Inactive)
REMARK    1  A    between atoms: C_2  and  C_4
REMARK    2  A    between atoms: C_7  and  N_8
REMARK    3  A    between atoms: N_8  and  C_9
REMARK    4  A    between atoms: N_8  and  S_17
REMARK    5  A    between atoms: C_9  and  C_10
REMARK    6  A    between atoms: S_17  and  C_20
REMARK                            x       y       z     vdW  Elec       q    Type
REMARK                         _______ _______ _______ _____ _____    ______ ____
ROOT
ATOM      1  N   UNL     1       3.203   5.874  18.026  0.00  0.00    +0.000 N 
ENDROOT
BRANCH   1   5
ATOM      2  C   UNL     1       1.199   9.130  19.874  0.00  0.00    +0.000 A 
ATOM      3  C   UNL     1       1.538   8.000  20.633  0.00  0.00    +0.000 A 
ATOM      4  C   UNL     1       2.181   6.904  20.034  0.00  0.00    +0.000 A 
ATOM      5  C   UNL     1       2.484   6.937  18.673  0.00  0.00    +0.000 A 
ATOM      6  C   UNL     1       2.113   8.048  17.911  0.00  0.00    +0.000 A 
ATOM      7  C   UNL     1       1.471   9.139  18.504  0.00  0.00    +0.000 A 
BRANCH   2   9
ATOM      8  N   UNL     1      -0.678  10.685  20.066  0.00  0.00    +0.000 N 
ATOM      9  C   UNL     1       0.539  10.282  20.543  0.00  0.00    +0.000 C 
ATOM     10  O   UNL     1       1.078  10.884  21.466  0.00  0.00    +0.000 OA
ATOM     11  H   UNL     1      -1.075  11.519  20.480  0.00  0.00    +0.000 HD
ATOM     12  H   UNL     1      -1.065  10.366  19.192  0.00  0.00    +0.000 HD
ENDBRANCH   2   9
ENDBRANCH   1   5
BRANCH   1  13
ATOM     13  S   UNL     1       2.376   4.409  17.780  0.00  0.00    +0.000 S 
ATOM     14  O   UNL     1       1.016   4.723  17.388  0.00  0.00    +0.000 OA
ATOM     15  O   UNL     1       3.177   3.510  16.968  0.00  0.00    +0.000 OA
BRANCH  13  16
ATOM     16  C   UNL     1       2.296   3.667  19.393  0.00  0.00    +0.000 A 
ATOM     17  C   UNL     1       1.096   3.628  20.113  0.00  0.00    +0.000 A 
ATOM     18  C   UNL     1       1.049   2.963  21.346  0.00  0.00    +0.000 A 
ATOM     19  C   UNL     1       2.191   2.340  21.859  0.00  0.00    +0.000 A 
ATOM     20  C   UNL     1       3.379   2.373  21.129  0.00  0.00    +0.000 A 
ATOM     21  C   UNL     1       3.421   3.024  19.897  0.00  0.00    +0.000 A 
ATOM     22  F   UNL     1       4.580   3.021  19.228  0.00  0.00    +0.000 F 
ENDBRANCH  13  16
ENDBRANCH   1  13
BRANCH   1  23
ATOM     23  C   UNL     1       4.676   5.829  18.224  0.00  0.00    +0.000 C 
BRANCH  23  24
ATOM     24  C   UNL     1       5.479   5.554  16.966  0.00  0.00    +0.000 A 
ATOM     25  C   UNL     1       5.133   6.103  15.723  0.00  0.00    +0.000 A 
ATOM     26  C   UNL     1       5.802   5.725  14.560  0.00  0.00    +0.000 A 
ATOM     27  C   UNL     1       6.855   4.828  14.641  0.00  0.00    +0.000 A 
ATOM     28  F   UNL     1       7.465   4.427  13.520  0.00  0.00    +0.000 F 
ATOM     29  C   UNL     1       7.279   4.339  15.870  0.00  0.00    +0.000 A 
ATOM     30  C   UNL     1       6.597   4.706  17.033  0.00  0.00    +0.000 A 
ENDBRANCH  23  24
ENDBRANCH   1  23
TORSDOF 6
ENDMDL
MODEL 3
REMARK VINA RESULT:      -8.6      3.091      6.564
REMARK  Name = 
REMARK  6 active torsions:
REMARK  status: ('A' for Active; 'I' for Inactive)
REMARK    1  A    between atoms: C_2  and  C_4
REMARK    2  A    between atoms: C_7  and  N_8
REMARK    3  A    between atoms: N_8  and  C_9
REMARK    4  A    between atoms: N_8  and  S_17
REMARK    5  A    between atoms: C_9  and  C_10
REMARK    6  A    between atoms: S_17  and  C_20
REMARK                            x       y       z     vdW  Elec       q    Type
REMARK                         _______ _______ _______ _____ _____    ______ ____
ROOT
ATOM      1  N   UNL     1       3.929   5.379  17.390  0.00  0.00    +0.000 N 
ENDROOT
BRANCH   1   5
ATOM      2  C   UNL     1       1.767   8.614  19.091  0.00  0.00    +0.000 A 
ATOM      3  C   UNL     1       2.117   8.648  17.733  0.00  0.00    +0.000 A 
ATOM      4  C   UNL     1       2.851   7.598  17.158  0.00  0.00    +0.000 A 
ATOM      5  C   UNL     1       3.238   6.511  17.943  0.00  0.00    +0.000 A 
ATOM      6  C   UNL     1       2.922   6.497  19.304  0.00  0.00    +0.000 A 
ATOM      7  C   UNL     1       2.193   7.542  19.879  0.00  0.00    +0.000 A 
BRANCH   2   9
ATOM      8  N   UNL     1       0.736   9.722  21.011  0.00  0.00    +0.000 N 
ATOM      9  C   UNL     1       0.971   9.731  19.663  0.00  0.00    +0.000 C 
ATOM     10  O   UNL     1       0.499  10.614  18.953  0.00  0.00    +0.000 OA
ATOM     11  H   UNL     1       0.126  10.445  21.371  0.00  0.00    +0.000 HD
ATOM     12  H   UNL     1       0.918   8.926  21.601  0.00  0.00    +0.000 HD
ENDBRANCH   2   9
ENDBRANCH   1   5
BRANCH   1  13
ATOM     13  S   UNL     1       5.202   5.693  16.307  0.00  0.00    +0.000 S 
ATOM     14  O   UNL     1       5.630   4.428  15.741  0.00  0.00    +0.000 OA
ATOM     15  O   UNL     1       4.858   6.800  15.434  0.00  0.00    +0.000 OA
BRANCH  13  16
ATOM     16  C   UNL     1       6.528   6.277  17.337  0.00  0.00    +0.000 A 
ATOM     17  C   UNL     1       7.065   7.559  17.169  0.00  0.00    +0.000 A 
ATOM     18  C   UNL     1       8.052   8.018  18.051  0.00  0.00    +0.000 A 
ATOM     19  C   UNL     1       8.503   7.205  19.095  0.00  0.00    +0.000 A 
ATOM     20  C   UNL     1       7.954   5.934  19.263  0.00  0.00    +0.000 A 
ATOM     21  C   UNL     1       6.963   5.483  18.392  0.00  0.00    +0.000 A 
ATOM     22  F   UNL     1       6.458   4.261  18.599  0.00  0.00    +0.000 F 
ENDBRANCH  13  16
ENDBRANCH   1  13
BRANCH   1  23
ATOM     23  C   UNL     1       3.152   4.124  17.220  0.00  0.00    +0.000 C 
BRANCH  23  24
ATOM     24  C   UNL     1       2.580   3.549  18.502  0.00  0.00    +0.000 A 
ATOM     25  C   UNL     1       1.200   3.487  18.744  0.00  0.00    +0.000 A 
ATOM     26  C   UNL     1       0.705   3.085  19.983  0.00  0.00    +0.000 A 
ATOM     27  C   UNL     1       1.590   2.697  20.976  0.00  0.00    +0.000 A 
ATOM     28  F   UNL     1       1.119   2.359  22.182  0.00  0.00    +0.000 F 
ATOM     29  C   UNL     1       2.958   2.661  20.735  0.00  0.00    +0.000 A 
ATOM     30  C   UNL     1       3.453   3.079  19.497  0.00  0.00    +0.000 A 
ENDBRANCH  23  24
ENDBRANCH   1  23
TORSDOF 6
ENDMDL
MODEL 4
REMARK VINA RESULT:      -8.5      1.096      1.688
REMARK  Name = 
REMARK  6 active torsions:
REMARK  status: ('A' for Active; 'I' for Inactive)
REMARK    1  A    between atoms: C_2  and  C_4
REMARK    2  A    between atoms: C_7  and  N_8
REMARK    3  A    between atoms: N_8  and  C_9
REMARK    4  A    between atoms: N_8  and  S_17
REMARK    5  A    between atoms: C_9  and  C_10
REMARK    6  A    between atoms: S_17  and  C_20
REMARK                            x       y       z     vdW  Elec       q    Type
REMARK                         _______ _______ _______ _____ _____    ______ ____
ROOT
ATOM      1  N   UNL     1       4.806   3.790  17.870  0.00  0.00    +0.000 N 
ENDROOT
BRANCH   1   5
ATOM      2  C   UNL     1       7.090   4.855  14.452  0.00  0.00    +0.000 A 
ATOM      3  C   UNL     1       5.856   4.207  14.291  0.00  0.00    +0.000 A 
ATOM      4  C   UNL     1       5.097   3.827  15.409  0.00  0.00    +0.000 A 
ATOM      5  C   UNL     1       5.573   4.094  16.693  0.00  0.00    +0.000 A 
ATOM      6  C   UNL     1       6.819   4.705  16.852  0.00  0.00    +0.000 A 
ATOM      7  C   UNL     1       7.578   5.083  15.740  0.00  0.00    +0.000 A 
BRANCH   2   9
ATOM      8  N   UNL     1       7.448   4.776  12.035  0.00  0.00    +0.000 N 
ATOM      9  C   UNL     1       7.857   5.264  13.246  0.00  0.00    +0.000 C 
ATOM     10  O   UNL     1       8.850   5.979  13.327  0.00  0.00    +0.000 OA
ATOM     11  H   UNL     1       8.028   4.999  11.236  0.00  0.00    +0.000 HD
ATOM     12  H   UNL     1       6.778   4.030  11.934  0.00  0.00    +0.000 HD
ENDBRANCH   2   9
ENDBRANCH   1   5
BRANCH   1  13
ATOM     13  S   UNL     1       3.446   2.787  17.677  0.00  0.00    +0.000 S 
ATOM     14  O   UNL     1       2.533   3.442  16.759  0.00  0.00    +0.000 OA
ATOM     15  O   UNL     1       3.861   1.417  17.436  0.00  0.00    +0.000 OA
BRANCH  13  16
ATOM     16  C   UNL     1       2.665   2.785  19.274  0.00  0.00    +0.000 A 
ATOM     17  C   UNL     1       3.393   2.501  20.436  0.00  0.00    +0.000 A 
ATOM     18  C   UNL     1       2.765   2.590  21.686  0.00  0.00    +0.000 A 
ATOM     19  C   UNL     1       1.420   2.958  21.778  0.00  0.00    +0.000 A 
ATOM     20  C   UNL     1       0.706   3.250  20.617  0.00  0.00    +0.000 A 
ATOM     21  C   UNL     1       1.334   3.175  19.375  0.00  0.00    +0.000 A 
ATOM     22  F   UNL     1       0.612   3.475  18.290  0.00  0.00    +0.000 F 
ENDBRANCH  13  16
ENDBRANCH   1  13
BRANCH   1  23
ATOM     23  C   UNL     1       4.783   4.810  18.950  0.00  0.00    +0.000 C 
BRANCH  23  24
ATOM     24  C   UNL     1       3.829   5.966  18.716  0.00  0.00    +0.000 A 
ATOM     25  C   UNL     1       3.875   6.749  17.553  0.00  0.00    +0.000 A 
ATOM     26  C   UNL     1       3.085   7.889  17.423  0.00  0.00    +0.000 A 
ATOM     27  C   UNL     1       2.207   8.228  18.439  0.00  0.00    +0.000 A 
ATOM     28  F   UNL     1       1.483   9.349  18.338  0.00  0.00    +0.000 F 
ATOM     29  C   UNL     1       2.073   7.421  19.562  0.00  0.00    +0.000 A 
ATOM     30  C   UNL     1       2.878   6.287  19.698  0.00  0.00    +0.000 A 
ENDBRANCH  23  24
ENDBRANCH   1  23
TORSDOF 6
ENDMDL
MODEL 5
REMARK VINA RESULT:      -8.3      3.151      6.597
REMARK  Name = 
REMARK  6 active torsions:
REMARK  status: ('A' for Active; 'I' for Inactive)
REMARK    1  A    between atoms: C_2  and  C_4
REMARK    2  A    between atoms: C_7  and  N_8
REMARK    3  A    between atoms: N_8  and  C_9
REMARK    4  A    between atoms: N_8  and  S_17
REMARK    5  A    between atoms: C_9  and  C_10
REMARK    6  A    between atoms: S_17  and  C_20
REMARK                            x       y       z     vdW  Elec       q    Type
REMARK                         _______ _______ _______ _____ _____    ______ ____
ROOT
ATOM      1  N   UNL     1       3.957   5.383  17.416  0.00  0.00    +0.000 N 
ENDROOT
BRANCH   1   5
ATOM      2  C   UNL     1       1.784   8.663  19.015  0.00  0.00    +0.000 A 
ATOM      3  C   UNL     1       2.116   7.578  19.841  0.00  0.00    +0.000 A 
ATOM      4  C   UNL     1       2.815   6.475  19.325  0.00  0.00    +0.000 A 
ATOM      5  C   UNL     1       3.181   6.454  17.978  0.00  0.00    +0.000 A 
ATOM      6  C   UNL     1       2.818   7.518  17.149  0.00  0.00    +0.000 A 
ATOM      7  C   UNL     1       2.121   8.617  17.660  0.00  0.00    +0.000 A 
BRANCH   2   9
ATOM      8  N   UNL     1       0.339  10.617  18.751  0.00  0.00    +0.000 N 
ATOM      9  C   UNL     1       1.064   9.825  19.598  0.00  0.00    +0.000 C 
ATOM     10  O   UNL     1       1.144  10.098  20.792  0.00  0.00    +0.000 OA
ATOM     11  H   UNL     1      -0.078  11.448  19.150  0.00  0.00    +0.000 HD
ATOM     12  H   UNL     1       0.407  10.563  17.746  0.00  0.00    +0.000 HD
ENDBRANCH   2   9
ENDBRANCH   1   5
BRANCH   1  13
ATOM     13  S   UNL     1       5.186   5.803  16.318  0.00  0.00    +0.000 S 
ATOM     14  O   UNL     1       5.622   4.591  15.650  0.00  0.00    +0.000 OA
ATOM     15  O   UNL     1       4.789   6.960  15.537  0.00  0.00    +0.000 OA
BRANCH  13  16
ATOM     16  C   UNL     1       6.533   6.345  17.343  0.00  0.00    +0.000 A 
ATOM     17  C   UNL     1       7.065   7.634  17.219  0.00  0.00    +0.000 A 
ATOM     18  C   UNL     1       8.070   8.057  18.099  0.00  0.00    +0.000 A 
ATOM     19  C   UNL     1       8.544   7.200  19.097  0.00  0.00    +0.000 A 
ATOM     20  C   UNL     1       8.001   5.922  19.221  0.00  0.00    +0.000 A 
ATOM     21  C   UNL     1       6.992   5.507  18.353  0.00  0.00    +0.000 A 
ATOM     22  F   UNL     1       6.494   4.276  18.518  0.00  0.00    +0.000 F 
ENDBRANCH  13  16
ENDBRANCH   1  13
BRANCH   1  23
ATOM     23  C   UNL     1       3.286   4.067  17.255  0.00  0.00    +0.000 C 
BRANCH  23  24
ATOM     24  C   UNL     1       2.668   3.507  18.522  0.00  0.00    +0.000 A 
ATOM     25  C   UNL     1       1.280   3.444  18.711  0.00  0.00    +0.000 A 
ATOM     26  C   UNL     1       0.739   3.057  19.936  0.00  0.00    +0.000 A 
ATOM     27  C   UNL     1       1.587   2.686  20.967  0.00  0.00    +0.000 A 
ATOM     28  F   UNL     1       1.071   2.362  22.159  0.00  0.00    +0.000 F 
ATOM     29  C   UNL     1       2.962   2.651  20.780  0.00  0.00    +0.000 A 
ATOM     30  C   UNL     1       3.504   3.054  19.556  0.00  0.00    +0.000 A 
ENDBRANCH  23  24
ENDBRANCH   1  23
TORSDOF 6
ENDMDL
MODEL 6
REMARK VINA RESULT:      -8.3      3.515      6.293
REMARK  Name = 
REMARK  6 active torsions:
REMARK  status: ('A' for Active; 'I' for Inactive)
REMARK    1  A    between atoms: C_2  and  C_4
REMARK    2  A    between atoms: C_7  and  N_8
REMARK    3  A    between atoms: N_8  and  C_9
REMARK    4  A    between atoms: N_8  and  S_17
REMARK    5  A    between atoms: C_9  and  C_10
REMARK    6  A    between atoms: S_17  and  C_20
REMARK                            x       y       z     vdW  Elec       q    Type
REMARK                         _______ _______ _______ _____ _____    ______ ____
ROOT
ATOM      1  N   UNL     1       3.001   6.169  19.229  0.00  0.00    +0.000 N 
ENDROOT
BRANCH   1   5
ATOM      2  C   UNL     1       0.821   9.810  19.071  0.00  0.00    +0.000 A 
ATOM      3  C   UNL     1       1.441   9.319  17.912  0.00  0.00    +0.000 A 
ATOM      4  C   UNL     1       2.185   8.128  17.950  0.00  0.00    +0.000 A 
ATOM      5  C   UNL     1       2.311   7.427  19.150  0.00  0.00    +0.000 A 
ATOM      6  C   UNL     1       1.724   7.937  20.310  0.00  0.00    +0.000 A 
ATOM      7  C   UNL     1       0.984   9.123  20.276  0.00  0.00    +0.000 A 
BRANCH   2   9
ATOM      8  N   UNL     1      -0.874  11.180  17.964  0.00  0.00    +0.000 N 
ATOM      9  C   UNL     1       0.022  11.061  18.991  0.00  0.00    +0.000 C 
ATOM     10  O   UNL     1       0.182  11.979  19.788  0.00  0.00    +0.000 OA
ATOM     11  H   UNL     1      -1.351  12.069  17.877  0.00  0.00    +0.000 HD
ATOM     12  H   UNL     1      -0.898  10.556  17.172  0.00  0.00    +0.000 HD
ENDBRANCH   2   9
ENDBRANCH   1   5
BRANCH   1  13
ATOM     13  S   UNL     1       2.194   4.882  19.994  0.00  0.00    +0.000 S 
ATOM     14  O   UNL     1       2.490   4.950  21.413  0.00  0.00    +0.000 OA
ATOM     15  O   UNL     1       0.817   4.813  19.541  0.00  0.00    +0.000 OA
BRANCH  13  16
ATOM     16  C   UNL     1       2.989   3.422  19.365  0.00  0.00    +0.000 A 
ATOM     17  C   UNL     1       3.756   2.599  20.198  0.00  0.00    +0.000 A 
ATOM     18  C   UNL     1       4.299   1.411  19.689  0.00  0.00    +0.000 A 
ATOM     19  C   UNL     1       4.081   1.047  18.357  0.00  0.00    +0.000 A 
ATOM     20  C   UNL     1       3.307   1.867  17.538  0.00  0.00    +0.000 A 
ATOM     21  C   UNL     1       2.755   3.041  18.049  0.00  0.00    +0.000 A 
ATOM     22  F   UNL     1       2.010   3.790  17.228  0.00  0.00    +0.000 F 
ENDBRANCH  13  16
ENDBRANCH   1  13
BRANCH   1  23
ATOM     23  C   UNL     1       4.485   6.209  19.293  0.00  0.00    +0.000 C 
BRANCH  23  24
ATOM     24  C   UNL     1       5.191   5.673  18.061  0.00  0.00    +0.000 A 
ATOM     25  C   UNL     1       6.327   4.854  18.148  0.00  0.00    +0.000 A 
ATOM     26  C   UNL     1       7.038   4.491  17.006  0.00  0.00    +0.000 A 
ATOM     27  C   UNL     1       6.590   4.907  15.763  0.00  0.00    +0.000 A 
ATOM     28  F   UNL     1       7.299   4.601  14.670  0.00  0.00    +0.000 F 
ATOM     29  C   UNL     1       5.417   5.642  15.640  0.00  0.00    +0.000 A 
ATOM     30  C   UNL     1       4.713   6.019  16.786  0.00  0.00    +0.000 A 
ENDBRANCH  23  24
ENDBRANCH   1  23
TORSDOF 6
ENDMDL
MODEL 7
REMARK VINA RESULT:      -8.3      3.511      6.374
REMARK  Name = 
REMARK  6 active torsions:
REMARK  status: ('A' for Active; 'I' for Inactive)
REMARK    1  A    between atoms: C_2  and  C_4
REMARK    2  A    between atoms: C_7  and  N_8
REMARK    3  A    between atoms: N_8  and  C_9
REMARK    4  A    between atoms: N_8  and  S_17
REMARK    5  A    between atoms: C_9  and  C_10
REMARK    6  A    between atoms: S_17  and  C_20
REMARK                            x       y       z     vdW  Elec       q    Type
REMARK                         _______ _______ _______ _____ _____    ______ ____
ROOT
ATOM      1  N   UNL     1       2.910   6.178  19.365  0.00  0.00    +0.000 N 
ENDROOT
BRANCH   1   5
ATOM      2  C   UNL     1       0.897   9.916  19.256  0.00  0.00    +0.000 A 
ATOM      3  C   UNL     1       0.955   9.191  20.456  0.00  0.00    +0.000 A 
ATOM      4  C   UNL     1       1.597   7.943  20.506  0.00  0.00    +0.000 A 
ATOM      5  C   UNL     1       2.180   7.417  19.353  0.00  0.00    +0.000 A 
ATOM      6  C   UNL     1       2.089   8.123  18.151  0.00  0.00    +0.000 A 
ATOM      7  C   UNL     1       1.450   9.364  18.098  0.00  0.00    +0.000 A 
BRANCH   2   9
ATOM      8  N   UNL     1       0.362  12.013  18.119  0.00  0.00    +0.000 N 
ATOM      9  C   UNL     1       0.230  11.244  19.243  0.00  0.00    +0.000 C 
ATOM     10  O   UNL     1      -0.386  11.665  20.217  0.00  0.00    +0.000 OA
ATOM     11  H   UNL     1      -0.030  12.945  18.157  0.00  0.00    +0.000 HD
ATOM     12  H   UNL     1       1.020  11.811  17.382  0.00  0.00    +0.000 HD
ENDBRANCH   2   9
ENDBRANCH   1   5
BRANCH   1  13
ATOM     13  S   UNL     1       2.173   4.845  20.122  0.00  0.00    +0.000 S 
ATOM     14  O   UNL     1       2.563   4.851  21.519  0.00  0.00    +0.000 OA
ATOM     15  O   UNL     1       0.768   4.775  19.761  0.00  0.00    +0.000 OA
BRANCH  13  16
ATOM     16  C   UNL     1       2.940   3.428  19.373  0.00  0.00    +0.000 A 
ATOM     17  C   UNL     1       3.759   2.570  20.117  0.00  0.00    +0.000 A 
ATOM     18  C   UNL     1       4.281   1.416  19.516  0.00  0.00    +0.000 A 
ATOM     19  C   UNL     1       3.990   1.120  18.181  0.00  0.00    +0.000 A 
ATOM     20  C   UNL     1       3.164   1.974  17.451  0.00  0.00    +0.000 A 
ATOM     21  C   UNL     1       2.634   3.114  18.054  0.00  0.00    +0.000 A 
ATOM     22  F   UNL     1       1.839   3.897  17.317  0.00  0.00    +0.000 F 
ENDBRANCH  13  16
ENDBRANCH   1  13
BRANCH   1  23
ATOM     23  C   UNL     1       4.393   6.261  19.371  0.00  0.00    +0.000 C 
BRANCH  23  24
ATOM     24  C   UNL     1       5.067   5.722  18.123  0.00  0.00    +0.000 A 
ATOM     25  C   UNL     1       4.580   5.990  16.836  0.00  0.00    +0.000 A 
ATOM     26  C   UNL     1       5.131   5.370  15.716  0.00  0.00    +0.000 A 
ATOM     27  C   UNL     1       6.207   4.512  15.874  0.00  0.00    +0.000 A 
ATOM     28  F   UNL     1       6.706   3.878  14.806  0.00  0.00    +0.000 F 
ATOM     29  C   UNL     1       6.769   4.299  17.126  0.00  0.00    +0.000 A 
ATOM     30  C   UNL     1       6.205   4.908  18.250  0.00  0.00    +0.000 A 
ENDBRANCH  23  24
ENDBRANCH   1  23
TORSDOF 6
ENDMDL
MODEL 8
REMARK VINA RESULT:      -8.2      3.172      6.680
REMARK  Name = 
REMARK  6 active torsions:
REMARK  status: ('A' for Active; 'I' for Inactive)
REMARK    1  A    between atoms: C_2  and  C_4
REMARK    2  A    between atoms: C_7  and  N_8
REMARK    3  A    between atoms: N_8  and  C_9
REMARK    4  A    between atoms: N_8  and  S_17
REMARK    5  A    between atoms: C_9  and  C_10
REMARK    6  A    between atoms: S_17  and  C_20
REMARK                            x       y       z     vdW  Elec       q    Type
REMARK                         _______ _______ _______ _____ _____    ______ ____
ROOT
ATOM      1  N   UNL     1       3.702   5.569  17.621  0.00  0.00    +0.000 N 
ENDROOT
BRANCH   1   5
ATOM      2  C   UNL     1       1.594   8.929  19.139  0.00  0.00    +0.000 A 
ATOM      3  C   UNL     1       1.958   8.889  17.785  0.00  0.00    +0.000 A 
ATOM      4  C   UNL     1       2.675   7.797  17.270  0.00  0.00    +0.000 A 
ATOM      5  C   UNL     1       3.030   6.742  18.111  0.00  0.00    +0.000 A 
ATOM      6  C   UNL     1       2.699   6.801  19.467  0.00  0.00    +0.000 A 
ATOM      7  C   UNL     1       1.987   7.887  19.983  0.00  0.00    +0.000 A 
BRANCH   2   9
ATOM      8  N   UNL     1       0.080  10.807  18.744  0.00  0.00    +0.000 N 
ATOM      9  C   UNL     1       0.815  10.089  19.647  0.00  0.00    +0.000 C 
ATOM     10  O   UNL     1       0.857  10.426  20.826  0.00  0.00    +0.000 OA
ATOM     11  H   UNL     1      -0.379  11.640  19.091  0.00  0.00    +0.000 HD
ATOM     12  H   UNL     1       0.173  10.705  17.745  0.00  0.00    +0.000 HD
ENDBRANCH   2   9
ENDBRANCH   1   5
BRANCH   1  13
ATOM     13  S   UNL     1       4.935   5.798  16.472  0.00  0.00    +0.000 S 
ATOM     14  O   UNL     1       5.241   4.509  15.882  0.00  0.00    +0.000 OA
ATOM     15  O   UNL     1       4.624   6.932  15.620  0.00  0.00    +0.000 OA
BRANCH  13  16
ATOM     16  C   UNL     1       6.351   6.282  17.430  0.00  0.00    +0.000 A 
ATOM     17  C   UNL     1       6.965   7.526  17.239  0.00  0.00    +0.000 A 
ATOM     18  C   UNL     1       8.028   7.909  18.068  0.00  0.00    +0.000 A 
ATOM     19  C   UNL     1       8.478   7.058  19.081  0.00  0.00    +0.000 A 
ATOM     20  C   UNL     1       7.854   5.826  19.272  0.00  0.00    +0.000 A 
ATOM     21  C   UNL     1       6.788   5.451  18.456  0.00  0.00    +0.000 A 
ATOM     22  F   UNL     1       6.214   4.264  18.684  0.00  0.00    +0.000 F 
ENDBRANCH  13  16
ENDBRANCH   1  13
BRANCH   1  23
ATOM     23  C   UNL     1       2.921   4.306  17.576  0.00  0.00    +0.000 C 
BRANCH  23  24
ATOM     24  C   UNL     1       2.477   3.782  18.929  0.00  0.00    +0.000 A 
ATOM     25  C   UNL     1       3.391   3.323  19.888  0.00  0.00    +0.000 A 
ATOM     26  C   UNL     1       2.953   2.717  21.065  0.00  0.00    +0.000 A 
ATOM     27  C   UNL     1       1.593   2.609  21.309  0.00  0.00    +0.000 A 
ATOM     28  F   UNL     1       1.171   1.984  22.415  0.00  0.00    +0.000 F 
ATOM     29  C   UNL     1       0.667   3.137  20.420  0.00  0.00    +0.000 A 
ATOM     30  C   UNL     1       1.107   3.730  19.233  0.00  0.00    +0.000 A 
ENDBRANCH  23  24
ENDBRANCH   1  23
TORSDOF 6
ENDMDL
MODEL 9
REMARK VINA RESULT:      -8.1      3.073      5.999
REMARK  Name = 
REMARK  6 active torsions:
REMARK  status: ('A' for Active; 'I' for Inactive)
REMARK    1  A    between atoms: C_2  and  C_4
REMARK    2  A    between atoms: C_7  and  N_8
REMARK    3  A    between atoms: N_8  and  C_9
REMARK    4  A    between atoms: N_8  and  S_17
REMARK    5  A    between atoms: C_9  and  C_10
REMARK    6  A    between atoms: S_17  and  C_20
REMARK                            x       y       z     vdW  Elec       q    Type
REMARK                         _______ _______ _______ _____ _____    ______ ____
ROOT
ATOM      1  N   UNL     1       3.224   5.827  17.969  0.00  0.00    +0.000 N 
ENDROOT
BRANCH   1   5
ATOM      2  C   UNL     1       1.121   9.023  19.814  0.00  0.00    +0.000 A 
ATOM      3  C   UNL     1       1.433   9.091  18.447  0.00  0.00    +0.000 A 
ATOM      4  C   UNL     1       2.147   8.054  17.825  0.00  0.00    +0.000 A 
ATOM      5  C   UNL     1       2.553   6.947  18.570  0.00  0.00    +0.000 A 
ATOM      6  C   UNL     1       2.274   6.898  19.938  0.00  0.00    +0.000 A 
ATOM      7  C   UNL     1       1.565   7.929  20.561  0.00  0.00    +0.000 A 
BRANCH   2   9
ATOM      8  N   UNL     1       0.204  11.287  19.725  0.00  0.00    +0.000 N 
ATOM      9  C   UNL     1       0.345  10.127  20.436  0.00  0.00    +0.000 C 
ATOM     10  O   UNL     1      -0.123  10.027  21.566  0.00  0.00    +0.000 OA
ATOM     11  H   UNL     1      -0.258  12.055  20.194  0.00  0.00    +0.000 HD
ATOM     12  H   UNL     1       0.735  11.497  18.893  0.00  0.00    +0.000 HD
ENDBRANCH   2   9
ENDBRANCH   1   5
BRANCH   1  13
ATOM     13  S   UNL     1       2.327   4.396  17.766  0.00  0.00    +0.000 S 
ATOM     14  O   UNL     1       0.968   4.765  17.416  0.00  0.00    +0.000 OA
ATOM     15  O   UNL     1       3.061   3.456  16.939  0.00  0.00    +0.000 OA
BRANCH  13  16
ATOM     16  C   UNL     1       2.268   3.675  19.389  0.00  0.00    +0.000 A 
ATOM     17  C   UNL     1       1.084   3.668  20.137  0.00  0.00    +0.000 A 
ATOM     18  C   UNL     1       1.052   3.018  21.378  0.00  0.00    +0.000 A 
ATOM     19  C   UNL     1       2.192   2.378  21.872  0.00  0.00    +0.000 A 
ATOM     20  C   UNL     1       3.364   2.379  21.116  0.00  0.00    +0.000 A 
ATOM     21  C   UNL     1       3.391   3.015  19.876  0.00  0.00    +0.000 A 
ATOM     22  F   UNL     1       4.534   2.981  19.181  0.00  0.00    +0.000 F 
ENDBRANCH  13  16
ENDBRANCH   1  13
BRANCH   1  23
ATOM     23  C   UNL     1       4.690   5.716  18.183  0.00  0.00    +0.000 C 
BRANCH  23  24
ATOM     24  C   UNL     1       5.493   5.389  16.938  0.00  0.00    +0.000 A 
ATOM     25  C   UNL     1       6.655   4.605  16.983  0.00  0.00    +0.000 A 
ATOM     26  C   UNL     1       7.451   4.435  15.851  0.00  0.00    +0.000 A 
ATOM     27  C   UNL     1       7.062   5.012  14.653  0.00  0.00    +0.000 A 
ATOM     28  F   UNL     1       7.850   4.891  13.578  0.00  0.00    +0.000 F 
ATOM     29  C   UNL     1       5.869   5.716  14.557  0.00  0.00    +0.000 A 
ATOM     30  C   UNL     1       5.080   5.899  15.696  0.00  0.00    +0.000 A 
ENDBRANCH  23  24
ENDBRANCH   1  23
TORSDOF 6
ENDMDL
