MODEL 1
REMARK VINA RESULT:      -6.9      0.000      0.000
REMARK  Name = 
REMARK  2 active torsions:
REMARK  status: ('A' for Active; 'I' for Inactive)
REMARK    1  A    between atoms: S_2  and  O_4
REMARK    2  A    between atoms: S_2  and  C_5
REMARK                            x       y       z     vdW  Elec       q    Type
REMARK                         _______ _______ _______ _____ _____    ______ ____
ROOT
ATOM      1  C   UNL     1       4.480   4.467  18.657  0.00  0.00    +0.000 C 
ATOM      2  C   UNL     1       4.063   4.126  17.205  0.00  0.00    +0.000 C 
ATOM      3  C   UNL     1       2.705   3.411  17.178  0.00  0.00    +0.000 C 
ATOM      4  C   UNL     1       2.808   2.117  18.001  0.00  0.00    +0.000 C 
ATOM      5  C   UNL     1       3.173   2.444  19.457  0.00  0.00    +0.000 C 
ATOM      6  C   UNL     1       2.097   3.364  20.054  0.00  0.00    +0.000 C 
ATOM      7  C   UNL     1       2.020   4.673  19.249  0.00  0.00    +0.000 C 
ATOM      8  C   UNL     1       1.643   4.334  17.795  0.00  0.00    +0.000 C 
ATOM      9  C   UNL     1       3.397   5.384  19.274  0.00  0.00    +0.000 C 
ATOM     10  C   UNL     1       4.531   3.165  19.489  0.00  0.00    +0.000 C 
ENDROOT
BRANCH   1  12
ATOM     11  O   UNL     1       6.727   5.310  19.931  0.00  0.00    +0.000 OA
ATOM     12  S   UNL     1       6.156   5.218  18.603  0.00  0.00    +0.000 S 
ATOM     13  O   UNL     1       6.170   6.356  17.711  0.00  0.00    +0.000 OA
BRANCH  12  14
ATOM     14  O   UNL     1       6.986   4.054  17.851  0.00  0.00    +0.000 OA
ATOM     15  H   UNL     1       7.794   4.465  17.478  0.00  0.00    +0.000 HD
ENDBRANCH  12  14
ENDBRANCH   1  12
TORSDOF 2
ENDMDL
MODEL 2
REMARK VINA RESULT:      -6.9      0.110      1.994
REMARK  Name = 
REMARK  2 active torsions:
REMARK  status: ('A' for Active; 'I' for Inactive)
REMARK    1  A    between atoms: S_2  and  O_4
REMARK    2  A    between atoms: S_2  and  C_5
REMARK                            x       y       z     vdW  Elec       q    Type
REMARK                         _______ _______ _______ _____ _____    ______ ____
ROOT
ATOM      1  C   UNL     1       4.530   4.371  18.654  0.00  0.00    +0.000 C 
ATOM      2  C   UNL     1       3.507   5.378  19.233  0.00  0.00    +0.000 C 
ATOM      3  C   UNL     1       2.091   4.784  19.228  0.00  0.00    +0.000 C 
ATOM      4  C   UNL     1       1.704   4.432  17.783  0.00  0.00    +0.000 C 
ATOM      5  C   UNL     1       2.685   3.395  17.211  0.00  0.00    +0.000 C 
ATOM      6  C   UNL     1       2.654   2.133  18.088  0.00  0.00    +0.000 C 
ATOM      7  C   UNL     1       3.073   2.483  19.527  0.00  0.00    +0.000 C 
ATOM      8  C   UNL     1       2.079   3.514  20.092  0.00  0.00    +0.000 C 
ATOM      9  C   UNL     1       4.500   3.089  19.522  0.00  0.00    +0.000 C 
ATOM     10  C   UNL     1       4.105   3.983  17.219  0.00  0.00    +0.000 C 
ENDROOT
BRANCH   1  12
ATOM     11  O   UNL     1       6.735   5.320  19.926  0.00  0.00    +0.000 OA
ATOM     12  S   UNL     1       6.170   5.199  18.598  0.00  0.00    +0.000 S 
ATOM     13  O   UNL     1       6.132   6.334  17.704  0.00  0.00    +0.000 OA
BRANCH  12  14
ATOM     14  O   UNL     1       7.053   4.073  17.849  0.00  0.00    +0.000 OA
ATOM     15  H   UNL     1       7.829   3.884  18.418  0.00  0.00    +0.000 HD
ENDBRANCH  12  14
ENDBRANCH   1  12
TORSDOF 2
ENDMDL
MODEL 3
REMARK VINA RESULT:      -6.8      0.135      2.055
REMARK  Name = 
REMARK  2 active torsions:
REMARK  status: ('A' for Active; 'I' for Inactive)
REMARK    1  A    between atoms: S_2  and  O_4
REMARK    2  A    between atoms: S_2  and  C_5
REMARK                            x       y       z     vdW  Elec       q    Type
REMARK                         _______ _______ _______ _____ _____    ______ ____
ROOT
ATOM      1  C   UNL     1       4.516   4.445  18.541  0.00  0.00    +0.000 C 
ATOM      2  C   UNL     1       4.543   3.205  19.468  0.00  0.00    +0.000 C 
ATOM      3  C   UNL     1       3.153   2.558  19.557  0.00  0.00    +0.000 C 
ATOM      4  C   UNL     1       2.157   3.591  20.108  0.00  0.00    +0.000 C 
ATOM      5  C   UNL     1       2.085   4.807  19.171  0.00  0.00    +0.000 C 
ATOM      6  C   UNL     1       1.644   4.343  17.773  0.00  0.00    +0.000 C 
ATOM      7  C   UNL     1       2.661   3.334  17.211  0.00  0.00    +0.000 C 
ATOM      8  C   UNL     1       2.717   2.116  18.152  0.00  0.00    +0.000 C 
ATOM      9  C   UNL     1       4.062   3.993  17.132  0.00  0.00    +0.000 C 
ATOM     10  C   UNL     1       3.476   5.456  19.075  0.00  0.00    +0.000 C 
ENDROOT
BRANCH   1  12
ATOM     11  O   UNL     1       6.698   5.275  19.932  0.00  0.00    +0.000 OA
ATOM     12  S   UNL     1       6.185   5.215  18.579  0.00  0.00    +0.000 S 
ATOM     13  O   UNL     1       6.225   6.376  17.720  0.00  0.00    +0.000 OA
BRANCH  12  14
ATOM     14  O   UNL     1       7.059   4.079  17.832  0.00  0.00    +0.000 OA
ATOM     15  H   UNL     1       7.646   4.535  17.193  0.00  0.00    +0.000 HD
ENDBRANCH  12  14
ENDBRANCH   1  12
TORSDOF 2
ENDMDL
MODEL 4
REMARK VINA RESULT:      -6.6      1.749      2.272
REMARK  Name = 
REMARK  2 active torsions:
REMARK  status: ('A' for Active; 'I' for Inactive)
REMARK    1  A    between atoms: S_2  and  O_4
REMARK    2  A    between atoms: S_2  and  C_5
REMARK                            x       y       z     vdW  Elec       q    Type
REMARK                         _______ _______ _______ _____ _____    ______ ____
ROOT
ATOM      1  C   UNL     1       5.435   5.191  17.233  0.00  0.00    +0.000 C 
ATOM      2  C   UNL     1       4.845   3.858  16.709  0.00  0.00    +0.000 C 
ATOM      3  C   UNL     1       3.670   3.398  17.584  0.00  0.00    +0.000 C 
ATOM      4  C   UNL     1       4.168   3.208  19.026  0.00  0.00    +0.000 C 
ATOM      5  C   UNL     1       4.712   4.536  19.576  0.00  0.00    +0.000 C 
ATOM      6  C   UNL     1       3.597   5.594  19.538  0.00  0.00    +0.000 C 
ATOM      7  C   UNL     1       3.124   5.805  18.089  0.00  0.00    +0.000 C 
ATOM      8  C   UNL     1       2.572   4.472  17.552  0.00  0.00    +0.000 C 
ATOM      9  C   UNL     1       4.318   6.262  17.211  0.00  0.00    +0.000 C 
ATOM     10  C   UNL     1       5.886   5.004  18.700  0.00  0.00    +0.000 C 
ENDROOT
BRANCH   1  12
ATOM     11  O   UNL     1       7.556   6.800  16.690  0.00  0.00    +0.000 OA
ATOM     12  S   UNL     1       6.895   5.609  16.198  0.00  0.00    +0.000 S 
ATOM     13  O   UNL     1       6.576   5.466  14.796  0.00  0.00    +0.000 OA
BRANCH  12  14
ATOM     14  O   UNL     1       7.882   4.382  16.557  0.00  0.00    +0.000 OA
ATOM     15  H   UNL     1       8.431   4.207  15.765  0.00  0.00    +0.000 HD
ENDBRANCH  12  14
ENDBRANCH   1  12
TORSDOF 2
ENDMDL
MODEL 5
REMARK VINA RESULT:      -6.6      1.672      2.432
REMARK  Name = 
REMARK  2 active torsions:
REMARK  status: ('A' for Active; 'I' for Inactive)
REMARK    1  A    between atoms: S_2  and  O_4
REMARK    2  A    between atoms: S_2  and  C_5
REMARK                            x       y       z     vdW  Elec       q    Type
REMARK                         _______ _______ _______ _____ _____    ______ ____
ROOT
ATOM      1  C   UNL     1       5.304   5.050  17.224  0.00  0.00    +0.000 C 
ATOM      2  C   UNL     1       4.521   3.873  16.591  0.00  0.00    +0.000 C 
ATOM      3  C   UNL     1       3.332   3.469  17.474  0.00  0.00    +0.000 C 
ATOM      4  C   UNL     1       3.857   3.052  18.856  0.00  0.00    +0.000 C 
ATOM      5  C   UNL     1       4.595   4.227  19.518  0.00  0.00    +0.000 C 
ATOM      6  C   UNL     1       3.631   5.416  19.656  0.00  0.00    +0.000 C 
ATOM      7  C   UNL     1       3.133   5.852  18.267  0.00  0.00    +0.000 C 
ATOM      8  C   UNL     1       2.387   4.671  17.619  0.00  0.00    +0.000 C 
ATOM      9  C   UNL     1       4.340   6.251  17.381  0.00  0.00    +0.000 C 
ATOM     10  C   UNL     1       5.785   4.639  18.634  0.00  0.00    +0.000 C 
ENDROOT
BRANCH   1  12
ATOM     11  O   UNL     1       6.366   5.597  14.784  0.00  0.00    +0.000 OA
ATOM     12  S   UNL     1       6.764   5.394  16.162  0.00  0.00    +0.000 S 
ATOM     13  O   UNL     1       7.852   4.503  16.495  0.00  0.00    +0.000 OA
BRANCH  12  14
ATOM     14  O   UNL     1       7.199   6.850  16.709  0.00  0.00    +0.000 OA
ATOM     15  H   UNL     1       7.241   6.795  17.687  0.00  0.00    +0.000 HD
ENDBRANCH  12  14
ENDBRANCH   1  12
TORSDOF 2
ENDMDL
MODEL 6
REMARK VINA RESULT:      -6.6      1.714      3.021
REMARK  Name = 
REMARK  2 active torsions:
REMARK  status: ('A' for Active; 'I' for Inactive)
REMARK    1  A    between atoms: S_2  and  O_4
REMARK    2  A    between atoms: S_2  and  C_5
REMARK                            x       y       z     vdW  Elec       q    Type
REMARK                         _______ _______ _______ _____ _____    ______ ____
ROOT
ATOM      1  C   UNL     1       5.400   5.071  17.155  0.00  0.00    +0.000 C 
ATOM      2  C   UNL     1       5.899   4.649  18.559  0.00  0.00    +0.000 C 
ATOM      3  C   UNL     1       4.719   4.295  19.476  0.00  0.00    +0.000 C 
ATOM      4  C   UNL     1       3.802   5.523  19.603  0.00  0.00    +0.000 C 
ATOM      5  C   UNL     1       3.261   5.923  18.222  0.00  0.00    +0.000 C 
ATOM      6  C   UNL     1       2.480   4.742  17.623  0.00  0.00    +0.000 C 
ATOM      7  C   UNL     1       3.410   3.525  17.466  0.00  0.00    +0.000 C 
ATOM      8  C   UNL     1       3.938   3.127  18.856  0.00  0.00    +0.000 C 
ATOM      9  C   UNL     1       4.601   3.893  16.545  0.00  0.00    +0.000 C 
ATOM     10  C   UNL     1       4.439   6.273  17.298  0.00  0.00    +0.000 C 
ENDROOT
BRANCH   1  12
ATOM     11  O   UNL     1       7.468   6.775  16.708  0.00  0.00    +0.000 OA
ATOM     12  S   UNL     1       6.862   5.578  16.164  0.00  0.00    +0.000 S 
ATOM     13  O   UNL     1       6.576   5.469  14.751  0.00  0.00    +0.000 OA
BRANCH  12  14
ATOM     14  O   UNL     1       7.888   4.377  16.503  0.00  0.00    +0.000 OA
ATOM     15  H   UNL     1       7.363   3.552  16.565  0.00  0.00    +0.000 HD
ENDBRANCH  12  14
ENDBRANCH   1  12
TORSDOF 2
ENDMDL
MODEL 7
REMARK VINA RESULT:      -6.6      0.246      2.307
REMARK  Name = 
REMARK  2 active torsions:
REMARK  status: ('A' for Active; 'I' for Inactive)
REMARK    1  A    between atoms: S_2  and  O_4
REMARK    2  A    between atoms: S_2  and  C_5
REMARK                            x       y       z     vdW  Elec       q    Type
REMARK                         _______ _______ _______ _____ _____    ______ ____
ROOT
ATOM      1  C   UNL     1       4.556   4.298  18.596  0.00  0.00    +0.000 C 
ATOM      2  C   UNL     1       3.592   5.376  19.148  0.00  0.00    +0.000 C 
ATOM      3  C   UNL     1       2.150   4.851  19.191  0.00  0.00    +0.000 C 
ATOM      4  C   UNL     1       1.721   4.458  17.768  0.00  0.00    +0.000 C 
ATOM      5  C   UNL     1       2.641   3.353  17.226  0.00  0.00    +0.000 C 
ATOM      6  C   UNL     1       2.566   2.131  18.155  0.00  0.00    +0.000 C 
ATOM      7  C   UNL     1       3.028   2.520  19.571  0.00  0.00    +0.000 C 
ATOM      8  C   UNL     1       2.093   3.620  20.108  0.00  0.00    +0.000 C 
ATOM      9  C   UNL     1       4.481   3.056  19.518  0.00  0.00    +0.000 C 
ATOM     10  C   UNL     1       4.088   3.872  17.186  0.00  0.00    +0.000 C 
ENDROOT
BRANCH   1  12
ATOM     11  O   UNL     1       7.040   4.353  17.495  0.00  0.00    +0.000 OA
ATOM     12  S   UNL     1       6.232   5.043  18.479  0.00  0.00    +0.000 S 
ATOM     13  O   UNL     1       6.752   5.324  19.798  0.00  0.00    +0.000 OA
BRANCH  12  14
ATOM     14  O   UNL     1       5.880   6.478  17.826  0.00  0.00    +0.000 OA
ATOM     15  H   UNL     1       6.232   6.478  16.911  0.00  0.00    +0.000 HD
ENDBRANCH  12  14
ENDBRANCH   1  12
TORSDOF 2
ENDMDL
MODEL 8
REMARK VINA RESULT:      -6.6      0.184      1.196
REMARK  Name = 
REMARK  2 active torsions:
REMARK  status: ('A' for Active; 'I' for Inactive)
REMARK    1  A    between atoms: S_2  and  O_4
REMARK    2  A    between atoms: S_2  and  C_5
REMARK                            x       y       z     vdW  Elec       q    Type
REMARK                         _______ _______ _______ _____ _____    ______ ____
ROOT
ATOM      1  C   UNL     1       4.504   4.397  18.582  0.00  0.00    +0.000 C 
ATOM      2  C   UNL     1       4.049   4.004  17.155  0.00  0.00    +0.000 C 
ATOM      3  C   UNL     1       2.658   3.355  17.184  0.00  0.00    +0.000 C 
ATOM      4  C   UNL     1       2.712   2.101  18.070  0.00  0.00    +0.000 C 
ATOM      5  C   UNL     1       3.116   2.484  19.503  0.00  0.00    +0.000 C 
ATOM      6  C   UNL     1       2.094   3.483  20.066  0.00  0.00    +0.000 C 
ATOM      7  C   UNL     1       2.066   4.752  19.195  0.00  0.00    +0.000 C 
ATOM      8  C   UNL     1       1.651   4.358  17.766  0.00  0.00    +0.000 C 
ATOM      9  C   UNL     1       3.476   5.396  19.165  0.00  0.00    +0.000 C 
ATOM     10  C   UNL     1       4.507   3.139  19.479  0.00  0.00    +0.000 C 
ENDROOT
BRANCH   1  12
ATOM     11  O   UNL     1       6.989   4.335  17.484  0.00  0.00    +0.000 OA
ATOM     12  S   UNL     1       6.213   5.064  18.466  0.00  0.00    +0.000 S 
ATOM     13  O   UNL     1       6.744   5.322  19.785  0.00  0.00    +0.000 OA
BRANCH  12  14
ATOM     14  O   UNL     1       5.930   6.512  17.810  0.00  0.00    +0.000 OA
ATOM     15  H   UNL     1       5.008   6.506  17.474  0.00  0.00    +0.000 HD
ENDBRANCH  12  14
ENDBRANCH   1  12
TORSDOF 2
ENDMDL
MODEL 9
REMARK VINA RESULT:      -6.6      0.282      2.399
REMARK  Name = 
REMARK  2 active torsions:
REMARK  status: ('A' for Active; 'I' for Inactive)
REMARK    1  A    between atoms: S_2  and  O_4
REMARK    2  A    between atoms: S_2  and  C_5
REMARK                            x       y       z     vdW  Elec       q    Type
REMARK                         _______ _______ _______ _____ _____    ______ ____
ROOT
ATOM      1  C   UNL     1       4.537   4.366  18.459  0.00  0.00    +0.000 C 
ATOM      2  C   UNL     1       4.521   3.185  19.461  0.00  0.00    +0.000 C 
ATOM      3  C   UNL     1       3.104   2.614  19.611  0.00  0.00    +0.000 C 
ATOM      4  C   UNL     1       2.169   3.726  20.112  0.00  0.00    +0.000 C 
ATOM      5  C   UNL     1       2.138   4.885  19.103  0.00  0.00    +0.000 C 
ATOM      6  C   UNL     1       1.649   4.359  17.744  0.00  0.00    +0.000 C 
ATOM      7  C   UNL     1       2.606   3.268  17.229  0.00  0.00    +0.000 C 
ATOM      8  C   UNL     1       2.621   2.109  18.243  0.00  0.00    +0.000 C 
ATOM      9  C   UNL     1       4.035   3.851  17.088  0.00  0.00    +0.000 C 
ATOM     10  C   UNL     1       3.557   5.457  18.945  0.00  0.00    +0.000 C 
ENDROOT
BRANCH   1  12
ATOM     11  O   UNL     1       7.062   4.354  17.456  0.00  0.00    +0.000 OA
ATOM     12  S   UNL     1       6.241   5.053  18.423  0.00  0.00    +0.000 S 
ATOM     13  O   UNL     1       6.719   5.288  19.766  0.00  0.00    +0.000 OA
BRANCH  12  14
ATOM     14  O   UNL     1       5.965   6.512  17.788  0.00  0.00    +0.000 OA
ATOM     15  H   UNL     1       5.318   6.398  17.061  0.00  0.00    +0.000 HD
ENDBRANCH  12  14
ENDBRANCH   1  12
TORSDOF 2
ENDMDL
