MODEL 1
REMARK VINA RESULT:      -7.6      0.000      0.000
REMARK  Name = 
REMARK  4 active torsions:
REMARK  status: ('A' for Active; 'I' for Inactive)
REMARK    1  A    between atoms: S_2  and  N_4
REMARK    2  A    between atoms: S_2  and  C_19
REMARK    3  A    between atoms: N_4  and  C_5
REMARK    4  A    between atoms: C_11  and  C_12
REMARK                            x       y       z     vdW  Elec       q    Type
REMARK                         _______ _______ _______ _____ _____    ______ ____
ROOT
ATOM      1  C   UNL     1       2.730   4.729  19.010  0.00  0.00    +0.000 C 
ATOM      2  C   UNL     1       1.487   3.809  19.125  0.00  0.00    +0.000 C 
ATOM      3  C   UNL     1       0.829   3.882  20.468  0.00  0.00    +0.000 C 
ATOM      4  C   UNL     1       1.594   2.812  21.323  0.00  0.00    +0.000 C 
ATOM      5  C   UNL     1       3.163   2.805  21.139  0.00  0.00    +0.000 C 
ATOM      6  C   UNL     1       3.834   2.538  19.713  0.00  0.00    +0.000 C 
ATOM      7  C   UNL     1       3.619   3.602  18.456  0.00  0.00    +0.000 C 
ATOM      8  C   UNL     1       2.681   2.952  17.328  0.00  0.00    +0.000 C 
ATOM      9  C   UNL     1       1.200   3.331  17.716  0.00  0.00    +0.000 C 
ENDROOT
BRANCH   7  10
ATOM     10  C   UNL     1       4.983   3.984  17.879  0.00  0.00    +0.000 C 
ATOM     11  N   UNL     1       5.096   4.463  16.661  0.00  0.00    +0.000 NA
ATOM     12  C   UNL     1       6.553   4.675  16.464  0.00  0.00    +0.000 C 
ATOM     13  C   UNL     1       7.144   4.720  17.872  0.00  0.00    +0.000 C 
ATOM     14  N   UNL     1       6.156   3.944  18.588  0.00  0.00    +0.000 N 
ATOM     15  H   UNL     1       6.147   3.944  19.598  0.00  0.00    +0.000 HD
ENDBRANCH   7  10
BRANCH   1  16
ATOM     16  N   UNL     1       2.250   5.818  18.107  0.00  0.00    +0.000 NA
ATOM     17  H   UNL     1       1.262   5.999  18.330  0.00  0.00    +0.000 HD
BRANCH  16  19
ATOM     18  O   UNL     1       4.216   7.323  18.606  0.00  0.00    +0.000 OA
ATOM     19  S   UNL     1       2.853   7.402  18.146  0.00  0.00    +0.000 S 
ATOM     20  O   UNL     1       2.438   8.131  16.982  0.00  0.00    +0.000 OA
BRANCH  19  21
ATOM     21  C   UNL     1       1.950   8.109  19.540  0.00  0.00    +0.000 A 
ATOM     22  C   UNL     1       1.599   7.672  20.811  0.00  0.00    +0.000 A 
ATOM     23  C   UNL     1       0.653   8.554  21.440  0.00  0.00    +0.000 A 
ATOM     24  C   UNL     1       0.356   9.618  20.628  0.00  0.00    +0.000 A 
ATOM     25 CL   UNL     1      -0.781  10.870  20.928  0.00  0.00    +0.000 Cl
ATOM     26  S   UNL     1       1.223   9.628  19.184  0.00  0.00    +0.000 S 
ENDBRANCH  19  21
ENDBRANCH  16  19
ENDBRANCH   1  16
TORSDOF 4
ENDMDL
MODEL 2
REMARK VINA RESULT:      -7.4      3.806      5.980
REMARK  Name = 
REMARK  4 active torsions:
REMARK  status: ('A' for Active; 'I' for Inactive)
REMARK    1  A    between atoms: S_2  and  N_4
REMARK    2  A    between atoms: S_2  and  C_19
REMARK    3  A    between atoms: N_4  and  C_5
REMARK    4  A    between atoms: C_11  and  C_12
REMARK                            x       y       z     vdW  Elec       q    Type
REMARK                         _______ _______ _______ _____ _____    ______ ____
ROOT
ATOM      1  C   UNL     1       4.407   3.542  19.356  0.00  0.00    +0.000 C 
ATOM      2  C   UNL     1       3.066   3.870  18.649  0.00  0.00    +0.000 C 
ATOM      3  C   UNL     1       2.578   5.257  18.939  0.00  0.00    +0.000 C 
ATOM      4  C   UNL     1       1.745   5.096  20.259  0.00  0.00    +0.000 C 
ATOM      5  C   UNL     1       2.405   4.174  21.359  0.00  0.00    +0.000 C 
ATOM      6  C   UNL     1       2.744   2.640  21.068  0.00  0.00    +0.000 C 
ATOM      7  C   UNL     1       3.877   2.217  19.930  0.00  0.00    +0.000 C 
ATOM      8  C   UNL     1       3.168   1.551  18.654  0.00  0.00    +0.000 C 
ATOM      9  C   UNL     1       2.830   2.738  17.670  0.00  0.00    +0.000 C 
ENDROOT
BRANCH   7  10
ATOM     10  C   UNL     1       4.887   1.254  20.558  0.00  0.00    +0.000 C 
ATOM     11  N   UNL     1       5.239   1.365  21.819  0.00  0.00    +0.000 NA
ATOM     12  C   UNL     1       6.240   0.289  22.035  0.00  0.00    +0.000 C 
ATOM     13  C   UNL     1       6.013  -0.703  20.895  0.00  0.00    +0.000 C 
ATOM     14  N   UNL     1       5.427   0.175  19.907  0.00  0.00    +0.000 N 
ATOM     15  H   UNL     1       4.976  -0.211  19.090  0.00  0.00    +0.000 HD
ENDBRANCH   7  10
BRANCH   1  16
ATOM     16  N   UNL     1       5.381   3.532  18.223  0.00  0.00    +0.000 NA
ATOM     17  H   UNL     1       4.844   3.556  17.346  0.00  0.00    +0.000 HD
BRANCH  16  19
ATOM     18  O   UNL     1       5.764   6.024  18.070  0.00  0.00    +0.000 OA
ATOM     19  S   UNL     1       6.484   4.785  17.924  0.00  0.00    +0.000 S 
ATOM     20  O   UNL     1       7.745   4.509  18.551  0.00  0.00    +0.000 OA
BRANCH  19  21
ATOM     21  C   UNL     1       6.751   4.627  16.146  0.00  0.00    +0.000 A 
ATOM     22  C   UNL     1       7.563   5.257  15.211  0.00  0.00    +0.000 A 
ATOM     23  C   UNL     1       7.202   4.907  13.864  0.00  0.00    +0.000 A 
ATOM     24  C   UNL     1       6.158   4.019  13.849  0.00  0.00    +0.000 A 
ATOM     25 CL   UNL     1       5.344   3.394  12.472  0.00  0.00    +0.000 Cl
ATOM     26  S   UNL     1       5.654   3.542  15.383  0.00  0.00    +0.000 S 
ENDBRANCH  19  21
ENDBRANCH  16  19
ENDBRANCH   1  16
TORSDOF 4
ENDMDL
MODEL 3
REMARK VINA RESULT:      -7.2      0.867      1.039
REMARK  Name = 
REMARK  4 active torsions:
REMARK  status: ('A' for Active; 'I' for Inactive)
REMARK    1  A    between atoms: S_2  and  N_4
REMARK    2  A    between atoms: S_2  and  C_19
REMARK    3  A    between atoms: N_4  and  C_5
REMARK    4  A    between atoms: C_11  and  C_12
REMARK                            x       y       z     vdW  Elec       q    Type
REMARK                         _______ _______ _______ _____ _____    ______ ____
ROOT
ATOM      1  C   UNL     1       2.739   4.681  19.079  0.00  0.00    +0.000 C 
ATOM      2  C   UNL     1       1.503   3.750  19.186  0.00  0.00    +0.000 C 
ATOM      3  C   UNL     1       0.867   3.780  20.542  0.00  0.00    +0.000 C 
ATOM      4  C   UNL     1       1.652   2.690  21.353  0.00  0.00    +0.000 C 
ATOM      5  C   UNL     1       3.218   2.698  21.142  0.00  0.00    +0.000 C 
ATOM      6  C   UNL     1       3.866   2.477  19.698  0.00  0.00    +0.000 C 
ATOM      7  C   UNL     1       3.624   3.575  18.477  0.00  0.00    +0.000 C 
ATOM      8  C   UNL     1       2.671   2.954  17.345  0.00  0.00    +0.000 C 
ATOM      9  C   UNL     1       1.194   3.312  17.769  0.00  0.00    +0.000 C 
ENDROOT
BRANCH   7  10
ATOM     10  C   UNL     1       4.976   3.982  17.889  0.00  0.00    +0.000 C 
ATOM     11  N   UNL     1       5.068   4.486  16.679  0.00  0.00    +0.000 NA
ATOM     12  C   UNL     1       6.520   4.716  16.466  0.00  0.00    +0.000 C 
ATOM     13  C   UNL     1       7.130   4.739  17.866  0.00  0.00    +0.000 C 
ATOM     14  N   UNL     1       6.160   3.940  18.580  0.00  0.00    +0.000 N 
ATOM     15  H   UNL     1       6.165   3.920  19.590  0.00  0.00    +0.000 HD
ENDBRANCH   7  10
BRANCH   1  16
ATOM     16  N   UNL     1       2.238   5.793  18.216  0.00  0.00    +0.000 NA
ATOM     17  H   UNL     1       1.308   6.065  18.561  0.00  0.00    +0.000 HD
BRANCH  16  19
ATOM     18  O   UNL     1       4.179   7.249  18.919  0.00  0.00    +0.000 OA
ATOM     19  S   UNL     1       2.975   7.317  18.131  0.00  0.00    +0.000 S 
ATOM     20  O   UNL     1       2.918   7.833  16.793  0.00  0.00    +0.000 OA
BRANCH  19  21
ATOM     21  C   UNL     1       1.850   8.328  19.117  0.00  0.00    +0.000 A 
ATOM     22  C   UNL     1       1.194   9.539  18.933  0.00  0.00    +0.000 A 
ATOM     23  C   UNL     1       0.600  10.017  20.152  0.00  0.00    +0.000 A 
ATOM     24  C   UNL     1       0.815   9.140  21.183  0.00  0.00    +0.000 A 
ATOM     25 CL   UNL     1       0.363   9.338  22.828  0.00  0.00    +0.000 Cl
ATOM     26  S   UNL     1       1.634   7.743  20.722  0.00  0.00    +0.000 S 
ENDBRANCH  19  21
ENDBRANCH  16  19
ENDBRANCH   1  16
TORSDOF 4
ENDMDL
MODEL 4
REMARK VINA RESULT:      -6.9      3.602      5.865
REMARK  Name = 
REMARK  4 active torsions:
REMARK  status: ('A' for Active; 'I' for Inactive)
REMARK    1  A    between atoms: S_2  and  N_4
REMARK    2  A    between atoms: S_2  and  C_19
REMARK    3  A    between atoms: N_4  and  C_5
REMARK    4  A    between atoms: C_11  and  C_12
REMARK                            x       y       z     vdW  Elec       q    Type
REMARK                         _______ _______ _______ _____ _____    ______ ____
ROOT
ATOM      1  C   UNL     1       4.093   4.834  18.568  0.00  0.00    +0.000 C 
ATOM      2  C   UNL     1       3.900   3.408  19.146  0.00  0.00    +0.000 C 
ATOM      3  C   UNL     1       4.164   2.330  18.140  0.00  0.00    +0.000 C 
ATOM      4  C   UNL     1       2.782   2.135  17.422  0.00  0.00    +0.000 C 
ATOM      5  C   UNL     1       2.019   3.471  17.064  0.00  0.00    +0.000 C 
ATOM      6  C   UNL     1       1.588   4.515  18.195  0.00  0.00    +0.000 C 
ATOM      7  C   UNL     1       2.731   5.322  19.091  0.00  0.00    +0.000 C 
ATOM      8  C   UNL     1       2.735   4.788  20.604  0.00  0.00    +0.000 C 
ATOM      9  C   UNL     1       3.758   3.588  20.644  0.00  0.00    +0.000 C 
ENDROOT
BRANCH   7  10
ATOM     10  C   UNL     1       2.441   6.823  19.042  0.00  0.00    +0.000 C 
ATOM     11  N   UNL     1       2.422   7.476  17.902  0.00  0.00    +0.000 NA
ATOM     12  C   UNL     1       2.143   8.887  18.271  0.00  0.00    +0.000 C 
ATOM     13  C   UNL     1       1.533   8.822  19.670  0.00  0.00    +0.000 C 
ATOM     14  N   UNL     1       2.099   7.576  20.136  0.00  0.00    +0.000 N 
ATOM     15  H   UNL     1       1.737   7.137  20.970  0.00  0.00    +0.000 HD
ENDBRANCH   7  10
BRANCH   1  16
ATOM     16  N   UNL     1       5.354   5.287  19.227  0.00  0.00    +0.000 NA
ATOM     17  H   UNL     1       5.638   4.560  19.898  0.00  0.00    +0.000 HD
BRANCH  16  19
ATOM     18  O   UNL     1       7.246   6.858  18.650  0.00  0.00    +0.000 OA
ATOM     19  S   UNL     1       6.818   5.506  18.399  0.00  0.00    +0.000 S 
ATOM     20  O   UNL     1       7.661   4.354  18.547  0.00  0.00    +0.000 OA
BRANCH  19  21
ATOM     21  C   UNL     1       6.271   5.521  16.678  0.00  0.00    +0.000 A 
ATOM     22  C   UNL     1       5.337   6.243  15.947  0.00  0.00    +0.000 A 
ATOM     23  C   UNL     1       5.128   5.681  14.640  0.00  0.00    +0.000 A 
ATOM     24  C   UNL     1       5.926   4.583  14.442  0.00  0.00    +0.000 A 
ATOM     25 CL   UNL     1       5.951   3.550  13.071  0.00  0.00    +0.000 Cl
ATOM     26  S   UNL     1       6.958   4.257  15.732  0.00  0.00    +0.000 S 
ENDBRANCH  19  21
ENDBRANCH  16  19
ENDBRANCH   1  16
TORSDOF 4
ENDMDL
MODEL 5
REMARK VINA RESULT:      -6.8      4.534      6.550
REMARK  Name = 
REMARK  4 active torsions:
REMARK  status: ('A' for Active; 'I' for Inactive)
REMARK    1  A    between atoms: S_2  and  N_4
REMARK    2  A    between atoms: S_2  and  C_19
REMARK    3  A    between atoms: N_4  and  C_5
REMARK    4  A    between atoms: C_11  and  C_12
REMARK                            x       y       z     vdW  Elec       q    Type
REMARK                         _______ _______ _______ _____ _____    ______ ____
ROOT
ATOM      1  C   UNL     1       4.095   4.726  17.372  0.00  0.00    +0.000 C 
ATOM      2  C   UNL     1       3.086   3.617  17.770  0.00  0.00    +0.000 C 
ATOM      3  C   UNL     1       1.667   3.981  17.460  0.00  0.00    +0.000 C 
ATOM      4  C   UNL     1       1.187   4.757  18.736  0.00  0.00    +0.000 C 
ATOM      5  C   UNL     1       2.228   5.793  19.320  0.00  0.00    +0.000 C 
ATOM      6  C   UNL     1       3.676   5.331  19.815  0.00  0.00    +0.000 C 
ATOM      7  C   UNL     1       4.785   4.710  18.747  0.00  0.00    +0.000 C 
ATOM      8  C   UNL     1       4.992   3.140  19.006  0.00  0.00    +0.000 C 
ATOM      9  C   UNL     1       3.925   2.402  18.108  0.00  0.00    +0.000 C 
ENDROOT
BRANCH   7  10
ATOM     10  C   UNL     1       6.106   5.467  18.895  0.00  0.00    +0.000 C 
ATOM     11  N   UNL     1       7.033   5.059  19.732  0.00  0.00    +0.000 NA
ATOM     12  C   UNL     1       8.128   6.056  19.609  0.00  0.00    +0.000 C 
ATOM     13  C   UNL     1       7.887   6.751  18.270  0.00  0.00    +0.000 C 
ATOM     14  N   UNL     1       6.463   6.547  18.130  0.00  0.00    +0.000 N 
ATOM     15  H   UNL     1       6.011   6.721  17.243  0.00  0.00    +0.000 HD
ENDBRANCH   7  10
BRANCH   1  16
ATOM     16  N   UNL     1       4.779   4.135  16.183  0.00  0.00    +0.000 NA
ATOM     17  H   UNL     1       4.064   3.953  15.466  0.00  0.00    +0.000 HD
BRANCH  16  19
ATOM     18  O   UNL     1       5.401   6.293  15.027  0.00  0.00    +0.000 OA
ATOM     19  S   UNL     1       5.923   4.970  15.249  0.00  0.00    +0.000 S 
ATOM     20  O   UNL     1       7.252   4.697  15.715  0.00  0.00    +0.000 OA
BRANCH  19  21
ATOM     21  C   UNL     1       5.763   4.150  13.648  0.00  0.00    +0.000 A 
ATOM     22  C   UNL     1       4.708   3.641  12.902  0.00  0.00    +0.000 A 
ATOM     23  C   UNL     1       5.169   2.863  11.784  0.00  0.00    +0.000 A 
ATOM     24  C   UNL     1       6.538   2.841  11.729  0.00  0.00    +0.000 A 
ATOM     25 CL   UNL     1       7.521   1.972  10.620  0.00  0.00    +0.000 Cl
ATOM     26  S   UNL     1       7.277   3.776  12.918  0.00  0.00    +0.000 S 
ENDBRANCH  19  21
ENDBRANCH  16  19
ENDBRANCH   1  16
TORSDOF 4
ENDMDL
MODEL 6
REMARK VINA RESULT:      -6.7      0.901      1.409
REMARK  Name = 
REMARK  4 active torsions:
REMARK  status: ('A' for Active; 'I' for Inactive)
REMARK    1  A    between atoms: S_2  and  N_4
REMARK    2  A    between atoms: S_2  and  C_19
REMARK    3  A    between atoms: N_4  and  C_5
REMARK    4  A    between atoms: C_11  and  C_12
REMARK                            x       y       z     vdW  Elec       q    Type
REMARK                         _______ _______ _______ _____ _____    ______ ____
ROOT
ATOM      1  C   UNL     1       2.842   4.634  19.212  0.00  0.00    +0.000 C 
ATOM      2  C   UNL     1       1.633   3.662  19.222  0.00  0.00    +0.000 C 
ATOM      3  C   UNL     1       0.969   3.572  20.562  0.00  0.00    +0.000 C 
ATOM      4  C   UNL     1       1.771   2.448  21.307  0.00  0.00    +0.000 C 
ATOM      5  C   UNL     1       3.340   2.517  21.134  0.00  0.00    +0.000 C 
ATOM      6  C   UNL     1       4.024   2.423  19.693  0.00  0.00    +0.000 C 
ATOM      7  C   UNL     1       3.773   3.603  18.551  0.00  0.00    +0.000 C 
ATOM      8  C   UNL     1       2.864   3.039  17.355  0.00  0.00    +0.000 C 
ATOM      9  C   UNL     1       1.368   3.322  17.770  0.00  0.00    +0.000 C 
ENDROOT
BRANCH   7  10
ATOM     10  C   UNL     1       5.124   4.091  18.025  0.00  0.00    +0.000 C 
ATOM     11  N   UNL     1       6.173   4.168  18.813  0.00  0.00    +0.000 NA
ATOM     12  C   UNL     1       7.260   4.706  17.956  0.00  0.00    +0.000 C 
ATOM     13  C   UNL     1       6.806   4.441  16.521  0.00  0.00    +0.000 C 
ATOM     14  N   UNL     1       5.374   4.397  16.712  0.00  0.00    +0.000 N 
ATOM     15  H   UNL     1       4.776   4.043  15.979  0.00  0.00    +0.000 HD
ENDBRANCH   7  10
BRANCH   1  16
ATOM     16  N   UNL     1       2.325   5.792  18.423  0.00  0.00    +0.000 NA
ATOM     17  H   UNL     1       1.568   6.229  18.965  0.00  0.00    +0.000 HD
BRANCH  16  19
ATOM     18  O   UNL     1       4.285   7.255  19.055  0.00  0.00    +0.000 OA
ATOM     19  S   UNL     1       3.251   7.163  18.056  0.00  0.00    +0.000 S 
ATOM     20  O   UNL     1       3.488   7.251  16.643  0.00  0.00    +0.000 OA
BRANCH  19  21
ATOM     21  C   UNL     1       2.111   8.502  18.466  0.00  0.00    +0.000 A 
ATOM     22  C   UNL     1       1.702   9.675  17.845  0.00  0.00    +0.000 A 
ATOM     23  C   UNL     1       0.943  10.515  18.730  0.00  0.00    +0.000 A 
ATOM     24  C   UNL     1       0.796   9.929  19.961  0.00  0.00    +0.000 A 
ATOM     25 CL   UNL     1       0.041  10.600  21.349  0.00  0.00    +0.000 Cl
ATOM     26  S   UNL     1       1.471   8.389  20.061  0.00  0.00    +0.000 S 
ENDBRANCH  19  21
ENDBRANCH  16  19
ENDBRANCH   1  16
TORSDOF 4
ENDMDL
MODEL 7
REMARK VINA RESULT:      -6.6      4.287      8.359
REMARK  Name = 
REMARK  4 active torsions:
REMARK  status: ('A' for Active; 'I' for Inactive)
REMARK    1  A    between atoms: S_2  and  N_4
REMARK    2  A    between atoms: S_2  and  C_19
REMARK    3  A    between atoms: N_4  and  C_5
REMARK    4  A    between atoms: C_11  and  C_12
REMARK                            x       y       z     vdW  Elec       q    Type
REMARK                         _______ _______ _______ _____ _____    ______ ____
ROOT
ATOM      1  C   UNL     1      -1.028  10.946  20.546  0.00  0.00    +0.000 C 
ATOM      2  C   UNL     1      -0.446  12.099  21.404  0.00  0.00    +0.000 C 
ATOM      3  C   UNL     1      -0.969  12.102  22.808  0.00  0.00    +0.000 C 
ATOM      4  C   UNL     1      -2.288  12.948  22.719  0.00  0.00    +0.000 C 
ATOM      5  C   UNL     1      -3.200  12.636  21.467  0.00  0.00    +0.000 C 
ATOM      6  C   UNL     1      -2.660  12.823  19.974  0.00  0.00    +0.000 C 
ATOM      7  C   UNL     1      -1.418  11.887  19.393  0.00  0.00    +0.000 C 
ATOM      8  C   UNL     1      -0.090  12.770  19.211  0.00  0.00    +0.000 C 
ATOM      9  C   UNL     1       0.682  12.691  20.585  0.00  0.00    +0.000 C 
ENDROOT
BRANCH   7  10
ATOM     10  C   UNL     1      -1.840  11.257  18.064  0.00  0.00    +0.000 C 
ATOM     11  N   UNL     1      -2.169   9.987  17.988  0.00  0.00    +0.000 NA
ATOM     12  C   UNL     1      -2.480   9.755  16.555  0.00  0.00    +0.000 C 
ATOM     13  C   UNL     1      -2.754  11.141  15.976  0.00  0.00    +0.000 C 
ATOM     14  N   UNL     1      -1.992  11.956  16.895  0.00  0.00    +0.000 N 
ATOM     15  H   UNL     1      -2.119  12.958  16.908  0.00  0.00    +0.000 HD
ENDBRANCH   7  10
BRANCH   1  16
ATOM     16  N   UNL     1       0.138  10.024  20.400  0.00  0.00    +0.000 NA
ATOM     17  H   UNL     1       0.995  10.592  20.441  0.00  0.00    +0.000 HD
BRANCH  16  19
ATOM     18  O   UNL     1       1.547   9.367  22.391  0.00  0.00    +0.000 OA
ATOM     19  S   UNL     1       0.530   8.822  21.529  0.00  0.00    +0.000 S 
ATOM     20  O   UNL     1      -0.656   8.165  22.001  0.00  0.00    +0.000 OA
BRANCH  19  21
ATOM     21  C   UNL     1       1.405   7.621  20.504  0.00  0.00    +0.000 A 
ATOM     22  C   UNL     1       1.810   6.301  20.659  0.00  0.00    +0.000 A 
ATOM     23  C   UNL     1       2.700   5.887  19.609  0.00  0.00    +0.000 A 
ATOM     24  C   UNL     1       2.905   6.898  18.707  0.00  0.00    +0.000 A 
ATOM     25 CL   UNL     1       3.953   6.883  17.347  0.00  0.00    +0.000 Cl
ATOM     26  S   UNL     1       2.013   8.288  19.038  0.00  0.00    +0.000 S 
ENDBRANCH  19  21
ENDBRANCH  16  19
ENDBRANCH   1  16
TORSDOF 4
ENDMDL
MODEL 8
REMARK VINA RESULT:      -6.6      1.743      3.964
REMARK  Name = 
REMARK  4 active torsions:
REMARK  status: ('A' for Active; 'I' for Inactive)
REMARK    1  A    between atoms: S_2  and  N_4
REMARK    2  A    between atoms: S_2  and  C_19
REMARK    3  A    between atoms: N_4  and  C_5
REMARK    4  A    between atoms: C_11  and  C_12
REMARK                            x       y       z     vdW  Elec       q    Type
REMARK                         _______ _______ _______ _____ _____    ______ ____
ROOT
ATOM      1  C   UNL     1       4.036   5.854  17.494  0.00  0.00    +0.000 C 
ATOM      2  C   UNL     1       5.582   5.945  17.584  0.00  0.00    +0.000 C 
ATOM      3  C   UNL     1       6.216   6.386  16.301  0.00  0.00    +0.000 C 
ATOM      4  C   UNL     1       6.426   5.051  15.504  0.00  0.00    +0.000 C 
ATOM      5  C   UNL     1       5.211   4.043  15.555  0.00  0.00    +0.000 C 
ATOM      6  C   UNL     1       4.679   3.447  16.940  0.00  0.00    +0.000 C 
ATOM      7  C   UNL     1       4.001   4.436  18.089  0.00  0.00    +0.000 C 
ATOM      8  C   UNL     1       4.976   4.573  19.356  0.00  0.00    +0.000 C 
ATOM      9  C   UNL     1       5.916   5.805  19.056  0.00  0.00    +0.000 C 
ENDROOT
BRANCH   7  10
ATOM     10  C   UNL     1       2.643   3.867  18.505  0.00  0.00    +0.000 C 
ATOM     11  N   UNL     1       2.266   2.665  18.134  0.00  0.00    +0.000 NA
ATOM     12  C   UNL     1       0.904   2.496  18.699  0.00  0.00    +0.000 C 
ATOM     13  C   UNL     1       0.801   3.536  19.813  0.00  0.00    +0.000 C 
ATOM     14  N   UNL     1       1.767   4.505  19.346  0.00  0.00    +0.000 N 
ATOM     15  H   UNL     1       2.088   5.238  19.962  0.00  0.00    +0.000 HD
ENDBRANCH   7  10
BRANCH   1  16
ATOM     16  N   UNL     1       3.590   7.022  18.312  0.00  0.00    +0.000 NA
ATOM     17  H   UNL     1       4.291   7.767  18.205  0.00  0.00    +0.000 HD
BRANCH  16  19
ATOM     18  O   UNL     1       2.577   9.124  17.346  0.00  0.00    +0.000 OA
ATOM     19  S   UNL     1       2.177   7.903  17.995  0.00  0.00    +0.000 S 
ATOM     20  O   UNL     1       1.139   7.038  17.511  0.00  0.00    +0.000 OA
BRANCH  19  21
ATOM     21  C   UNL     1       1.681   8.417  19.653  0.00  0.00    +0.000 A 
ATOM     22  C   UNL     1       1.648   7.815  20.904  0.00  0.00    +0.000 A 
ATOM     23  C   UNL     1       0.924   8.606  21.862  0.00  0.00    +0.000 A 
ATOM     24  C   UNL     1       0.469   9.769  21.298  0.00  0.00    +0.000 A 
ATOM     25 CL   UNL     1      -0.509  10.970  22.037  0.00  0.00    +0.000 Cl
ATOM     26  S   UNL     1       0.942   9.972  19.694  0.00  0.00    +0.000 S 
ENDBRANCH  19  21
ENDBRANCH  16  19
ENDBRANCH   1  16
TORSDOF 4
ENDMDL
MODEL 9
REMARK VINA RESULT:      -6.5      4.203      6.356
REMARK  Name = 
REMARK  4 active torsions:
REMARK  status: ('A' for Active; 'I' for Inactive)
REMARK    1  A    between atoms: S_2  and  N_4
REMARK    2  A    between atoms: S_2  and  C_19
REMARK    3  A    between atoms: N_4  and  C_5
REMARK    4  A    between atoms: C_11  and  C_12
REMARK                            x       y       z     vdW  Elec       q    Type
REMARK                         _______ _______ _______ _____ _____    ______ ____
ROOT
ATOM      1  C   UNL     1       4.307   4.706  17.375  0.00  0.00    +0.000 C 
ATOM      2  C   UNL     1       3.247   3.638  17.752  0.00  0.00    +0.000 C 
ATOM      3  C   UNL     1       1.866   4.005  17.305  0.00  0.00    +0.000 C 
ATOM      4  C   UNL     1       1.299   4.863  18.490  0.00  0.00    +0.000 C 
ATOM      5  C   UNL     1       2.309   5.916  19.097  0.00  0.00    +0.000 C 
ATOM      6  C   UNL     1       3.702   5.462  19.736  0.00  0.00    +0.000 C 
ATOM      7  C   UNL     1       4.882   4.761  18.801  0.00  0.00    +0.000 C 
ATOM      8  C   UNL     1       5.036   3.207  19.168  0.00  0.00    +0.000 C 
ATOM      9  C   UNL     1       4.031   2.433  18.229  0.00  0.00    +0.000 C 
ENDROOT
BRANCH   7  10
ATOM     10  C   UNL     1       6.202   5.505  19.013  0.00  0.00    +0.000 C 
ATOM     11  N   UNL     1       7.064   5.114  19.924  0.00  0.00    +0.000 NA
ATOM     12  C   UNL     1       8.179   6.092  19.844  0.00  0.00    +0.000 C 
ATOM     13  C   UNL     1       8.040   6.745  18.470  0.00  0.00    +0.000 C 
ATOM     14  N   UNL     1       6.626   6.555  18.240  0.00  0.00    +0.000 N 
ATOM     15  H   UNL     1       6.238   6.705  17.319  0.00  0.00    +0.000 HD
ENDBRANCH   7  10
BRANCH   1  16
ATOM     16  N   UNL     1       5.075   4.035  16.283  0.00  0.00    +0.000 NA
ATOM     17  H   UNL     1       4.434   3.891  15.491  0.00  0.00    +0.000 HD
BRANCH  16  19
ATOM     18  O   UNL     1       6.051   6.146  15.298  0.00  0.00    +0.000 OA
ATOM     19  S   UNL     1       6.380   4.755  15.476  0.00  0.00    +0.000 S 
ATOM     20  O   UNL     1       7.627   4.286  16.010  0.00  0.00    +0.000 OA
BRANCH  19  21
ATOM     21  C   UNL     1       6.232   4.044  13.823  0.00  0.00    +0.000 A 
ATOM     22  C   UNL     1       7.084   3.886  12.738  0.00  0.00    +0.000 A 
ATOM     23  C   UNL     1       6.378   3.463  11.559  0.00  0.00    +0.000 A 
ATOM     24  C   UNL     1       5.041   3.303  11.815  0.00  0.00    +0.000 A 
ATOM     25 CL   UNL     1       3.808   2.895  10.692  0.00  0.00    +0.000 Cl
ATOM     26  S   UNL     1       4.625   3.568  13.425  0.00  0.00    +0.000 S 
ENDBRANCH  19  21
ENDBRANCH  16  19
ENDBRANCH   1  16
TORSDOF 4
ENDMDL
