MODEL 1
REMARK VINA RESULT:      -7.4      0.000      0.000
REMARK  Name = 
REMARK  5 active torsions:
REMARK  status: ('A' for Active; 'I' for Inactive)
REMARK    1  A    between atoms: C_1  and  C_2
REMARK    2  A    between atoms: N_4  and  C_5
REMARK    3  A    between atoms: N_13  and  C_14
REMARK    4  A    between atoms: C_14  and  C_15
REMARK    5  A    between atoms: C_14  and  C_16
REMARK                            x       y       z     vdW  Elec       q    Type
REMARK                         _______ _______ _______ _____ _____    ______ ____
ROOT
ATOM      1  C   UNL     1       5.225   4.862  15.499  0.00  0.00    +0.000 A 
ATOM      2  C   UNL     1       5.121   6.196  15.953  0.00  0.00    +0.000 A 
ATOM      3  C   UNL     1       4.479   6.518  17.153  0.00  0.00    +0.000 A 
ATOM      4  C   UNL     1       3.947   5.477  17.880  0.00  0.00    +0.000 A 
ATOM      5  C   UNL     1       4.035   4.169  17.449  0.00  0.00    +0.000 A 
ATOM      6  C   UNL     1       4.657   3.826  16.259  0.00  0.00    +0.000 A 
ATOM      7  C   UNL     1       3.364   3.338  18.451  0.00  0.00    +0.000 C 
ATOM      8  O   UNL     1       3.289   2.128  18.370  0.00  0.00    +0.000 OA
ATOM      9  N   UNL     1       2.875   4.187  19.410  0.00  0.00    +0.000 N 
ATOM     10  C   UNL     1       3.209   5.488  19.138  0.00  0.00    +0.000 C 
ATOM     11  O   UNL     1       2.961   6.497  19.767  0.00  0.00    +0.000 OA
ENDROOT
BRANCH   1  15
ATOM     12  C   UNL     1       7.463   4.467  12.483  0.00  0.00    +0.000 C 
ATOM     13  C   UNL     1       7.128   4.912  13.882  0.00  0.00    +0.000 C 
ATOM     14  O   UNL     1       7.936   5.556  14.541  0.00  0.00    +0.000 OA
ATOM     15  N   UNL     1       5.862   4.517  14.285  0.00  0.00    +0.000 N 
ATOM     16  H   UNL     1       5.378   3.856  13.688  0.00  0.00    +0.000 HD
ENDBRANCH   1  15
BRANCH   9  17
ATOM     17  C   UNL     1       2.086   3.798  20.578  0.00  0.00    +0.000 C 
ATOM     18  C   UNL     1       0.688   3.327  20.180  0.00  0.00    +0.000 C 
ATOM     19  C   UNL     1       2.801   2.748  21.427  0.00  0.00    +0.000 C 
ENDBRANCH   9  17
TORSDOF 2
ENDMDL
MODEL 2
REMARK VINA RESULT:      -7.4      1.190      1.190
REMARK  Name = 
REMARK  5 active torsions:
REMARK  status: ('A' for Active; 'I' for Inactive)
REMARK    1  A    between atoms: C_1  and  C_2
REMARK    2  A    between atoms: N_4  and  C_5
REMARK    3  A    between atoms: N_13  and  C_14
REMARK    4  A    between atoms: C_14  and  C_15
REMARK    5  A    between atoms: C_14  and  C_16
REMARK                            x       y       z     vdW  Elec       q    Type
REMARK                         _______ _______ _______ _____ _____    ______ ____
ROOT
ATOM      1  C   UNL     1       5.611   4.699  15.308  0.00  0.00    +0.000 A 
ATOM      2  C   UNL     1       5.378   6.041  15.685  0.00  0.00    +0.000 A 
ATOM      3  C   UNL     1       4.589   6.367  16.793  0.00  0.00    +0.000 A 
ATOM      4  C   UNL     1       4.045   5.325  17.506  0.00  0.00    +0.000 A 
ATOM      5  C   UNL     1       4.258   4.009  17.150  0.00  0.00    +0.000 A 
ATOM      6  C   UNL     1       5.027   3.660  16.051  0.00  0.00    +0.000 A 
ATOM      7  C   UNL     1       3.533   3.177  18.112  0.00  0.00    +0.000 C 
ATOM      8  O   UNL     1       3.541   1.962  18.081  0.00  0.00    +0.000 OA
ATOM      9  N   UNL     1       2.891   4.031  18.972  0.00  0.00    +0.000 N 
ATOM     10  C   UNL     1       3.174   5.338  18.677  0.00  0.00    +0.000 C 
ATOM     11  O   UNL     1       2.797   6.353  19.227  0.00  0.00    +0.000 OA
ENDROOT
BRANCH   1  15
ATOM     12  C   UNL     1       7.041   3.454  12.041  0.00  0.00    +0.000 C 
ATOM     13  C   UNL     1       5.932   3.832  12.988  0.00  0.00    +0.000 C 
ATOM     14  O   UNL     1       4.759   3.672  12.669  0.00  0.00    +0.000 OA
ATOM     15  N   UNL     1       6.398   4.347  14.188  0.00  0.00    +0.000 N 
ATOM     16  H   UNL     1       7.387   4.564  14.238  0.00  0.00    +0.000 HD
ENDBRANCH   1  15
BRANCH   9  17
ATOM     17  C   UNL     1       2.004   3.639  20.067  0.00  0.00    +0.000 C 
ATOM     18  C   UNL     1       0.778   2.885  19.552  0.00  0.00    +0.000 C 
ATOM     19  C   UNL     1       2.737   2.833  21.136  0.00  0.00    +0.000 C 
ENDBRANCH   9  17
TORSDOF 2
ENDMDL
MODEL 3
REMARK VINA RESULT:      -7.2      2.192      3.413
REMARK  Name = 
REMARK  5 active torsions:
REMARK  status: ('A' for Active; 'I' for Inactive)
REMARK    1  A    between atoms: C_1  and  C_2
REMARK    2  A    between atoms: N_4  and  C_5
REMARK    3  A    between atoms: N_13  and  C_14
REMARK    4  A    between atoms: C_14  and  C_15
REMARK    5  A    between atoms: C_14  and  C_16
REMARK                            x       y       z     vdW  Elec       q    Type
REMARK                         _______ _______ _______ _____ _____    ______ ____
ROOT
ATOM      1  C   UNL     1       5.944   6.195  17.266  0.00  0.00    +0.000 A 
ATOM      2  C   UNL     1       6.146   5.060  16.449  0.00  0.00    +0.000 A 
ATOM      3  C   UNL     1       5.419   3.879  16.638  0.00  0.00    +0.000 A 
ATOM      4  C   UNL     1       4.494   3.867  17.657  0.00  0.00    +0.000 A 
ATOM      5  C   UNL     1       4.288   4.965  18.466  0.00  0.00    +0.000 A 
ATOM      6  C   UNL     1       5.002   6.141  18.306  0.00  0.00    +0.000 A 
ATOM      7  C   UNL     1       3.251   4.600  19.434  0.00  0.00    +0.000 C 
ATOM      8  O   UNL     1       2.828   5.366  20.277  0.00  0.00    +0.000 OA
ATOM      9  N   UNL     1       2.915   3.294  19.184  0.00  0.00    +0.000 N 
ATOM     10  C   UNL     1       3.611   2.799  18.113  0.00  0.00    +0.000 C 
ATOM     11  O   UNL     1       3.562   1.698  17.603  0.00  0.00    +0.000 OA
ENDROOT
BRANCH   1  15
ATOM     12  C   UNL     1       8.236   9.189  17.493  0.00  0.00    +0.000 C 
ATOM     13  C   UNL     1       7.759   7.807  17.856  0.00  0.00    +0.000 C 
ATOM     14  O   UNL     1       8.316   7.168  18.742  0.00  0.00    +0.000 OA
ATOM     15  N   UNL     1       6.674   7.394  17.098  0.00  0.00    +0.000 N 
ATOM     16  H   UNL     1       6.430   7.969  16.300  0.00  0.00    +0.000 HD
ENDBRANCH   1  15
BRANCH   9  17
ATOM     17  C   UNL     1       1.954   2.496  19.944  0.00  0.00    +0.000 C 
ATOM     18  C   UNL     1       2.188   2.620  21.449  0.00  0.00    +0.000 C 
ATOM     19  C   UNL     1       0.511   2.839  19.579  0.00  0.00    +0.000 C 
ENDBRANCH   9  17
TORSDOF 2
ENDMDL
MODEL 4
REMARK VINA RESULT:      -7.0      1.040      1.323
REMARK  Name = 
REMARK  5 active torsions:
REMARK  status: ('A' for Active; 'I' for Inactive)
REMARK    1  A    between atoms: C_1  and  C_2
REMARK    2  A    between atoms: N_4  and  C_5
REMARK    3  A    between atoms: N_13  and  C_14
REMARK    4  A    between atoms: C_14  and  C_15
REMARK    5  A    between atoms: C_14  and  C_16
REMARK                            x       y       z     vdW  Elec       q    Type
REMARK                         _______ _______ _______ _____ _____    ______ ____
ROOT
ATOM      1  C   UNL     1       5.627   5.444  15.961  0.00  0.00    +0.000 A 
ATOM      2  C   UNL     1       5.093   6.604  16.566  0.00  0.00    +0.000 A 
ATOM      3  C   UNL     1       4.177   6.529  17.622  0.00  0.00    +0.000 A 
ATOM      4  C   UNL     1       3.814   5.273  18.050  0.00  0.00    +0.000 A 
ATOM      5  C   UNL     1       4.322   4.130  17.467  0.00  0.00    +0.000 A 
ATOM      6  C   UNL     1       5.221   4.178  16.415  0.00  0.00    +0.000 A 
ATOM      7  C   UNL     1       3.720   2.988  18.159  0.00  0.00    +0.000 C 
ATOM      8  O   UNL     1       3.984   1.832  17.890  0.00  0.00    +0.000 OA
ATOM      9  N   UNL     1       2.856   3.499  19.093  0.00  0.00    +0.000 N 
ATOM     10  C   UNL     1       2.880   4.868  19.095  0.00  0.00    +0.000 C 
ATOM     11  O   UNL     1       2.261   5.651  19.788  0.00  0.00    +0.000 OA
ENDROOT
BRANCH   1  15
ATOM     12  C   UNL     1       7.731   4.923  12.868  0.00  0.00    +0.000 C 
ATOM     13  C   UNL     1       6.546   4.683  13.767  0.00  0.00    +0.000 C 
ATOM     14  O   UNL     1       5.707   3.838  13.479  0.00  0.00    +0.000 OA
ATOM     15  N   UNL     1       6.546   5.498  14.889  0.00  0.00    +0.000 N 
ATOM     16  H   UNL     1       7.222   6.253  14.904  0.00  0.00    +0.000 HD
ENDBRANCH   1  15
BRANCH   9  17
ATOM     17  C   UNL     1       1.995   2.719  19.982  0.00  0.00    +0.000 C 
ATOM     18  C   UNL     1       2.335   2.967  21.451  0.00  0.00    +0.000 C 
ATOM     19  C   UNL     1       0.514   2.970  19.708  0.00  0.00    +0.000 C 
ENDBRANCH   9  17
TORSDOF 2
ENDMDL
MODEL 5
REMARK VINA RESULT:      -6.9      2.169      3.326
REMARK  Name = 
REMARK  5 active torsions:
REMARK  status: ('A' for Active; 'I' for Inactive)
REMARK    1  A    between atoms: C_1  and  C_2
REMARK    2  A    between atoms: N_4  and  C_5
REMARK    3  A    between atoms: N_13  and  C_14
REMARK    4  A    between atoms: C_14  and  C_15
REMARK    5  A    between atoms: C_14  and  C_16
REMARK                            x       y       z     vdW  Elec       q    Type
REMARK                         _______ _______ _______ _____ _____    ______ ____
ROOT
ATOM      1  C   UNL     1       5.765   6.359  17.282  0.00  0.00    +0.000 A 
ATOM      2  C   UNL     1       5.982   5.139  16.602  0.00  0.00    +0.000 A 
ATOM      3  C   UNL     1       5.146   4.033  16.789  0.00  0.00    +0.000 A 
ATOM      4  C   UNL     1       4.097   4.180  17.667  0.00  0.00    +0.000 A 
ATOM      5  C   UNL     1       3.873   5.362  18.342  0.00  0.00    +0.000 A 
ATOM      6  C   UNL     1       4.692   6.467  18.183  0.00  0.00    +0.000 A 
ATOM      7  C   UNL     1       2.692   5.161  19.185  0.00  0.00    +0.000 C 
ATOM      8  O   UNL     1       2.223   6.031  19.892  0.00  0.00    +0.000 OA
ATOM      9  N   UNL     1       2.290   3.863  19.004  0.00  0.00    +0.000 N 
ATOM     10  C   UNL     1       3.079   3.222  18.086  0.00  0.00    +0.000 C 
ATOM     11  O   UNL     1       3.012   2.083  17.671  0.00  0.00    +0.000 OA
ENDROOT
BRANCH   1  15
ATOM     12  C   UNL     1       8.338   9.115  17.500  0.00  0.00    +0.000 C 
ATOM     13  C   UNL     1       7.738   7.779  17.854  0.00  0.00    +0.000 C 
ATOM     14  O   UNL     1       8.250   7.076  18.718  0.00  0.00    +0.000 OA
ATOM     15  N   UNL     1       6.603   7.485  17.115  0.00  0.00    +0.000 N 
ATOM     16  H   UNL     1       6.398   8.094  16.331  0.00  0.00    +0.000 HD
ENDBRANCH   1  15
BRANCH   9  17
ATOM     17  C   UNL     1       1.177   3.207  19.689  0.00  0.00    +0.000 C 
ATOM     18  C   UNL     1       0.478   2.194  18.782  0.00  0.00    +0.000 C 
ATOM     19  C   UNL     1       1.615   2.561  21.002  0.00  0.00    +0.000 C 
ENDBRANCH   9  17
TORSDOF 2
ENDMDL
MODEL 6
REMARK VINA RESULT:      -6.8      1.675      2.021
REMARK  Name = 
REMARK  5 active torsions:
REMARK  status: ('A' for Active; 'I' for Inactive)
REMARK    1  A    between atoms: C_1  and  C_2
REMARK    2  A    between atoms: N_4  and  C_5
REMARK    3  A    between atoms: N_13  and  C_14
REMARK    4  A    between atoms: C_14  and  C_15
REMARK    5  A    between atoms: C_14  and  C_16
REMARK                            x       y       z     vdW  Elec       q    Type
REMARK                         _______ _______ _______ _____ _____    ______ ____
ROOT
ATOM      1  C   UNL     1       6.272   4.030  15.129  0.00  0.00    +0.000 A 
ATOM      2  C   UNL     1       7.355   4.365  15.973  0.00  0.00    +0.000 A 
ATOM      3  C   UNL     1       7.165   4.673  17.324  0.00  0.00    +0.000 A 
ATOM      4  C   UNL     1       5.876   4.637  17.803  0.00  0.00    +0.000 A 
ATOM      5  C   UNL     1       4.807   4.316  16.992  0.00  0.00    +0.000 A 
ATOM      6  C   UNL     1       4.967   4.017  15.648  0.00  0.00    +0.000 A 
ATOM      7  C   UNL     1       3.601   4.382  17.819  0.00  0.00    +0.000 C 
ATOM      8  O   UNL     1       2.489   4.129  17.397  0.00  0.00    +0.000 OA
ATOM      9  N   UNL     1       3.998   4.774  19.071  0.00  0.00    +0.000 N 
ATOM     10  C   UNL     1       5.358   4.925  19.136  0.00  0.00    +0.000 C 
ATOM     11  O   UNL     1       6.055   5.246  20.077  0.00  0.00    +0.000 OA
ENDROOT
BRANCH   1  15
ATOM     12  C   UNL     1       7.037   3.932  11.431  0.00  0.00    +0.000 C 
ATOM     13  C   UNL     1       7.150   4.472  12.832  0.00  0.00    +0.000 C 
ATOM     14  O   UNL     1       7.815   5.476  13.061  0.00  0.00    +0.000 OA
ATOM     15  N   UNL     1       6.441   3.724  13.759  0.00  0.00    +0.000 N 
ATOM     16  H   UNL     1       6.072   2.835  13.441  0.00  0.00    +0.000 HD
ENDBRANCH   1  15
BRANCH   9  17
ATOM     17  C   UNL     1       3.117   5.022  20.212  0.00  0.00    +0.000 C 
ATOM     18  C   UNL     1       2.207   6.226  19.967  0.00  0.00    +0.000 C 
ATOM     19  C   UNL     1       2.305   3.784  20.586  0.00  0.00    +0.000 C 
ENDBRANCH   9  17
TORSDOF 2
ENDMDL
MODEL 7
REMARK VINA RESULT:      -6.7      1.819      2.019
REMARK  Name = 
REMARK  5 active torsions:
REMARK  status: ('A' for Active; 'I' for Inactive)
REMARK    1  A    between atoms: C_1  and  C_2
REMARK    2  A    between atoms: N_4  and  C_5
REMARK    3  A    between atoms: N_13  and  C_14
REMARK    4  A    between atoms: C_14  and  C_15
REMARK    5  A    between atoms: C_14  and  C_16
REMARK                            x       y       z     vdW  Elec       q    Type
REMARK                         _______ _______ _______ _____ _____    ______ ____
ROOT
ATOM      1  C   UNL     1       6.442   4.779  15.498  0.00  0.00    +0.000 A 
ATOM      2  C   UNL     1       7.291   4.852  16.625  0.00  0.00    +0.000 A 
ATOM      3  C   UNL     1       6.833   4.547  17.912  0.00  0.00    +0.000 A 
ATOM      4  C   UNL     1       5.516   4.171  18.038  0.00  0.00    +0.000 A 
ATOM      5  C   UNL     1       4.672   4.098  16.949  0.00  0.00    +0.000 A 
ATOM      6  C   UNL     1       5.098   4.405  15.666  0.00  0.00    +0.000 A 
ATOM      7  C   UNL     1       3.360   3.678  17.445  0.00  0.00    +0.000 C 
ATOM      8  O   UNL     1       2.400   3.501  16.721  0.00  0.00    +0.000 OA
ATOM      9  N   UNL     1       3.470   3.556  18.806  0.00  0.00    +0.000 N 
ATOM     10  C   UNL     1       4.748   3.818  19.226  0.00  0.00    +0.000 C 
ATOM     11  O   UNL     1       5.211   3.795  20.349  0.00  0.00    +0.000 OA
ENDROOT
BRANCH   1  15
ATOM     12  C   UNL     1       7.431   4.866  11.854  0.00  0.00    +0.000 C 
ATOM     13  C   UNL     1       6.754   4.288  13.069  0.00  0.00    +0.000 C 
ATOM     14  O   UNL     1       6.171   3.211  13.004  0.00  0.00    +0.000 OA
ATOM     15  N   UNL     1       6.881   5.091  14.191  0.00  0.00    +0.000 N 
ATOM     16  H   UNL     1       7.254   6.023  14.046  0.00  0.00    +0.000 HD
ENDBRANCH   1  15
BRANCH   9  17
ATOM     17  C   UNL     1       2.388   3.207  19.726  0.00  0.00    +0.000 C 
ATOM     18  C   UNL     1       1.448   4.388  19.961  0.00  0.00    +0.000 C 
ATOM     19  C   UNL     1       1.618   1.973  19.260  0.00  0.00    +0.000 C 
ENDBRANCH   9  17
TORSDOF 2
ENDMDL
MODEL 8
REMARK VINA RESULT:      -6.7      3.402      6.683
REMARK  Name = 
REMARK  5 active torsions:
REMARK  status: ('A' for Active; 'I' for Inactive)
REMARK    1  A    between atoms: C_1  and  C_2
REMARK    2  A    between atoms: N_4  and  C_5
REMARK    3  A    between atoms: N_13  and  C_14
REMARK    4  A    between atoms: C_14  and  C_15
REMARK    5  A    between atoms: C_14  and  C_16
REMARK                            x       y       z     vdW  Elec       q    Type
REMARK                         _______ _______ _______ _____ _____    ______ ____
ROOT
ATOM      1  C   UNL     1       1.309   8.359  20.050  0.00  0.00    +0.000 A 
ATOM      2  C   UNL     1       1.641   9.051  18.864  0.00  0.00    +0.000 A 
ATOM      3  C   UNL     1       2.542   8.525  17.932  0.00  0.00    +0.000 A 
ATOM      4  C   UNL     1       3.098   7.299  18.219  0.00  0.00    +0.000 A 
ATOM      5  C   UNL     1       2.789   6.612  19.375  0.00  0.00    +0.000 A 
ATOM      6  C   UNL     1       1.907   7.117  20.317  0.00  0.00    +0.000 A 
ATOM      7  C   UNL     1       3.557   5.366  19.356  0.00  0.00    +0.000 C 
ATOM      8  O   UNL     1       3.487   4.527  20.232  0.00  0.00    +0.000 OA
ATOM      9  N   UNL     1       4.315   5.383  18.213  0.00  0.00    +0.000 N 
ATOM     10  C   UNL     1       4.071   6.509  17.472  0.00  0.00    +0.000 C 
ATOM     11  O   UNL     1       4.545   6.851  16.408  0.00  0.00    +0.000 OA
ENDROOT
BRANCH   1  15
ATOM     12  C   UNL     1      -0.471   9.737  23.083  0.00  0.00    +0.000 C 
ATOM     13  C   UNL     1       0.737   9.368  22.263  0.00  0.00    +0.000 C 
ATOM     14  O   UNL     1       1.866   9.510  22.718  0.00  0.00    +0.000 OA
ATOM     15  N   UNL     1       0.408   8.877  21.008  0.00  0.00    +0.000 N 
ATOM     16  H   UNL     1      -0.560   8.970  20.721  0.00  0.00    +0.000 HD
ENDBRANCH   1  15
BRANCH   9  17
ATOM     17  C   UNL     1       5.278   4.360  17.808  0.00  0.00    +0.000 C 
ATOM     18  C   UNL     1       4.987   3.842  16.400  0.00  0.00    +0.000 C 
ATOM     19  C   UNL     1       6.719   4.852  17.928  0.00  0.00    +0.000 C 
ENDBRANCH   9  17
TORSDOF 2
ENDMDL
MODEL 9
REMARK VINA RESULT:      -6.6      1.436      1.655
REMARK  Name = 
REMARK  5 active torsions:
REMARK  status: ('A' for Active; 'I' for Inactive)
REMARK    1  A    between atoms: C_1  and  C_2
REMARK    2  A    between atoms: N_4  and  C_5
REMARK    3  A    between atoms: N_13  and  C_14
REMARK    4  A    between atoms: C_14  and  C_15
REMARK    5  A    between atoms: C_14  and  C_16
REMARK                            x       y       z     vdW  Elec       q    Type
REMARK                         _______ _______ _______ _____ _____    ______ ____
ROOT
ATOM      1  C   UNL     1       5.962   3.990  15.404  0.00  0.00    +0.000 A 
ATOM      2  C   UNL     1       6.837   4.430  16.422  0.00  0.00    +0.000 A 
ATOM      3  C   UNL     1       6.394   4.643  17.732  0.00  0.00    +0.000 A 
ATOM      4  C   UNL     1       5.064   4.406  17.992  0.00  0.00    +0.000 A 
ATOM      5  C   UNL     1       4.195   3.981  17.008  0.00  0.00    +0.000 A 
ATOM      6  C   UNL     1       4.607   3.772  15.702  0.00  0.00    +0.000 A 
ATOM      7  C   UNL     1       2.876   3.839  17.629  0.00  0.00    +0.000 C 
ATOM      8  O   UNL     1       1.893   3.456  17.024  0.00  0.00    +0.000 OA
ATOM      9  N   UNL     1       3.009   4.221  18.939  0.00  0.00    +0.000 N 
ATOM     10  C   UNL     1       4.306   4.555  19.229  0.00  0.00    +0.000 C 
ATOM     11  O   UNL     1       4.791   4.923  20.279  0.00  0.00    +0.000 OA
ENDROOT
BRANCH   1  15
ATOM     12  C   UNL     1       7.382   4.152  11.907  0.00  0.00    +0.000 C 
ATOM     13  C   UNL     1       7.217   4.607  13.334  0.00  0.00    +0.000 C 
ATOM     14  O   UNL     1       7.783   5.617  13.735  0.00  0.00    +0.000 OA
ATOM     15  N   UNL     1       6.387   3.777  14.072  0.00  0.00    +0.000 N 
ATOM     16  H   UNL     1       6.123   2.897  13.644  0.00  0.00    +0.000 HD
ENDBRANCH   1  15
BRANCH   9  17
ATOM     17  C   UNL     1       1.932   4.290  19.925  0.00  0.00    +0.000 C 
ATOM     18  C   UNL     1       2.091   3.219  21.004  0.00  0.00    +0.000 C 
ATOM     19  C   UNL     1       1.810   5.681  20.543  0.00  0.00    +0.000 C 
ENDBRANCH   9  17
TORSDOF 2
ENDMDL
