MODEL 1
REMARK VINA RESULT:      -8.0      0.000      0.000
REMARK  Name = 
REMARK  10 active torsions:
REMARK  status: ('A' for Active; 'I' for Inactive)
REMARK    1  A    between atoms: C_2  and  O_3
REMARK    2  A    between atoms: C_2  and  C_4
REMARK    3  A    between atoms: C_4  and  O_5
REMARK    4  A    between atoms: O_5  and  C_6
REMARK    5  A    between atoms: C_6  and  C_7
REMARK    6  A    between atoms: C_12  and  O_13
REMARK    7  A    between atoms: C_14  and  C_15
REMARK    8  A    between atoms: N_16  and  N_17
REMARK    9  A    between atoms: N_20  and  C_21
REMARK   10  A    between atoms: C_24  and  N_25
REMARK                            x       y       z     vdW  Elec       q    Type
REMARK                         _______ _______ _______ _____ _____    ______ ____
ROOT
ATOM      1  C   UNL     1       4.679   3.118  16.961  0.00  0.00    +0.000 C 
ATOM      2  C   UNL     1       3.427   3.414  17.357  0.00  0.00    +0.000 C 
ATOM      3  C   UNL     1       2.530   2.494  18.143  0.00  0.00    +0.000 C 
ATOM      4  C   UNL     1       1.293   3.350  18.465  0.00  0.00    +0.000 C 
ATOM      5  C   UNL     1       0.804   3.232  19.906  0.00  0.00    +0.000 C 
ATOM      6  C   UNL     1       1.436   4.399  20.677  0.00  0.00    +0.000 C 
ATOM      7  C   UNL     1       2.320   5.166  19.693  0.00  0.00    +0.000 C 
ATOM      8  C   UNL     1       1.743   4.805  18.317  0.00  0.00    +0.000 C 
ATOM      9  C   UNL     1       2.767   4.761  17.191  0.00  0.00    +0.000 C 
ENDROOT
BRANCH   6  10
ATOM     10  O   UNL     1       2.215   3.916  21.763  0.00  0.00    +0.000 OA
ATOM     11  H   UNL     1       1.614   3.513  22.415  0.00  0.00    +0.000 HD
ENDBRANCH   6  10
BRANCH   7  12
ATOM     12  C   UNL     1       2.304   6.666  19.943  0.00  0.00    +0.000 C 
ATOM     13  N   UNL     1       1.715   7.098  20.995  0.00  0.00    +0.000 NA
BRANCH  13  14
ATOM     14  N   UNL     1       1.643   8.448  21.212  0.00  0.00    +0.000 N 
ATOM     15  C   UNL     1       0.376   8.974  21.419  0.00  0.00    +0.000 C 
ATOM     16  O   UNL     1      -0.618   8.247  21.458  0.00  0.00    +0.000 OA
ATOM     17  N   UNL     1       0.356  10.357  21.530  0.00  0.00    +0.000 N 
ATOM     18  H   UNL     1       2.486   9.002  21.291  0.00  0.00    +0.000 HD
ATOM     19  H   UNL     1       1.162  10.862  21.193  0.00  0.00    +0.000 HD
BRANCH  17  20
ATOM     20  C   UNL     1      -0.814  11.111  21.808  0.00  0.00    +0.000 A 
ATOM     21  C   UNL     1      -1.473  11.843  20.813  0.00  0.00    +0.000 A 
ATOM     22  C   UNL     1      -2.629  12.574  21.079  0.00  0.00    +0.000 A 
ATOM     23  C   UNL     1      -3.150  12.577  22.368  0.00  0.00    +0.000 A 
ATOM     24  C   UNL     1      -2.508  11.863  23.391  0.00  0.00    +0.000 A 
ATOM     25  C   UNL     1      -1.345  11.127  23.107  0.00  0.00    +0.000 A 
BRANCH  23  26
ATOM     26  N   UNL     1      -4.401  13.295  22.633  0.00  0.00    +0.000 N 
ATOM     27  O   UNL     1      -4.416  14.104  23.573  0.00  0.00    +0.000 OA
ATOM     28  O   UNL     1      -5.366  13.063  21.890  0.00  0.00    +0.000 OA
ENDBRANCH  23  26
ENDBRANCH  17  20
ENDBRANCH  13  14
ENDBRANCH   7  12
BRANCH   1  29
ATOM     29  C   UNL     1       5.566   4.098  16.259  0.00  0.00    +0.000 C 
BRANCH  29  30
ATOM     30  O   UNL     1       5.896   5.187  17.129  0.00  0.00    +0.000 OA
BRANCH  30  31
ATOM     31  C   UNL     1       7.039   4.813  17.921  0.00  0.00    +0.000 C 
BRANCH  31  33
ATOM     32  O   UNL     1       7.780   5.458  20.142  0.00  0.00    +0.000 OA
ATOM     33  C   UNL     1       6.862   5.248  19.367  0.00  0.00    +0.000 C 
BRANCH  33  34
ATOM     34  O   UNL     1       5.556   5.380  19.706  0.00  0.00    +0.000 OA
ATOM     35  H   UNL     1       5.454   6.246  20.169  0.00  0.00    +0.000 HD
ENDBRANCH  33  34
ENDBRANCH  31  33
ENDBRANCH  30  31
ENDBRANCH  29  30
ENDBRANCH   1  29
TORSDOF 10
ENDMDL
MODEL 2
REMARK VINA RESULT:      -7.9      2.198      2.499
REMARK  Name = 
REMARK  10 active torsions:
REMARK  status: ('A' for Active; 'I' for Inactive)
REMARK    1  A    between atoms: C_2  and  O_3
REMARK    2  A    between atoms: C_2  and  C_4
REMARK    3  A    between atoms: C_4  and  O_5
REMARK    4  A    between atoms: O_5  and  C_6
REMARK    5  A    between atoms: C_6  and  C_7
REMARK    6  A    between atoms: C_12  and  O_13
REMARK    7  A    between atoms: C_14  and  C_15
REMARK    8  A    between atoms: N_16  and  N_17
REMARK    9  A    between atoms: N_20  and  C_21
REMARK   10  A    between atoms: C_24  and  N_25
REMARK                            x       y       z     vdW  Elec       q    Type
REMARK                         _______ _______ _______ _____ _____    ______ ____
ROOT
ATOM      1  C   UNL     1       4.938   4.718  16.998  0.00  0.00    +0.000 C 
ATOM      2  C   UNL     1       3.722   4.263  17.352  0.00  0.00    +0.000 C 
ATOM      3  C   UNL     1       3.400   2.829  17.683  0.00  0.00    +0.000 C 
ATOM      4  C   UNL     1       1.939   2.868  18.163  0.00  0.00    +0.000 C 
ATOM      5  C   UNL     1       1.668   2.048  19.422  0.00  0.00    +0.000 C 
ATOM      6  C   UNL     1       1.763   3.023  20.604  0.00  0.00    +0.000 C 
ATOM      7  C   UNL     1       2.127   4.394  20.034  0.00  0.00    +0.000 C 
ATOM      8  C   UNL     1       1.671   4.319  18.569  0.00  0.00    +0.000 C 
ATOM      9  C   UNL     1       2.514   5.134  17.599  0.00  0.00    +0.000 C 
ENDROOT
BRANCH   6  10
ATOM     10  O   UNL     1       2.757   2.595  21.526  0.00  0.00    +0.000 OA
ATOM     11  H   UNL     1       2.844   1.627  21.454  0.00  0.00    +0.000 HD
ENDBRANCH   6  10
BRANCH   7  12
ATOM     12  C   UNL     1       1.456   5.534  20.783  0.00  0.00    +0.000 C 
ATOM     13  N   UNL     1       1.956   6.708  20.673  0.00  0.00    +0.000 NA
BRANCH  13  14
ATOM     14  N   UNL     1       1.399   7.739  21.380  0.00  0.00    +0.000 N 
ATOM     15  C   UNL     1       1.159   8.912  20.677  0.00  0.00    +0.000 C 
ATOM     16  O   UNL     1       1.389   8.990  19.470  0.00  0.00    +0.000 OA
ATOM     17  N   UNL     1       0.691   9.951  21.468  0.00  0.00    +0.000 N 
ATOM     18  H   UNL     1       1.113   7.609  22.341  0.00  0.00    +0.000 HD
ATOM     19  H   UNL     1       0.822   9.871  22.466  0.00  0.00    +0.000 HD
BRANCH  17  20
ATOM     20  C   UNL     1       0.317  11.223  20.961  0.00  0.00    +0.000 A 
ATOM     21  C   UNL     1      -1.003  11.509  20.592  0.00  0.00    +0.000 A 
ATOM     22  C   UNL     1      -1.378  12.759  20.105  0.00  0.00    +0.000 A 
ATOM     23  C   UNL     1      -0.418  13.758  19.984  0.00  0.00    +0.000 A 
ATOM     24  C   UNL     1       0.917  13.501  20.334  0.00  0.00    +0.000 A 
ATOM     25  C   UNL     1       1.279  12.235  20.827  0.00  0.00    +0.000 A 
BRANCH  23  26
ATOM     26  N   UNL     1      -0.825  15.092  19.531  0.00  0.00    +0.000 N 
ATOM     27  O   UNL     1      -1.650  15.710  20.221  0.00  0.00    +0.000 OA
ATOM     28  O   UNL     1      -0.308  15.529  18.493  0.00  0.00    +0.000 OA
ENDBRANCH  23  26
ENDBRANCH  17  20
ENDBRANCH  13  14
ENDBRANCH   7  12
BRANCH   1  29
ATOM     29  C   UNL     1       5.230   6.167  16.763  0.00  0.00    +0.000 C 
BRANCH  29  30
ATOM     30  O   UNL     1       6.622   6.436  16.963  0.00  0.00    +0.000 OA
BRANCH  30  31
ATOM     31  C   UNL     1       7.192   5.363  17.738  0.00  0.00    +0.000 C 
BRANCH  31  33
ATOM     32  O   UNL     1       7.306   5.377  20.164  0.00  0.00    +0.000 OA
ATOM     33  C   UNL     1       7.650   5.862  19.098  0.00  0.00    +0.000 C 
BRANCH  33  34
ATOM     34  O   UNL     1       8.495   6.917  18.999  0.00  0.00    +0.000 OA
ATOM     35  H   UNL     1       8.140   7.520  18.303  0.00  0.00    +0.000 HD
ENDBRANCH  33  34
ENDBRANCH  31  33
ENDBRANCH  30  31
ENDBRANCH  29  30
ENDBRANCH   1  29
TORSDOF 10
ENDMDL
MODEL 3
REMARK VINA RESULT:      -7.9      3.961     10.351
REMARK  Name = 
REMARK  10 active torsions:
REMARK  status: ('A' for Active; 'I' for Inactive)
REMARK    1  A    between atoms: C_2  and  O_3
REMARK    2  A    between atoms: C_2  and  C_4
REMARK    3  A    between atoms: C_4  and  O_5
REMARK    4  A    between atoms: O_5  and  C_6
REMARK    5  A    between atoms: C_6  and  C_7
REMARK    6  A    between atoms: C_12  and  O_13
REMARK    7  A    between atoms: C_14  and  C_15
REMARK    8  A    between atoms: N_16  and  N_17
REMARK    9  A    between atoms: N_20  and  C_21
REMARK   10  A    between atoms: C_24  and  N_25
REMARK                            x       y       z     vdW  Elec       q    Type
REMARK                         _______ _______ _______ _____ _____    ______ ____
ROOT
ATOM      1  C   UNL     1      -3.195  10.907  18.339  0.00  0.00    +0.000 C 
ATOM      2  C   UNL     1      -2.075  11.230  19.011  0.00  0.00    +0.000 C 
ATOM      3  C   UNL     1      -2.015  12.170  20.187  0.00  0.00    +0.000 C 
ATOM      4  C   UNL     1      -0.559  12.077  20.676  0.00  0.00    +0.000 C 
ATOM      5  C   UNL     1      -0.409  11.960  22.190  0.00  0.00    +0.000 C 
ATOM      6  C   UNL     1      -0.289  10.461  22.500  0.00  0.00    +0.000 C 
ATOM      7  C   UNL     1      -0.408   9.713  21.173  0.00  0.00    +0.000 C 
ATOM      8  C   UNL     1      -0.016  10.759  20.120  0.00  0.00    +0.000 C 
ATOM      9  C   UNL     1      -0.720  10.606  18.779  0.00  0.00    +0.000 C 
ENDROOT
BRANCH   6  10
ATOM     10  O   UNL     1      -1.318  10.051  23.390  0.00  0.00    +0.000 OA
ATOM     11  H   UNL     1      -1.315  10.649  24.159  0.00  0.00    +0.000 HD
ENDBRANCH   6  10
BRANCH   7  12
ATOM     12  C   UNL     1       0.484   8.483  21.115  0.00  0.00    +0.000 C 
ATOM     13  N   UNL     1       1.470   8.488  20.298  0.00  0.00    +0.000 NA
BRANCH  13  14
ATOM     14  N   UNL     1       2.254   7.371  20.192  0.00  0.00    +0.000 N 
ATOM     15  C   UNL     1       2.931   7.203  18.992  0.00  0.00    +0.000 C 
ATOM     16  O   UNL     1       2.865   8.048  18.099  0.00  0.00    +0.000 OA
ATOM     17  N   UNL     1       3.626   6.005  18.905  0.00  0.00    +0.000 N 
ATOM     18  H   UNL     1       2.382   6.754  20.983  0.00  0.00    +0.000 HD
ATOM     19  H   UNL     1       3.374   5.274  19.554  0.00  0.00    +0.000 HD
BRANCH  17  20
ATOM     20  C   UNL     1       4.442   5.643  17.801  0.00  0.00    +0.000 A 
ATOM     21  C   UNL     1       4.176   4.505  17.030  0.00  0.00    +0.000 A 
ATOM     22  C   UNL     1       4.967   4.152  15.939  0.00  0.00    +0.000 A 
ATOM     23  C   UNL     1       6.052   4.953  15.598  0.00  0.00    +0.000 A 
ATOM     24  C   UNL     1       6.353   6.095  16.357  0.00  0.00    +0.000 A 
ATOM     25  C   UNL     1       5.543   6.439  17.453  0.00  0.00    +0.000 A 
BRANCH  23  26
ATOM     26  N   UNL     1       6.846   4.617  14.412  0.00  0.00    +0.000 N 
ATOM     27  O   UNL     1       7.882   5.266  14.207  0.00  0.00    +0.000 OA
ATOM     28  O   UNL     1       6.442   3.691  13.694  0.00  0.00    +0.000 OA
ENDBRANCH  23  26
ENDBRANCH  17  20
ENDBRANCH  13  14
ENDBRANCH   7  12
BRANCH   1  29
ATOM     29  C   UNL     1      -3.220   9.899  17.232  0.00  0.00    +0.000 C 
BRANCH  29  30
ATOM     30  O   UNL     1      -2.446  10.360  16.119  0.00  0.00    +0.000 OA
BRANCH  30  31
ATOM     31  C   UNL     1      -3.340  10.918  15.136  0.00  0.00    +0.000 C 
BRANCH  31  33
ATOM     32  O   UNL     1      -2.454   9.692  13.237  0.00  0.00    +0.000 OA
ATOM     33  C   UNL     1      -3.416  10.028  13.907  0.00  0.00    +0.000 C 
BRANCH  33  34
ATOM     34  O   UNL     1      -4.686   9.641  13.632  0.00  0.00    +0.000 OA
ATOM     35  H   UNL     1      -5.280  10.408  13.819  0.00  0.00    +0.000 HD
ENDBRANCH  33  34
ENDBRANCH  31  33
ENDBRANCH  30  31
ENDBRANCH  29  30
ENDBRANCH   1  29
TORSDOF 10
ENDMDL
MODEL 4
REMARK VINA RESULT:      -7.8      2.660      3.042
REMARK  Name = 
REMARK  10 active torsions:
REMARK  status: ('A' for Active; 'I' for Inactive)
REMARK    1  A    between atoms: C_2  and  O_3
REMARK    2  A    between atoms: C_2  and  C_4
REMARK    3  A    between atoms: C_4  and  O_5
REMARK    4  A    between atoms: O_5  and  C_6
REMARK    5  A    between atoms: C_6  and  C_7
REMARK    6  A    between atoms: C_12  and  O_13
REMARK    7  A    between atoms: C_14  and  C_15
REMARK    8  A    between atoms: N_16  and  N_17
REMARK    9  A    between atoms: N_20  and  C_21
REMARK   10  A    between atoms: C_24  and  N_25
REMARK                            x       y       z     vdW  Elec       q    Type
REMARK                         _______ _______ _______ _____ _____    ______ ____
ROOT
ATOM      1  C   UNL     1       4.629   4.236  17.016  0.00  0.00    +0.000 C 
ATOM      2  C   UNL     1       3.407   3.894  17.464  0.00  0.00    +0.000 C 
ATOM      3  C   UNL     1       3.008   2.512  17.913  0.00  0.00    +0.000 C 
ATOM      4  C   UNL     1       1.581   2.687  18.463  0.00  0.00    +0.000 C 
ATOM      5  C   UNL     1       1.327   1.976  19.789  0.00  0.00    +0.000 C 
ATOM      6  C   UNL     1       1.553   3.019  20.892  0.00  0.00    +0.000 C 
ATOM      7  C   UNL     1       1.976   4.319  20.207  0.00  0.00    +0.000 C 
ATOM      8  C   UNL     1       1.435   4.178  18.777  0.00  0.00    +0.000 C 
ATOM      9  C   UNL     1       2.276   4.863  17.709  0.00  0.00    +0.000 C 
ENDROOT
BRANCH   6  10
ATOM     10  O   UNL     1       2.566   2.585  21.790  0.00  0.00    +0.000 OA
ATOM     11  H   UNL     1       2.712   3.287  22.449  0.00  0.00    +0.000 HD
ENDBRANCH   6  10
BRANCH   7  12
ATOM     12  C   UNL     1       1.426   5.552  20.906  0.00  0.00    +0.000 C 
ATOM     13  N   UNL     1       1.808   6.702  20.493  0.00  0.00    +0.000 NA
BRANCH  13  14
ATOM     14  N   UNL     1       1.366   7.824  21.142  0.00  0.00    +0.000 N 
ATOM     15  C   UNL     1       1.343   8.998  20.400  0.00  0.00    +0.000 C 
ATOM     16  O   UNL     1       1.653   9.005  19.208  0.00  0.00    +0.000 OA
ATOM     17  N   UNL     1       0.986  10.117  21.138  0.00  0.00    +0.000 N 
ATOM     18  H   UNL     1       1.008   7.766  22.085  0.00  0.00    +0.000 HD
ATOM     19  H   UNL     1       1.043  10.049  22.143  0.00  0.00    +0.000 HD
BRANCH  17  20
ATOM     20  C   UNL     1       0.831  11.414  20.581  0.00  0.00    +0.000 A 
ATOM     21  C   UNL     1       1.794  12.414  20.764  0.00  0.00    +0.000 A 
ATOM     22  C   UNL     1       1.652  13.684  20.210  0.00  0.00    +0.000 A 
ATOM     23  C   UNL     1       0.525  13.971  19.447  0.00  0.00    +0.000 A 
ATOM     24  C   UNL     1      -0.464  12.995  19.253  0.00  0.00    +0.000 A 
ATOM     25  C   UNL     1      -0.305  11.717  19.816  0.00  0.00    +0.000 A 
BRANCH  23  26
ATOM     26  N   UNL     1       0.407  15.288  18.811  0.00  0.00    +0.000 N 
ATOM     27  O   UNL     1      -0.709  15.830  18.806  0.00  0.00    +0.000 OA
ATOM     28  O   UNL     1       1.434  15.788  18.330  0.00  0.00    +0.000 OA
ENDBRANCH  23  26
ENDBRANCH  17  20
ENDBRANCH  13  14
ENDBRANCH   7  12
BRANCH   1  29
ATOM     29  C   UNL     1       5.005   5.641  16.665  0.00  0.00    +0.000 C 
BRANCH  29  30
ATOM     30  O   UNL     1       5.429   6.353  17.833  0.00  0.00    +0.000 OA
BRANCH  30  31
ATOM     31  C   UNL     1       6.867   6.445  17.818  0.00  0.00    +0.000 C 
BRANCH  31  33
ATOM     32  O   UNL     1       8.051   4.345  18.110  0.00  0.00    +0.000 OA
ATOM     33  C   UNL     1       7.490   5.306  18.609  0.00  0.00    +0.000 C 
BRANCH  33  34
ATOM     34  O   UNL     1       7.356   5.478  19.947  0.00  0.00    +0.000 OA
ATOM     35  H   UNL     1       7.996   6.175  20.225  0.00  0.00    +0.000 HD
ENDBRANCH  33  34
ENDBRANCH  31  33
ENDBRANCH  30  31
ENDBRANCH  29  30
ENDBRANCH   1  29
TORSDOF 10
ENDMDL
MODEL 5
REMARK VINA RESULT:      -7.8      5.836      9.264
REMARK  Name = 
REMARK  10 active torsions:
REMARK  status: ('A' for Active; 'I' for Inactive)
REMARK    1  A    between atoms: C_2  and  O_3
REMARK    2  A    between atoms: C_2  and  C_4
REMARK    3  A    between atoms: C_4  and  O_5
REMARK    4  A    between atoms: O_5  and  C_6
REMARK    5  A    between atoms: C_6  and  C_7
REMARK    6  A    between atoms: C_12  and  O_13
REMARK    7  A    between atoms: C_14  and  C_15
REMARK    8  A    between atoms: N_16  and  N_17
REMARK    9  A    between atoms: N_20  and  C_21
REMARK   10  A    between atoms: C_24  and  N_25
REMARK                            x       y       z     vdW  Elec       q    Type
REMARK                         _______ _______ _______ _____ _____    ______ ____
ROOT
ATOM      1  C   UNL     1       2.574   5.360  18.238  0.00  0.00    +0.000 C 
ATOM      2  C   UNL     1       3.675   4.663  17.902  0.00  0.00    +0.000 C 
ATOM      3  C   UNL     1       3.850   3.890  16.621  0.00  0.00    +0.000 C 
ATOM      4  C   UNL     1       5.313   3.414  16.659  0.00  0.00    +0.000 C 
ATOM      5  C   UNL     1       6.066   3.592  15.343  0.00  0.00    +0.000 C 
ATOM      6  C   UNL     1       6.816   4.928  15.449  0.00  0.00    +0.000 C 
ATOM      7  C   UNL     1       6.465   5.539  16.805  0.00  0.00    +0.000 C 
ATOM      8  C   UNL     1       6.025   4.336  17.652  0.00  0.00    +0.000 C 
ATOM      9  C   UNL     1       4.960   4.648  18.693  0.00  0.00    +0.000 C 
ENDROOT
BRANCH   6  10
ATOM     10  O   UNL     1       6.425   5.803  14.399  0.00  0.00    +0.000 OA
ATOM     11  H   UNL     1       6.900   6.646  14.511  0.00  0.00    +0.000 HD
ENDBRANCH   6  10
BRANCH   7  12
ATOM     12  C   UNL     1       7.635   6.280  17.430  0.00  0.00    +0.000 C 
ATOM     13  N   UNL     1       7.381   7.223  18.260  0.00  0.00    +0.000 NA
BRANCH  13  14
ATOM     14  N   UNL     1       8.419   7.938  18.795  0.00  0.00    +0.000 N 
ATOM     15  C   UNL     1       8.505   9.273  18.425  0.00  0.00    +0.000 C 
ATOM     16  O   UNL     1       7.655   9.789  17.698  0.00  0.00    +0.000 OA
ATOM     17  N   UNL     1       9.632   9.917  18.916  0.00  0.00    +0.000 N 
ATOM     18  H   UNL     1       9.034   7.519  19.480  0.00  0.00    +0.000 HD
ATOM     19  H   UNL     1      10.392   9.339  19.240  0.00  0.00    +0.000 HD
BRANCH  17  20
ATOM     20  C   UNL     1       9.899  11.298  18.723  0.00  0.00    +0.000 A 
ATOM     21  C   UNL     1       9.484  12.265  19.646  0.00  0.00    +0.000 A 
ATOM     22  C   UNL     1       9.755  13.619  19.467  0.00  0.00    +0.000 A 
ATOM     23  C   UNL     1      10.462  14.029  18.341  0.00  0.00    +0.000 A 
ATOM     24  C   UNL     1      10.882  13.086  17.390  0.00  0.00    +0.000 A 
ATOM     25  C   UNL     1      10.604  11.723  17.587  0.00  0.00    +0.000 A 
BRANCH  23  26
ATOM     26  N   UNL     1      10.800  15.447  18.185  0.00  0.00    +0.000 N 
ATOM     27  O   UNL     1      10.237  16.262  18.931  0.00  0.00    +0.000 OA
ATOM     28  O   UNL     1      11.642  15.745  17.326  0.00  0.00    +0.000 OA
ENDBRANCH  23  26
ENDBRANCH  17  20
ENDBRANCH  13  14
ENDBRANCH   7  12
BRANCH   1  29
ATOM     29  C   UNL     1       2.480   6.186  19.482  0.00  0.00    +0.000 C 
BRANCH  29  30
ATOM     30  O   UNL     1       1.553   5.600  20.403  0.00  0.00    +0.000 OA
BRANCH  30  31
ATOM     31  C   UNL     1       2.272   4.701  21.270  0.00  0.00    +0.000 C 
BRANCH  31  33
ATOM     32  O   UNL     1       2.018   2.383  21.948  0.00  0.00    +0.000 OA
ATOM     33  C   UNL     1       1.620   3.328  21.287  0.00  0.00    +0.000 C 
BRANCH  33  34
ATOM     34  O   UNL     1       0.535   3.266  20.477  0.00  0.00    +0.000 OA
ATOM     35  H   UNL     1       0.180   2.347  20.523  0.00  0.00    +0.000 HD
ENDBRANCH  33  34
ENDBRANCH  31  33
ENDBRANCH  30  31
ENDBRANCH  29  30
ENDBRANCH   1  29
TORSDOF 10
ENDMDL
MODEL 6
REMARK VINA RESULT:      -7.8      1.526      2.383
REMARK  Name = 
REMARK  10 active torsions:
REMARK  status: ('A' for Active; 'I' for Inactive)
REMARK    1  A    between atoms: C_2  and  O_3
REMARK    2  A    between atoms: C_2  and  C_4
REMARK    3  A    between atoms: C_4  and  O_5
REMARK    4  A    between atoms: O_5  and  C_6
REMARK    5  A    between atoms: C_6  and  C_7
REMARK    6  A    between atoms: C_12  and  O_13
REMARK    7  A    between atoms: C_14  and  C_15
REMARK    8  A    between atoms: N_16  and  N_17
REMARK    9  A    between atoms: N_20  and  C_21
REMARK   10  A    between atoms: C_24  and  N_25
REMARK                            x       y       z     vdW  Elec       q    Type
REMARK                         _______ _______ _______ _____ _____    ______ ____
ROOT
ATOM      1  C   UNL     1       5.303   3.810  17.214  0.00  0.00    +0.000 C 
ATOM      2  C   UNL     1       3.996   4.063  17.414  0.00  0.00    +0.000 C 
ATOM      3  C   UNL     1       2.994   3.065  17.931  0.00  0.00    +0.000 C 
ATOM      4  C   UNL     1       1.704   3.882  18.118  0.00  0.00    +0.000 C 
ATOM      5  C   UNL     1       0.974   3.614  19.431  0.00  0.00    +0.000 C 
ATOM      6  C   UNL     1       1.441   4.694  20.417  0.00  0.00    +0.000 C 
ATOM      7  C   UNL     1       2.467   5.560  19.688  0.00  0.00    +0.000 C 
ATOM      8  C   UNL     1       2.146   5.345  18.202  0.00  0.00    +0.000 C 
ATOM      9  C   UNL     1       3.350   5.419  17.274  0.00  0.00    +0.000 C 
ENDROOT
BRANCH   6  10
ATOM     10  O   UNL     1       2.027   4.100  21.568  0.00  0.00    +0.000 OA
ATOM     11  H   UNL     1       2.332   3.207  21.329  0.00  0.00    +0.000 HD
ENDBRANCH   6  10
BRANCH   7  12
ATOM     12  C   UNL     1       2.380   7.026  20.084  0.00  0.00    +0.000 C 
ATOM     13  N   UNL     1       1.770   7.324  21.170  0.00  0.00    +0.000 NA
BRANCH  13  14
ATOM     14  N   UNL     1       1.635   8.641  21.519  0.00  0.00    +0.000 N 
ATOM     15  C   UNL     1       0.340   9.138  21.561  0.00  0.00    +0.000 C 
ATOM     16  O   UNL     1      -0.631   8.410  21.348  0.00  0.00    +0.000 OA
ATOM     17  N   UNL     1       0.272  10.500  21.819  0.00  0.00    +0.000 N 
ATOM     18  H   UNL     1       2.439   9.184  21.802  0.00  0.00    +0.000 HD
ATOM     19  H   UNL     1       1.114  11.041  21.683  0.00  0.00    +0.000 HD
BRANCH  17  20
ATOM     20  C   UNL     1      -0.943  11.216  21.972  0.00  0.00    +0.000 A 
ATOM     21  C   UNL     1      -1.560  11.862  20.894  0.00  0.00    +0.000 A 
ATOM     22  C   UNL     1      -2.759  12.556  21.038  0.00  0.00    +0.000 A 
ATOM     23  C   UNL     1      -3.370  12.608  22.286  0.00  0.00    +0.000 A 
ATOM     24  C   UNL     1      -2.773  11.981  23.391  0.00  0.00    +0.000 A 
ATOM     25  C   UNL     1      -1.564  11.282  23.229  0.00  0.00    +0.000 A 
BRANCH  23  26
ATOM     26  N   UNL     1      -4.664  13.285  22.423  0.00  0.00    +0.000 N 
ATOM     27  O   UNL     1      -5.643  12.599  22.754  0.00  0.00    +0.000 OA
ATOM     28  O   UNL     1      -4.698  14.506  22.215  0.00  0.00    +0.000 OA
ENDBRANCH  23  26
ENDBRANCH  17  20
ENDBRANCH  13  14
ENDBRANCH   7  12
BRANCH   1  29
ATOM     29  C   UNL     1       6.280   4.859  16.783  0.00  0.00    +0.000 C 
BRANCH  29  30
ATOM     30  O   UNL     1       6.069   5.205  15.409  0.00  0.00    +0.000 OA
BRANCH  30  31
ATOM     31  C   UNL     1       6.438   4.080  14.589  0.00  0.00    +0.000 C 
BRANCH  31  33
ATOM     32  O   UNL     1       6.940   4.049  12.213  0.00  0.00    +0.000 OA
ATOM     33  C   UNL     1       7.124   4.542  13.314  0.00  0.00    +0.000 C 
BRANCH  33  34
ATOM     34  O   UNL     1       7.973   5.575  13.535  0.00  0.00    +0.000 OA
ATOM     35  H   UNL     1       8.402   5.799  12.674  0.00  0.00    +0.000 HD
ENDBRANCH  33  34
ENDBRANCH  31  33
ENDBRANCH  30  31
ENDBRANCH  29  30
ENDBRANCH   1  29
TORSDOF 10
ENDMDL
MODEL 7
REMARK VINA RESULT:      -7.8      1.523      2.262
REMARK  Name = 
REMARK  10 active torsions:
REMARK  status: ('A' for Active; 'I' for Inactive)
REMARK    1  A    between atoms: C_2  and  O_3
REMARK    2  A    between atoms: C_2  and  C_4
REMARK    3  A    between atoms: C_4  and  O_5
REMARK    4  A    between atoms: O_5  and  C_6
REMARK    5  A    between atoms: C_6  and  C_7
REMARK    6  A    between atoms: C_12  and  O_13
REMARK    7  A    between atoms: C_14  and  C_15
REMARK    8  A    between atoms: N_16  and  N_17
REMARK    9  A    between atoms: N_20  and  C_21
REMARK   10  A    between atoms: C_24  and  N_25
REMARK                            x       y       z     vdW  Elec       q    Type
REMARK                         _______ _______ _______ _____ _____    ______ ____
ROOT
ATOM      1  C   UNL     1       4.577   2.923  17.070  0.00  0.00    +0.000 C 
ATOM      2  C   UNL     1       3.350   3.260  17.510  0.00  0.00    +0.000 C 
ATOM      3  C   UNL     1       2.425   2.345  18.270  0.00  0.00    +0.000 C 
ATOM      4  C   UNL     1       1.239   3.244  18.663  0.00  0.00    +0.000 C 
ATOM      5  C   UNL     1       0.775   3.078  20.108  0.00  0.00    +0.000 C 
ATOM      6  C   UNL     1       1.481   4.173  20.919  0.00  0.00    +0.000 C 
ATOM      7  C   UNL     1       2.381   4.944  19.954  0.00  0.00    +0.000 C 
ATOM      8  C   UNL     1       1.758   4.681  18.576  0.00  0.00    +0.000 C 
ATOM      9  C   UNL     1       2.754   4.643  17.425  0.00  0.00    +0.000 C 
ENDROOT
BRANCH   6  10
ATOM     10  O   UNL     1       2.258   3.599  21.963  0.00  0.00    +0.000 OA
ATOM     11  H   UNL     1       3.010   3.127  21.560  0.00  0.00    +0.000 HD
ENDBRANCH   6  10
BRANCH   7  12
ATOM     12  C   UNL     1       2.445   6.428  20.277  0.00  0.00    +0.000 C 
ATOM     13  N   UNL     1       1.524   6.928  21.014  0.00  0.00    +0.000 NA
BRANCH  13  14
ATOM     14  N   UNL     1       1.533   8.272  21.274  0.00  0.00    +0.000 N 
ATOM     15  C   UNL     1       0.296   8.877  21.446  0.00  0.00    +0.000 C 
ATOM     16  O   UNL     1      -0.745   8.219  21.418  0.00  0.00    +0.000 OA
ATOM     17  N   UNL     1       0.364  10.254  21.603  0.00  0.00    +0.000 N 
ATOM     18  H   UNL     1       2.406   8.765  21.407  0.00  0.00    +0.000 HD
ATOM     19  H   UNL     1       1.216  10.712  21.317  0.00  0.00    +0.000 HD
BRANCH  17  20
ATOM     20  C   UNL     1      -0.765  11.077  21.857  0.00  0.00    +0.000 A 
ATOM     21  C   UNL     1      -1.368  11.131  23.119  0.00  0.00    +0.000 A 
ATOM     22  C   UNL     1      -2.468  11.946  23.376  0.00  0.00    +0.000 A 
ATOM     23  C   UNL     1      -2.984  12.735  22.353  0.00  0.00    +0.000 A 
ATOM     24  C   UNL     1      -2.410  12.695  21.073  0.00  0.00    +0.000 A 
ATOM     25  C   UNL     1      -1.298  11.870  20.831  0.00  0.00    +0.000 A 
BRANCH  23  26
ATOM     26  N   UNL     1      -4.102  13.639  22.641  0.00  0.00    +0.000 N 
ATOM     27  O   UNL     1      -5.253  13.198  22.501  0.00  0.00    +0.000 OA
ATOM     28  O   UNL     1      -3.830  14.786  23.023  0.00  0.00    +0.000 OA
ENDBRANCH  23  26
ENDBRANCH  17  20
ENDBRANCH  13  14
ENDBRANCH   7  12
BRANCH   1  29
ATOM     29  C   UNL     1       5.496   3.893  16.396  0.00  0.00    +0.000 C 
BRANCH  29  30
ATOM     30  O   UNL     1       6.097   3.294  15.243  0.00  0.00    +0.000 OA
BRANCH  30  31
ATOM     31  C   UNL     1       6.058   4.241  14.158  0.00  0.00    +0.000 C 
BRANCH  31  33
ATOM     32  O   UNL     1       7.719   5.668  15.207  0.00  0.00    +0.000 OA
ATOM     33  C   UNL     1       7.271   5.156  14.195  0.00  0.00    +0.000 C 
BRANCH  33  34
ATOM     34  O   UNL     1       7.808   5.344  12.964  0.00  0.00    +0.000 OA
ATOM     35  H   UNL     1       7.546   6.244  12.657  0.00  0.00    +0.000 HD
ENDBRANCH  33  34
ENDBRANCH  31  33
ENDBRANCH  30  31
ENDBRANCH  29  30
ENDBRANCH   1  29
TORSDOF 10
ENDMDL
MODEL 8
REMARK VINA RESULT:      -7.7      0.786      1.310
REMARK  Name = 
REMARK  10 active torsions:
REMARK  status: ('A' for Active; 'I' for Inactive)
REMARK    1  A    between atoms: C_2  and  O_3
REMARK    2  A    between atoms: C_2  and  C_4
REMARK    3  A    between atoms: C_4  and  O_5
REMARK    4  A    between atoms: O_5  and  C_6
REMARK    5  A    between atoms: C_6  and  C_7
REMARK    6  A    between atoms: C_12  and  O_13
REMARK    7  A    between atoms: C_14  and  C_15
REMARK    8  A    between atoms: N_16  and  N_17
REMARK    9  A    between atoms: N_20  and  C_21
REMARK   10  A    between atoms: C_24  and  N_25
REMARK                            x       y       z     vdW  Elec       q    Type
REMARK                         _______ _______ _______ _____ _____    ______ ____
ROOT
ATOM      1  C   UNL     1       4.350   2.901  16.921  0.00  0.00    +0.000 C 
ATOM      2  C   UNL     1       3.161   3.211  17.470  0.00  0.00    +0.000 C 
ATOM      3  C   UNL     1       2.341   2.286  18.331  0.00  0.00    +0.000 C 
ATOM      4  C   UNL     1       1.171   3.158  18.821  0.00  0.00    +0.000 C 
ATOM      5  C   UNL     1       0.852   3.006  20.305  0.00  0.00    +0.000 C 
ATOM      6  C   UNL     1       1.599   4.136  21.028  0.00  0.00    +0.000 C 
ATOM      7  C   UNL     1       2.379   4.914  19.968  0.00  0.00    +0.000 C 
ATOM      8  C   UNL     1       1.636   4.607  18.660  0.00  0.00    +0.000 C 
ATOM      9  C   UNL     1       2.518   4.575  17.421  0.00  0.00    +0.000 C 
ENDROOT
BRANCH   6  10
ATOM     10  O   UNL     1       2.489   3.605  22.001  0.00  0.00    +0.000 OA
ATOM     11  H   UNL     1       2.937   2.831  21.615  0.00  0.00    +0.000 HD
ENDBRANCH   6  10
BRANCH   7  12
ATOM     12  C   UNL     1       2.429   6.406  20.259  0.00  0.00    +0.000 C 
ATOM     13  N   UNL     1       1.547   6.899  21.047  0.00  0.00    +0.000 NA
BRANCH  13  14
ATOM     14  N   UNL     1       1.541   8.248  21.281  0.00  0.00    +0.000 N 
ATOM     15  C   UNL     1       0.301   8.833  21.491  0.00  0.00    +0.000 C 
ATOM     16  O   UNL     1      -0.728   8.156  21.518  0.00  0.00    +0.000 OA
ATOM     17  N   UNL     1       0.349  10.214  21.620  0.00  0.00    +0.000 N 
ATOM     18  H   UNL     1       2.410   8.758  21.368  0.00  0.00    +0.000 HD
ATOM     19  H   UNL     1       1.180  10.682  21.291  0.00  0.00    +0.000 HD
BRANCH  17  20
ATOM     20  C   UNL     1      -0.784  11.021  21.904  0.00  0.00    +0.000 A 
ATOM     21  C   UNL     1      -1.417  10.988  23.152  0.00  0.00    +0.000 A 
ATOM     22  C   UNL     1      -2.522  11.786  23.439  0.00  0.00    +0.000 A 
ATOM     23  C   UNL     1      -3.011  12.648  22.463  0.00  0.00    +0.000 A 
ATOM     24  C   UNL     1      -2.406  12.698  21.198  0.00  0.00    +0.000 A 
ATOM     25  C   UNL     1      -1.290  11.888  20.925  0.00  0.00    +0.000 A 
BRANCH  23  26
ATOM     26  N   UNL     1      -4.134  13.534  22.787  0.00  0.00    +0.000 N 
ATOM     27  O   UNL     1      -5.134  13.029  23.318  0.00  0.00    +0.000 OA
ATOM     28  O   UNL     1      -4.009  14.739  22.526  0.00  0.00    +0.000 OA
ENDBRANCH  23  26
ENDBRANCH  17  20
ENDBRANCH  13  14
ENDBRANCH   7  12
BRANCH   1  29
ATOM     29  C   UNL     1       5.171   3.884  16.146  0.00  0.00    +0.000 C 
BRANCH  29  30
ATOM     30  O   UNL     1       5.582   4.966  16.988  0.00  0.00    +0.000 OA
BRANCH  30  31
ATOM     31  C   UNL     1       6.942   4.735  17.404  0.00  0.00    +0.000 C 
BRANCH  31  33
ATOM     32  O   UNL     1       7.977   6.224  19.020  0.00  0.00    +0.000 OA
ATOM     33  C   UNL     1       7.589   6.025  17.881  0.00  0.00    +0.000 C 
BRANCH  33  34
ATOM     34  O   UNL     1       7.692   6.943  16.888  0.00  0.00    +0.000 OA
ATOM     35  H   UNL     1       7.450   7.822  17.267  0.00  0.00    +0.000 HD
ENDBRANCH  33  34
ENDBRANCH  31  33
ENDBRANCH  30  31
ENDBRANCH  29  30
ENDBRANCH   1  29
TORSDOF 10
ENDMDL
MODEL 9
REMARK VINA RESULT:      -7.7      0.958      1.097
REMARK  Name = 
REMARK  10 active torsions:
REMARK  status: ('A' for Active; 'I' for Inactive)
REMARK    1  A    between atoms: C_2  and  O_3
REMARK    2  A    between atoms: C_2  and  C_4
REMARK    3  A    between atoms: C_4  and  O_5
REMARK    4  A    between atoms: O_5  and  C_6
REMARK    5  A    between atoms: C_6  and  C_7
REMARK    6  A    between atoms: C_12  and  O_13
REMARK    7  A    between atoms: C_14  and  C_15
REMARK    8  A    between atoms: N_16  and  N_17
REMARK    9  A    between atoms: N_20  and  C_21
REMARK   10  A    between atoms: C_24  and  N_25
REMARK                            x       y       z     vdW  Elec       q    Type
REMARK                         _______ _______ _______ _____ _____    ______ ____
ROOT
ATOM      1  C   UNL     1       4.211   4.178  16.891  0.00  0.00    +0.000 C 
ATOM      2  C   UNL     1       3.039   4.067  17.544  0.00  0.00    +0.000 C 
ATOM      3  C   UNL     1       2.478   2.784  18.098  0.00  0.00    +0.000 C 
ATOM      4  C   UNL     1       1.219   3.220  18.869  0.00  0.00    +0.000 C 
ATOM      5  C   UNL     1       1.065   2.571  20.242  0.00  0.00    +0.000 C 
ATOM      6  C   UNL     1       1.659   3.558  21.257  0.00  0.00    +0.000 C 
ATOM      7  C   UNL     1       2.189   4.756  20.469  0.00  0.00    +0.000 C 
ATOM      8  C   UNL     1       1.400   4.713  19.153  0.00  0.00    +0.000 C 
ATOM      9  C   UNL     1       2.160   5.229  17.939  0.00  0.00    +0.000 C 
ENDROOT
BRANCH   6  10
ATOM     10  O   UNL     1       2.712   2.947  21.991  0.00  0.00    +0.000 OA
ATOM     11  H   UNL     1       3.547   3.101  21.513  0.00  0.00    +0.000 HD
ENDBRANCH   6  10
BRANCH   7  12
ATOM     12  C   UNL     1       1.996   6.070  21.208  0.00  0.00    +0.000 C 
ATOM     13  N   UNL     1       2.038   7.157  20.530  0.00  0.00    +0.000 NA
BRANCH  13  14
ATOM     14  N   UNL     1       1.919   8.355  21.182  0.00  0.00    +0.000 N 
ATOM     15  C   UNL     1       0.660   8.940  21.175  0.00  0.00    +0.000 C 
ATOM     16  O   UNL     1      -0.302   8.376  20.654  0.00  0.00    +0.000 OA
ATOM     17  N   UNL     1       0.625  10.197  21.761  0.00  0.00    +0.000 N 
ATOM     18  H   UNL     1       2.698   8.738  21.701  0.00  0.00    +0.000 HD
ATOM     19  H   UNL     1       1.504  10.677  21.883  0.00  0.00    +0.000 HD
BRANCH  17  20
ATOM     20  C   UNL     1      -0.561  10.959  21.927  0.00  0.00    +0.000 A 
ATOM     21  C   UNL     1      -1.070  11.763  20.901  0.00  0.00    +0.000 A 
ATOM     22  C   UNL     1      -2.240  12.503  21.055  0.00  0.00    +0.000 A 
ATOM     23  C   UNL     1      -2.930  12.441  22.261  0.00  0.00    +0.000 A 
ATOM     24  C   UNL     1      -2.441  11.653  23.315  0.00  0.00    +0.000 A 
ATOM     25  C   UNL     1      -1.261  10.909  23.142  0.00  0.00    +0.000 A 
BRANCH  23  26
ATOM     26  N   UNL     1      -4.195  13.170  22.401  0.00  0.00    +0.000 N 
ATOM     27  O   UNL     1      -4.287  14.278  21.852  0.00  0.00    +0.000 OA
ATOM     28  O   UNL     1      -5.102  12.627  23.047  0.00  0.00    +0.000 OA
ENDBRANCH  23  26
ENDBRANCH  17  20
ENDBRANCH  13  14
ENDBRANCH   7  12
BRANCH   1  29
ATOM     29  C   UNL     1       4.771   5.489  16.436  0.00  0.00    +0.000 C 
BRANCH  29  30
ATOM     30  O   UNL     1       6.180   5.545  16.684  0.00  0.00    +0.000 OA
BRANCH  30  31
ATOM     31  C   UNL     1       6.396   5.569  18.109  0.00  0.00    +0.000 C 
BRANCH  31  33
ATOM     32  O   UNL     1       8.315   4.115  17.788  0.00  0.00    +0.000 OA
ATOM     33  C   UNL     1       7.740   4.953  18.462  0.00  0.00    +0.000 C 
BRANCH  33  34
ATOM     34  O   UNL     1       8.239   5.445  19.623  0.00  0.00    +0.000 OA
ATOM     35  H   UNL     1       8.318   4.693  20.257  0.00  0.00    +0.000 HD
ENDBRANCH  33  34
ENDBRANCH  31  33
ENDBRANCH  30  31
ENDBRANCH  29  30
ENDBRANCH   1  29
TORSDOF 10
ENDMDL
