MODEL 1
REMARK VINA RESULT:      -7.9      0.000      0.000
REMARK  Name = 
REMARK  9 active torsions:
REMARK  status: ('A' for Active; 'I' for Inactive)
REMARK    1  A    between atoms: C_1  and  C_2
REMARK    2  A    between atoms: C_2  and  C_3
REMARK    3  A    between atoms: C_3  and  C_4
REMARK    4  A    between atoms: C_4  and  C_5
REMARK    5  A    between atoms: C_5  and  N_6
REMARK    6  A    between atoms: C_12  and  C_13
REMARK    7  A    between atoms: N_18  and  C_19
REMARK    8  A    between atoms: C_24  and  O_25
REMARK    9  A    between atoms: O_25  and  C_26
REMARK                            x       y       z     vdW  Elec       q    Type
REMARK                         _______ _______ _______ _____ _____    ______ ____
ROOT
ATOM      1  N   UNL     1       4.721   4.961  17.849  0.00  0.00    +0.000 N 
ATOM      2  C   UNL     1       4.440   4.526  19.136  0.00  0.00    +0.000 A 
ATOM      3  O   UNL     1       4.973   3.553  19.674  0.00  0.00    +0.000 OA
ATOM      4  N   UNL     1       3.512   5.251  19.842  0.00  0.00    +0.000 N 
ATOM      5  C   UNL     1       2.941   6.433  19.384  0.00  0.00    +0.000 A 
ATOM      6  C   UNL     1       2.054   7.150  20.192  0.00  0.00    +0.000 A 
ATOM      7  C   UNL     1       1.553   8.387  19.749  0.00  0.00    +0.000 A 
ATOM      8  C   UNL     1       2.001   8.909  18.529  0.00  0.00    +0.000 A 
ATOM      9  C   UNL     1       2.830   8.160  17.698  0.00  0.00    +0.000 A 
ATOM     10  C   UNL     1       3.294   6.919  18.132  0.00  0.00    +0.000 A 
ATOM     11  C   UNL     1       4.199   6.122  17.285  0.00  0.00    +0.000 A 
ATOM     12  O   UNL     1       4.449   6.524  16.151  0.00  0.00    +0.000 OA
ATOM     13  H   UNL     1       3.317   4.906  20.773  0.00  0.00    +0.000 HD
ENDROOT
BRANCH   7  14
ATOM     14  C   UNL     1       0.661   9.168  20.650  0.00  0.00    +0.000 C 
ATOM     15  O   UNL     1       0.366   8.648  21.725  0.00  0.00    +0.000 OA
ATOM     16  N   UNL     1       0.228  10.438  20.289  0.00  0.00    +0.000 N 
ATOM     17  C   UNL     1      -0.395  11.304  21.301  0.00  0.00    +0.000 C 
ATOM     18  C   UNL     1       0.261  12.712  21.339  0.00  0.00    +0.000 C 
ATOM     19  N   UNL     1       0.312  13.278  19.977  0.00  0.00    +0.000 N 
ATOM     20  C   UNL     1       0.969  12.397  18.986  0.00  0.00    +0.000 C 
ATOM     21  C   UNL     1       0.233  11.042  18.948  0.00  0.00    +0.000 C 
BRANCH  19  22
ATOM     22  C   UNL     1       0.025  14.603  19.667  0.00  0.00    +0.000 A 
ATOM     23  C   UNL     1       0.947  15.310  18.859  0.00  0.00    +0.000 A 
ATOM     24  C   UNL     1       0.779  16.645  18.492  0.00  0.00    +0.000 A 
ATOM     25  C   UNL     1      -0.337  17.333  18.916  0.00  0.00    +0.000 A 
ATOM     26  C   UNL     1      -1.291  16.676  19.690  0.00  0.00    +0.000 A 
ATOM     27  C   UNL     1      -1.139  15.320  20.051  0.00  0.00    +0.000 A 
BRANCH  27  28
ATOM     28  O   UNL     1      -2.083  14.689  20.834  0.00  0.00    +0.000 OA
ATOM     29  C   UNL     1      -2.301  15.254  22.125  0.00  0.00    +0.000 C 
ENDBRANCH  27  28
ENDBRANCH  19  22
ENDBRANCH   7  14
BRANCH   1  30
ATOM     30  C   UNL     1       5.673   4.191  17.053  0.00  0.00    +0.000 C 
BRANCH  30  31
ATOM     31  C   UNL     1       6.991   4.937  16.832  0.00  0.00    +0.000 C 
BRANCH  31  32
ATOM     32  C   UNL     1       7.884   4.861  18.070  0.00  0.00    +0.000 C 
BRANCH  32  34
ATOM     33  C   UNL     1       7.758   7.371  17.946  0.00  0.00    +0.000 C 
ATOM     34  C   UNL     1       7.824   6.164  18.865  0.00  0.00    +0.000 C 
ENDBRANCH  32  34
ENDBRANCH  31  32
ENDBRANCH  30  31
ENDBRANCH   1  30
TORSDOF 7
ENDMDL
MODEL 2
REMARK VINA RESULT:      -7.8      1.322      1.960
REMARK  Name = 
REMARK  9 active torsions:
REMARK  status: ('A' for Active; 'I' for Inactive)
REMARK    1  A    between atoms: C_1  and  C_2
REMARK    2  A    between atoms: C_2  and  C_3
REMARK    3  A    between atoms: C_3  and  C_4
REMARK    4  A    between atoms: C_4  and  C_5
REMARK    5  A    between atoms: C_5  and  N_6
REMARK    6  A    between atoms: C_12  and  C_13
REMARK    7  A    between atoms: N_18  and  C_19
REMARK    8  A    between atoms: C_24  and  O_25
REMARK    9  A    between atoms: O_25  and  C_26
REMARK                            x       y       z     vdW  Elec       q    Type
REMARK                         _______ _______ _______ _____ _____    ______ ____
ROOT
ATOM      1  N   UNL     1       5.162   5.367  17.677  0.00  0.00    +0.000 N 
ATOM      2  C   UNL     1       4.929   4.871  18.952  0.00  0.00    +0.000 A 
ATOM      3  O   UNL     1       5.577   3.962  19.474  0.00  0.00    +0.000 OA
ATOM      4  N   UNL     1       3.909   5.453  19.663  0.00  0.00    +0.000 N 
ATOM      5  C   UNL     1       3.195   6.562  19.225  0.00  0.00    +0.000 A 
ATOM      6  C   UNL     1       2.216   7.141  20.039  0.00  0.00    +0.000 A 
ATOM      7  C   UNL     1       1.564   8.313  19.618  0.00  0.00    +0.000 A 
ATOM      8  C   UNL     1       1.951   8.917  18.414  0.00  0.00    +0.000 A 
ATOM      9  C   UNL     1       2.876   8.300  17.576  0.00  0.00    +0.000 A 
ATOM     10  C   UNL     1       3.492   7.119  17.988  0.00  0.00    +0.000 A 
ATOM     11  C   UNL     1       4.499   6.465  17.134  0.00  0.00    +0.000 A 
ATOM     12  O   UNL     1       4.705   6.922  16.012  0.00  0.00    +0.000 OA
ATOM     13  H   UNL     1       3.753   5.065  20.584  0.00  0.00    +0.000 HD
ENDROOT
BRANCH   7  14
ATOM     14  C   UNL     1       0.571   8.952  20.526  0.00  0.00    +0.000 C 
ATOM     15  O   UNL     1       0.285   8.339  21.553  0.00  0.00    +0.000 OA
ATOM     16  N   UNL     1       0.039  10.200  20.226  0.00  0.00    +0.000 N 
ATOM     17  C   UNL     1      -0.698  10.940  21.261  0.00  0.00    +0.000 C 
ATOM     18  C   UNL     1      -0.174  12.394  21.415  0.00  0.00    +0.000 C 
ATOM     19  N   UNL     1      -0.122  13.051  20.093  0.00  0.00    +0.000 N 
ATOM     20  C   UNL     1       0.648  12.297  19.080  0.00  0.00    +0.000 C 
ATOM     21  C   UNL     1       0.040  10.889  18.926  0.00  0.00    +0.000 C 
BRANCH  19  22
ATOM     22  C   UNL     1      -0.517  14.362  19.854  0.00  0.00    +0.000 A 
ATOM     23  C   UNL     1       0.178  15.093  18.861  0.00  0.00    +0.000 A 
ATOM     24  C   UNL     1      -0.113  16.418  18.539  0.00  0.00    +0.000 A 
ATOM     25  C   UNL     1      -1.130  17.072  19.199  0.00  0.00    +0.000 A 
ATOM     26  C   UNL     1      -1.865  16.391  20.167  0.00  0.00    +0.000 A 
ATOM     27  C   UNL     1      -1.590  15.044  20.487  0.00  0.00    +0.000 A 
BRANCH  27  28
ATOM     28  O   UNL     1      -2.315  14.389  21.460  0.00  0.00    +0.000 OA
ATOM     29  C   UNL     1      -3.237  15.190  22.196  0.00  0.00    +0.000 C 
ENDBRANCH  27  28
ENDBRANCH  19  22
ENDBRANCH   7  14
BRANCH   1  30
ATOM     30  C   UNL     1       6.212   4.745  16.876  0.00  0.00    +0.000 C 
BRANCH  30  31
ATOM     31  C   UNL     1       5.652   3.806  15.805  0.00  0.00    +0.000 C 
BRANCH  31  32
ATOM     32  C   UNL     1       6.331   4.039  14.456  0.00  0.00    +0.000 C 
BRANCH  32  34
ATOM     33  C   UNL     1       6.063   3.210  12.095  0.00  0.00    +0.000 C 
ATOM     34  C   UNL     1       5.356   3.794  13.306  0.00  0.00    +0.000 C 
ENDBRANCH  32  34
ENDBRANCH  31  32
ENDBRANCH  30  31
ENDBRANCH   1  30
TORSDOF 7
ENDMDL
MODEL 3
REMARK VINA RESULT:      -7.8      5.298      7.771
REMARK  Name = 
REMARK  9 active torsions:
REMARK  status: ('A' for Active; 'I' for Inactive)
REMARK    1  A    between atoms: C_1  and  C_2
REMARK    2  A    between atoms: C_2  and  C_3
REMARK    3  A    between atoms: C_3  and  C_4
REMARK    4  A    between atoms: C_4  and  C_5
REMARK    5  A    between atoms: C_5  and  N_6
REMARK    6  A    between atoms: C_12  and  C_13
REMARK    7  A    between atoms: N_18  and  C_19
REMARK    8  A    between atoms: C_24  and  O_25
REMARK    9  A    between atoms: O_25  and  C_26
REMARK                            x       y       z     vdW  Elec       q    Type
REMARK                         _______ _______ _______ _____ _____    ______ ____
ROOT
ATOM      1  N   UNL     1       9.588  14.061  18.082  0.00  0.00    +0.000 N 
ATOM      2  C   UNL     1       8.712  13.062  17.683  0.00  0.00    +0.000 A 
ATOM      3  O   UNL     1       9.045  11.899  17.447  0.00  0.00    +0.000 OA
ATOM      4  N   UNL     1       7.390  13.414  17.561  0.00  0.00    +0.000 N 
ATOM      5  C   UNL     1       6.884  14.657  17.918  0.00  0.00    +0.000 A 
ATOM      6  C   UNL     1       5.513  14.917  17.829  0.00  0.00    +0.000 A 
ATOM      7  C   UNL     1       5.006  16.149  18.276  0.00  0.00    +0.000 A 
ATOM      8  C   UNL     1       5.878  17.076  18.862  0.00  0.00    +0.000 A 
ATOM      9  C   UNL     1       7.251  16.842  18.886  0.00  0.00    +0.000 A 
ATOM     10  C   UNL     1       7.747  15.629  18.408  0.00  0.00    +0.000 A 
ATOM     11  C   UNL     1       9.192  15.344  18.453  0.00  0.00    +0.000 A 
ATOM     12  O   UNL     1       9.956  16.234  18.820  0.00  0.00    +0.000 OA
ATOM     13  H   UNL     1       6.776  12.670  17.257  0.00  0.00    +0.000 HD
ENDROOT
BRANCH   7  14
ATOM     14  C   UNL     1       3.536  16.383  18.234  0.00  0.00    +0.000 C 
ATOM     15  O   UNL     1       3.119  17.131  17.351  0.00  0.00    +0.000 OA
ATOM     16  N   UNL     1       2.692  15.744  19.134  0.00  0.00    +0.000 N 
ATOM     17  C   UNL     1       1.241  15.749  18.894  0.00  0.00    +0.000 C 
ATOM     18  C   UNL     1       0.639  14.319  18.969  0.00  0.00    +0.000 C 
ATOM     19  N   UNL     1       1.063  13.661  20.220  0.00  0.00    +0.000 N 
ATOM     20  C   UNL     1       2.529  13.647  20.422  0.00  0.00    +0.000 C 
ATOM     21  C   UNL     1       3.056  15.095  20.403  0.00  0.00    +0.000 C 
BRANCH  19  22
ATOM     22  C   UNL     1       0.229  12.891  21.023  0.00  0.00    +0.000 A 
ATOM     23  C   UNL     1      -0.323  13.496  22.177  0.00  0.00    +0.000 A 
ATOM     24  C   UNL     1      -1.160  12.826  23.069  0.00  0.00    +0.000 A 
ATOM     25  C   UNL     1      -1.491  11.509  22.834  0.00  0.00    +0.000 A 
ATOM     26  C   UNL     1      -0.998  10.873  21.697  0.00  0.00    +0.000 A 
ATOM     27  C   UNL     1      -0.164  11.548  20.779  0.00  0.00    +0.000 A 
BRANCH  27  28
ATOM     28  O   UNL     1       0.331  10.900  19.668  0.00  0.00    +0.000 OA
ATOM     29  C   UNL     1       1.082   9.713  19.921  0.00  0.00    +0.000 C 
ENDBRANCH  27  28
ENDBRANCH  19  22
ENDBRANCH   7  14
BRANCH   1  30
ATOM     30  C   UNL     1      11.007  13.734  18.184  0.00  0.00    +0.000 C 
BRANCH  30  31
ATOM     31  C   UNL     1      11.472  13.586  19.635  0.00  0.00    +0.000 C 
BRANCH  31  32
ATOM     32  C   UNL     1      11.377  12.133  20.099  0.00  0.00    +0.000 C 
BRANCH  32  34
ATOM     33  C   UNL     1       9.337  10.755  20.621  0.00  0.00    +0.000 C 
ATOM     34  C   UNL     1      10.190  11.940  21.041  0.00  0.00    +0.000 C 
ENDBRANCH  32  34
ENDBRANCH  31  32
ENDBRANCH  30  31
ENDBRANCH   1  30
TORSDOF 7
ENDMDL
MODEL 4
REMARK VINA RESULT:      -7.7      1.291      1.644
REMARK  Name = 
REMARK  9 active torsions:
REMARK  status: ('A' for Active; 'I' for Inactive)
REMARK    1  A    between atoms: C_1  and  C_2
REMARK    2  A    between atoms: C_2  and  C_3
REMARK    3  A    between atoms: C_3  and  C_4
REMARK    4  A    between atoms: C_4  and  C_5
REMARK    5  A    between atoms: C_5  and  N_6
REMARK    6  A    between atoms: C_12  and  C_13
REMARK    7  A    between atoms: N_18  and  C_19
REMARK    8  A    between atoms: C_24  and  O_25
REMARK    9  A    between atoms: O_25  and  C_26
REMARK                            x       y       z     vdW  Elec       q    Type
REMARK                         _______ _______ _______ _____ _____    ______ ____
ROOT
ATOM      1  N   UNL     1       4.421   4.853  18.011  0.00  0.00    +0.000 N 
ATOM      2  C   UNL     1       4.103   4.529  19.323  0.00  0.00    +0.000 A 
ATOM      3  O   UNL     1       4.551   3.553  19.927  0.00  0.00    +0.000 OA
ATOM      4  N   UNL     1       3.236   5.373  19.972  0.00  0.00    +0.000 N 
ATOM      5  C   UNL     1       2.767   6.565  19.434  0.00  0.00    +0.000 A 
ATOM      6  C   UNL     1       1.940   7.406  20.187  0.00  0.00    +0.000 A 
ATOM      7  C   UNL     1       1.545   8.647  19.660  0.00  0.00    +0.000 A 
ATOM      8  C   UNL     1       2.037   9.049  18.411  0.00  0.00    +0.000 A 
ATOM      9  C   UNL     1       2.802   8.181  17.637  0.00  0.00    +0.000 A 
ATOM     10  C   UNL     1       3.160   6.937  18.155  0.00  0.00    +0.000 A 
ATOM     11  C   UNL     1       3.998   6.014  17.369  0.00  0.00    +0.000 A 
ATOM     12  O   UNL     1       4.282   6.318  16.213  0.00  0.00    +0.000 OA
ATOM     13  H   UNL     1       3.012   5.108  20.923  0.00  0.00    +0.000 HD
ENDROOT
BRANCH   7  14
ATOM     14  C   UNL     1       0.719   9.558  20.501  0.00  0.00    +0.000 C 
ATOM     15  O   UNL     1       0.297   9.101  21.563  0.00  0.00    +0.000 OA
ATOM     16  N   UNL     1       0.484  10.868  20.105  0.00  0.00    +0.000 N 
ATOM     17  C   UNL     1      -0.070  11.828  21.071  0.00  0.00    +0.000 C 
ATOM     18  C   UNL     1       0.769  13.134  21.133  0.00  0.00    +0.000 C 
ATOM     19  N   UNL     1       0.972  13.665  19.771  0.00  0.00    +0.000 N 
ATOM     20  C   UNL     1       1.556  12.686  18.828  0.00  0.00    +0.000 C 
ATOM     21  C   UNL     1       0.645  11.444  18.760  0.00  0.00    +0.000 C 
BRANCH  19  22
ATOM     22  C   UNL     1       0.885  15.011  19.433  0.00  0.00    +0.000 A 
ATOM     23  C   UNL     1      -0.282  15.452  18.765  0.00  0.00    +0.000 A 
ATOM     24  C   UNL     1      -0.482  16.772  18.361  0.00  0.00    +0.000 A 
ATOM     25  C   UNL     1       0.486  17.717  18.619  0.00  0.00    +0.000 A 
ATOM     26  C   UNL     1       1.643  17.343  19.299  0.00  0.00    +0.000 A 
ATOM     27  C   UNL     1       1.846  16.013  19.729  0.00  0.00    +0.000 A 
BRANCH  27  28
ATOM     28  O   UNL     1       3.005  15.654  20.384  0.00  0.00    +0.000 OA
ATOM     29  C   UNL     1       3.337  16.430  21.534  0.00  0.00    +0.000 C 
ENDBRANCH  27  28
ENDBRANCH  19  22
ENDBRANCH   7  14
BRANCH   1  30
ATOM     30  C   UNL     1       5.307   3.956  17.275  0.00  0.00    +0.000 C 
BRANCH  30  31
ATOM     31  C   UNL     1       6.597   4.646  16.825  0.00  0.00    +0.000 C 
BRANCH  31  32
ATOM     32  C   UNL     1       7.648   4.630  17.934  0.00  0.00    +0.000 C 
BRANCH  32  34
ATOM     33  C   UNL     1       7.779   7.141  18.052  0.00  0.00    +0.000 C 
ATOM     34  C   UNL     1       7.514   5.862  18.828  0.00  0.00    +0.000 C 
ENDBRANCH  32  34
ENDBRANCH  31  32
ENDBRANCH  30  31
ENDBRANCH   1  30
TORSDOF 7
ENDMDL
MODEL 5
REMARK VINA RESULT:      -7.7      2.592      4.166
REMARK  Name = 
REMARK  9 active torsions:
REMARK  status: ('A' for Active; 'I' for Inactive)
REMARK    1  A    between atoms: C_1  and  C_2
REMARK    2  A    between atoms: C_2  and  C_3
REMARK    3  A    between atoms: C_3  and  C_4
REMARK    4  A    between atoms: C_4  and  C_5
REMARK    5  A    between atoms: C_5  and  N_6
REMARK    6  A    between atoms: C_12  and  C_13
REMARK    7  A    between atoms: N_18  and  C_19
REMARK    8  A    between atoms: C_24  and  O_25
REMARK    9  A    between atoms: O_25  and  C_26
REMARK                            x       y       z     vdW  Elec       q    Type
REMARK                         _______ _______ _______ _____ _____    ______ ____
ROOT
ATOM      1  N   UNL     1       3.917   4.700  19.149  0.00  0.00    +0.000 N 
ATOM      2  C   UNL     1       4.235   5.349  17.964  0.00  0.00    +0.000 A 
ATOM      3  O   UNL     1       4.929   4.862  17.069  0.00  0.00    +0.000 OA
ATOM      4  N   UNL     1       3.723   6.612  17.797  0.00  0.00    +0.000 N 
ATOM      5  C   UNL     1       2.832   7.210  18.681  0.00  0.00    +0.000 A 
ATOM      6  C   UNL     1       2.302   8.474  18.405  0.00  0.00    +0.000 A 
ATOM      7  C   UNL     1       1.337   9.027  19.264  0.00  0.00    +0.000 A 
ATOM      8  C   UNL     1       0.877   8.273  20.353  0.00  0.00    +0.000 A 
ATOM      9  C   UNL     1       1.458   7.046  20.662  0.00  0.00    +0.000 A 
ATOM     10  C   UNL     1       2.440   6.521  19.821  0.00  0.00    +0.000 A 
ATOM     11  C   UNL     1       3.045   5.209  20.108  0.00  0.00    +0.000 A 
ATOM     12  O   UNL     1       2.745   4.640  21.155  0.00  0.00    +0.000 OA
ATOM     13  H   UNL     1       3.980   7.067  16.931  0.00  0.00    +0.000 HD
ENDROOT
BRANCH   7  14
ATOM     14  C   UNL     1       0.734  10.345  18.920  0.00  0.00    +0.000 C 
ATOM     15  O   UNL     1       0.599  10.596  17.724  0.00  0.00    +0.000 OA
ATOM     16  N   UNL     1       0.316  11.214  19.920  0.00  0.00    +0.000 N 
ATOM     17  C   UNL     1      -0.536  12.360  19.571  0.00  0.00    +0.000 C 
ATOM     18  C   UNL     1      -1.802  12.432  20.469  0.00  0.00    +0.000 C 
ATOM     19  N   UNL     1      -1.414  12.351  21.891  0.00  0.00    +0.000 N 
ATOM     20  C   UNL     1      -0.580  11.174  22.218  0.00  0.00    +0.000 C 
ATOM     21  C   UNL     1       0.690  11.194  21.343  0.00  0.00    +0.000 C 
BRANCH  19  22
ATOM     22  C   UNL     1      -1.968  13.130  22.901  0.00  0.00    +0.000 A 
ATOM     23  C   UNL     1      -1.129  14.064  23.553  0.00  0.00    +0.000 A 
ATOM     24  C   UNL     1      -1.561  14.891  24.590  0.00  0.00    +0.000 A 
ATOM     25  C   UNL     1      -2.869  14.823  25.015  0.00  0.00    +0.000 A 
ATOM     26  C   UNL     1      -3.747  13.940  24.388  0.00  0.00    +0.000 A 
ATOM     27  C   UNL     1      -3.323  13.112  23.326  0.00  0.00    +0.000 A 
BRANCH  27  28
ATOM     28  O   UNL     1      -4.198  12.230  22.728  0.00  0.00    +0.000 OA
ATOM     29  C   UNL     1      -5.361  12.809  22.138  0.00  0.00    +0.000 C 
ENDBRANCH  27  28
ENDBRANCH  19  22
ENDBRANCH   7  14
BRANCH   1  30
ATOM     30  C   UNL     1       4.476   3.371  19.379  0.00  0.00    +0.000 C 
BRANCH  30  31
ATOM     31  C   UNL     1       3.827   2.301  18.499  0.00  0.00    +0.000 C 
BRANCH  31  32
ATOM     32  C   UNL     1       2.521   1.799  19.113  0.00  0.00    +0.000 C 
BRANCH  32  34
ATOM     33  C   UNL     1       0.417   3.110  19.546  0.00  0.00    +0.000 C 
ATOM     34  C   UNL     1       1.319   2.502  18.486  0.00  0.00    +0.000 C 
ENDBRANCH  32  34
ENDBRANCH  31  32
ENDBRANCH  30  31
ENDBRANCH   1  30
TORSDOF 7
ENDMDL
MODEL 6
REMARK VINA RESULT:      -7.7      1.738      2.372
REMARK  Name = 
REMARK  9 active torsions:
REMARK  status: ('A' for Active; 'I' for Inactive)
REMARK    1  A    between atoms: C_1  and  C_2
REMARK    2  A    between atoms: C_2  and  C_3
REMARK    3  A    between atoms: C_3  and  C_4
REMARK    4  A    between atoms: C_4  and  C_5
REMARK    5  A    between atoms: C_5  and  N_6
REMARK    6  A    between atoms: C_12  and  C_13
REMARK    7  A    between atoms: N_18  and  C_19
REMARK    8  A    between atoms: C_24  and  O_25
REMARK    9  A    between atoms: O_25  and  C_26
REMARK                            x       y       z     vdW  Elec       q    Type
REMARK                         _______ _______ _______ _____ _____    ______ ____
ROOT
ATOM      1  N   UNL     1       5.037   5.325  17.777  0.00  0.00    +0.000 N 
ATOM      2  C   UNL     1       4.762   4.816  19.038  0.00  0.00    +0.000 A 
ATOM      3  O   UNL     1       5.384   3.892  19.566  0.00  0.00    +0.000 OA
ATOM      4  N   UNL     1       3.730   5.403  19.728  0.00  0.00    +0.000 N 
ATOM      5  C   UNL     1       3.043   6.527  19.285  0.00  0.00    +0.000 A 
ATOM      6  C   UNL     1       2.049   7.108  20.079  0.00  0.00    +0.000 A 
ATOM      7  C   UNL     1       1.425   8.294  19.655  0.00  0.00    +0.000 A 
ATOM      8  C   UNL     1       1.853   8.908  18.471  0.00  0.00    +0.000 A 
ATOM      9  C   UNL     1       2.793   8.290  17.651  0.00  0.00    +0.000 A 
ATOM     10  C   UNL     1       3.382   7.095  18.064  0.00  0.00    +0.000 A 
ATOM     11  C   UNL     1       4.404   6.439  17.230  0.00  0.00    +0.000 A 
ATOM     12  O   UNL     1       4.647   6.908  16.120  0.00  0.00    +0.000 OA
ATOM     13  H   UNL     1       3.543   5.005  20.639  0.00  0.00    +0.000 HD
ENDROOT
BRANCH   7  14
ATOM     14  C   UNL     1       0.415   8.934  20.544  0.00  0.00    +0.000 C 
ATOM     15  O   UNL     1      -0.102   8.219  21.400  0.00  0.00    +0.000 OA
ATOM     16  N   UNL     1       0.119  10.286  20.418  0.00  0.00    +0.000 N 
ATOM     17  C   UNL     1      -0.644  10.961  21.479  0.00  0.00    +0.000 C 
ATOM     18  C   UNL     1       0.059  12.261  21.957  0.00  0.00    +0.000 C 
ATOM     19  N   UNL     1       0.394  13.106  20.794  0.00  0.00    +0.000 N 
ATOM     20  C   UNL     1       1.185  12.409  19.755  0.00  0.00    +0.000 C 
ATOM     21  C   UNL     1       0.407  11.167  19.276  0.00  0.00    +0.000 C 
BRANCH  19  22
ATOM     22  C   UNL     1       0.233  14.487  20.755  0.00  0.00    +0.000 A 
ATOM     23  C   UNL     1      -0.730  15.017  19.864  0.00  0.00    +0.000 A 
ATOM     24  C   UNL     1      -0.975  16.382  19.722  0.00  0.00    +0.000 A 
ATOM     25  C   UNL     1      -0.263  17.284  20.482  0.00  0.00    +0.000 A 
ATOM     26  C   UNL     1       0.678  16.815  21.396  0.00  0.00    +0.000 A 
ATOM     27  C   UNL     1       0.920  15.434  21.560  0.00  0.00    +0.000 A 
BRANCH  27  28
ATOM     28  O   UNL     1       1.868  14.986  22.455  0.00  0.00    +0.000 OA
ATOM     29  C   UNL     1       3.228  15.131  22.049  0.00  0.00    +0.000 C 
ENDBRANCH  27  28
ENDBRANCH  19  22
ENDBRANCH   7  14
BRANCH   1  30
ATOM     30  C   UNL     1       6.101   4.699  16.997  0.00  0.00    +0.000 C 
BRANCH  30  31
ATOM     31  C   UNL     1       5.577   4.025  15.727  0.00  0.00    +0.000 C 
BRANCH  31  32
ATOM     32  C   UNL     1       6.587   4.135  14.586  0.00  0.00    +0.000 C 
BRANCH  32  34
ATOM     33  C   UNL     1       6.867   3.935  12.093  0.00  0.00    +0.000 C 
ATOM     34  C   UNL     1       6.009   3.567  13.291  0.00  0.00    +0.000 C 
ENDBRANCH  32  34
ENDBRANCH  31  32
ENDBRANCH  30  31
ENDBRANCH   1  30
TORSDOF 7
ENDMDL
MODEL 7
REMARK VINA RESULT:      -7.6      2.311      3.346
REMARK  Name = 
REMARK  9 active torsions:
REMARK  status: ('A' for Active; 'I' for Inactive)
REMARK    1  A    between atoms: C_1  and  C_2
REMARK    2  A    between atoms: C_2  and  C_3
REMARK    3  A    between atoms: C_3  and  C_4
REMARK    4  A    between atoms: C_4  and  C_5
REMARK    5  A    between atoms: C_5  and  N_6
REMARK    6  A    between atoms: C_12  and  C_13
REMARK    7  A    between atoms: N_18  and  C_19
REMARK    8  A    between atoms: C_24  and  O_25
REMARK    9  A    between atoms: O_25  and  C_26
REMARK                            x       y       z     vdW  Elec       q    Type
REMARK                         _______ _______ _______ _____ _____    ______ ____
ROOT
ATOM      1  N   UNL     1       6.081   4.974  16.147  0.00  0.00    +0.000 N 
ATOM      2  C   UNL     1       6.554   6.165  16.680  0.00  0.00    +0.000 A 
ATOM      3  O   UNL     1       7.614   6.702  16.351  0.00  0.00    +0.000 OA
ATOM      4  N   UNL     1       5.766   6.771  17.627  0.00  0.00    +0.000 N 
ATOM      5  C   UNL     1       4.500   6.323  17.983  0.00  0.00    +0.000 A 
ATOM      6  C   UNL     1       3.730   7.036  18.908  0.00  0.00    +0.000 A 
ATOM      7  C   UNL     1       2.419   6.618  19.192  0.00  0.00    +0.000 A 
ATOM      8  C   UNL     1       1.883   5.526  18.497  0.00  0.00    +0.000 A 
ATOM      9  C   UNL     1       2.675   4.779  17.629  0.00  0.00    +0.000 A 
ATOM     10  C   UNL     1       3.986   5.182  17.380  0.00  0.00    +0.000 A 
ATOM     11  C   UNL     1       4.834   4.428  16.440  0.00  0.00    +0.000 A 
ATOM     12  O   UNL     1       4.398   3.381  15.966  0.00  0.00    +0.000 OA
ATOM     13  H   UNL     1       6.140   7.631  18.008  0.00  0.00    +0.000 HD
ENDROOT
BRANCH   7  14
ATOM     14  C   UNL     1       1.591   7.426  20.130  0.00  0.00    +0.000 C 
ATOM     15  O   UNL     1       1.327   6.915  21.218  0.00  0.00    +0.000 OA
ATOM     16  N   UNL     1       1.183   8.709  19.787  0.00  0.00    +0.000 N 
ATOM     17  C   UNL     1       0.631   9.594  20.824  0.00  0.00    +0.000 C 
ATOM     18  C   UNL     1       1.332  10.981  20.832  0.00  0.00    +0.000 C 
ATOM     19  N   UNL     1       1.343  11.546  19.468  0.00  0.00    +0.000 N 
ATOM     20  C   UNL     1       1.928  10.644  18.451  0.00  0.00    +0.000 C 
ATOM     21  C   UNL     1       1.149   9.314  18.446  0.00  0.00    +0.000 C 
BRANCH  19  22
ATOM     22  C   UNL     1       1.083  12.878  19.169  0.00  0.00    +0.000 A 
ATOM     23  C   UNL     1       2.187  13.733  18.939  0.00  0.00    +0.000 A 
ATOM     24  C   UNL     1       2.059  15.090  18.646  0.00  0.00    +0.000 A 
ATOM     25  C   UNL     1       0.804  15.653  18.562  0.00  0.00    +0.000 A 
ATOM     26  C   UNL     1      -0.319  14.851  18.752  0.00  0.00    +0.000 A 
ATOM     27  C   UNL     1      -0.199  13.472  19.031  0.00  0.00    +0.000 A 
BRANCH  27  28
ATOM     28  O   UNL     1      -1.320  12.696  19.236  0.00  0.00    +0.000 OA
ATOM     29  C   UNL     1      -2.250  13.184  20.201  0.00  0.00    +0.000 C 
ENDBRANCH  27  28
ENDBRANCH  19  22
ENDBRANCH   7  14
BRANCH   1  30
ATOM     30  C   UNL     1       6.911   4.280  15.166  0.00  0.00    +0.000 C 
BRANCH  30  31
ATOM     31  C   UNL     1       6.405   4.465  13.734  0.00  0.00    +0.000 C 
BRANCH  31  32
ATOM     32  C   UNL     1       6.239   3.120  13.028  0.00  0.00    +0.000 C 
BRANCH  32  34
ATOM     33  C   UNL     1       4.208   3.342  11.558  0.00  0.00    +0.000 C 
ATOM     34  C   UNL     1       5.726   3.314  11.602  0.00  0.00    +0.000 C 
ENDBRANCH  32  34
ENDBRANCH  31  32
ENDBRANCH  30  31
ENDBRANCH   1  30
TORSDOF 7
ENDMDL
MODEL 8
REMARK VINA RESULT:      -7.6      2.370      4.218
REMARK  Name = 
REMARK  9 active torsions:
REMARK  status: ('A' for Active; 'I' for Inactive)
REMARK    1  A    between atoms: C_1  and  C_2
REMARK    2  A    between atoms: C_2  and  C_3
REMARK    3  A    between atoms: C_3  and  C_4
REMARK    4  A    between atoms: C_4  and  C_5
REMARK    5  A    between atoms: C_5  and  N_6
REMARK    6  A    between atoms: C_12  and  C_13
REMARK    7  A    between atoms: N_18  and  C_19
REMARK    8  A    between atoms: C_24  and  O_25
REMARK    9  A    between atoms: O_25  and  C_26
REMARK                            x       y       z     vdW  Elec       q    Type
REMARK                         _______ _______ _______ _____ _____    ______ ____
ROOT
ATOM      1  N   UNL     1       3.988   4.792  18.794  0.00  0.00    +0.000 N 
ATOM      2  C   UNL     1       4.137   5.412  17.562  0.00  0.00    +0.000 A 
ATOM      3  O   UNL     1       4.727   4.916  16.600  0.00  0.00    +0.000 OA
ATOM      4  N   UNL     1       3.574   6.657  17.427  0.00  0.00    +0.000 N 
ATOM      5  C   UNL     1       2.784   7.260  18.398  0.00  0.00    +0.000 A 
ATOM      6  C   UNL     1       2.188   8.502  18.158  0.00  0.00    +0.000 A 
ATOM      7  C   UNL     1       1.323   9.057  19.116  0.00  0.00    +0.000 A 
ATOM      8  C   UNL     1       1.024   8.326  20.273  0.00  0.00    +0.000 A 
ATOM      9  C   UNL     1       1.673   7.122  20.540  0.00  0.00    +0.000 A 
ATOM     10  C   UNL     1       2.556   6.597  19.597  0.00  0.00    +0.000 A 
ATOM     11  C   UNL     1       3.229   5.309  19.841  0.00  0.00    +0.000 A 
ATOM     12  O   UNL     1       3.078   4.764  20.932  0.00  0.00    +0.000 OA
ATOM     13  H   UNL     1       3.708   7.092  16.523  0.00  0.00    +0.000 HD
ENDROOT
BRANCH   7  14
ATOM     14  C   UNL     1       0.646  10.349  18.815  0.00  0.00    +0.000 C 
ATOM     15  O   UNL     1       0.422  10.593  17.630  0.00  0.00    +0.000 OA
ATOM     16  N   UNL     1       0.261  11.201  19.842  0.00  0.00    +0.000 N 
ATOM     17  C   UNL     1      -0.659  12.312  19.553  0.00  0.00    +0.000 C 
ATOM     18  C   UNL     1      -1.864  12.333  20.533  0.00  0.00    +0.000 C 
ATOM     19  N   UNL     1      -1.380  12.269  21.926  0.00  0.00    +0.000 N 
ATOM     20  C   UNL     1      -0.478  11.127  22.194  0.00  0.00    +0.000 C 
ATOM     21  C   UNL     1       0.728  11.199  21.237  0.00  0.00    +0.000 C 
BRANCH  19  22
ATOM     22  C   UNL     1      -1.896  13.026  22.971  0.00  0.00    +0.000 A 
ATOM     23  C   UNL     1      -3.136  12.629  23.527  0.00  0.00    +0.000 A 
ATOM     24  C   UNL     1      -3.764  13.313  24.567  0.00  0.00    +0.000 A 
ATOM     25  C   UNL     1      -3.166  14.431  25.107  0.00  0.00    +0.000 A 
ATOM     26  C   UNL     1      -1.931  14.849  24.616  0.00  0.00    +0.000 A 
ATOM     27  C   UNL     1      -1.279  14.153  23.575  0.00  0.00    +0.000 A 
BRANCH  27  28
ATOM     28  O   UNL     1      -0.066  14.590  23.088  0.00  0.00    +0.000 OA
ATOM     29  C   UNL     1      -0.110  15.741  22.246  0.00  0.00    +0.000 C 
ENDBRANCH  27  28
ENDBRANCH  19  22
ENDBRANCH   7  14
BRANCH   1  30
ATOM     30  C   UNL     1       4.608   3.485  18.988  0.00  0.00    +0.000 C 
BRANCH  30  31
ATOM     31  C   UNL     1       3.622   2.332  18.785  0.00  0.00    +0.000 C 
BRANCH  31  32
ATOM     32  C   UNL     1       2.388   2.791  18.009  0.00  0.00    +0.000 C 
BRANCH  32  34
ATOM     33  C   UNL     1       0.726   2.885  19.896  0.00  0.00    +0.000 C 
ATOM     34  C   UNL     1       1.117   2.189  18.604  0.00  0.00    +0.000 C 
ENDBRANCH  32  34
ENDBRANCH  31  32
ENDBRANCH  30  31
ENDBRANCH   1  30
TORSDOF 7
ENDMDL
MODEL 9
REMARK VINA RESULT:      -7.5      1.680      2.451
REMARK  Name = 
REMARK  9 active torsions:
REMARK  status: ('A' for Active; 'I' for Inactive)
REMARK    1  A    between atoms: C_1  and  C_2
REMARK    2  A    between atoms: C_2  and  C_3
REMARK    3  A    between atoms: C_3  and  C_4
REMARK    4  A    between atoms: C_4  and  C_5
REMARK    5  A    between atoms: C_5  and  N_6
REMARK    6  A    between atoms: C_12  and  C_13
REMARK    7  A    between atoms: N_18  and  C_19
REMARK    8  A    between atoms: C_24  and  O_25
REMARK    9  A    between atoms: O_25  and  C_26
REMARK                            x       y       z     vdW  Elec       q    Type
REMARK                         _______ _______ _______ _____ _____    ______ ____
ROOT
ATOM      1  N   UNL     1       3.039   5.081  19.005  0.00  0.00    +0.000 N 
ATOM      2  C   UNL     1       2.634   4.930  20.324  0.00  0.00    +0.000 A 
ATOM      3  O   UNL     1       2.825   3.917  20.999  0.00  0.00    +0.000 OA
ATOM      4  N   UNL     1       1.988   5.999  20.895  0.00  0.00    +0.000 N 
ATOM      5  C   UNL     1       1.828   7.230  20.272  0.00  0.00    +0.000 A 
ATOM      6  C   UNL     1       1.218   8.293  20.947  0.00  0.00    +0.000 A 
ATOM      7  C   UNL     1       1.142   9.555  20.335  0.00  0.00    +0.000 A 
ATOM      8  C   UNL     1       1.733   9.744  19.079  0.00  0.00    +0.000 A 
ATOM      9  C   UNL     1       2.277   8.668  18.382  0.00  0.00    +0.000 A 
ATOM     10  C   UNL     1       2.317   7.411  18.985  0.00  0.00    +0.000 A 
ATOM     11  C   UNL     1       2.917   6.264  18.281  0.00  0.00    +0.000 A 
ATOM     12  O   UNL     1       3.283   6.414  17.118  0.00  0.00    +0.000 OA
ATOM     13  H   UNL     1       1.693   5.859  21.853  0.00  0.00    +0.000 HD
ENDROOT
BRANCH   7  14
ATOM     14  C   UNL     1       0.548  10.691  21.094  0.00  0.00    +0.000 C 
ATOM     15  O   UNL     1       0.352  10.511  22.295  0.00  0.00    +0.000 OA
ATOM     16  N   UNL     1       0.277  11.898  20.464  0.00  0.00    +0.000 N 
ATOM     17  C   UNL     1      -0.023  13.087  21.276  0.00  0.00    +0.000 C 
ATOM     18  C   UNL     1       0.853  14.303  20.864  0.00  0.00    +0.000 C 
ATOM     19  N   UNL     1       0.774  14.507  19.404  0.00  0.00    +0.000 N 
ATOM     20  C   UNL     1       1.106  13.302  18.613  0.00  0.00    +0.000 C 
ATOM     21  C   UNL     1       0.162  12.153  19.019  0.00  0.00    +0.000 C 
BRANCH  19  22
ATOM     22  C   UNL     1       0.660  15.749  18.791  0.00  0.00    +0.000 A 
ATOM     23  C   UNL     1      -0.634  16.301  18.646  0.00  0.00    +0.000 A 
ATOM     24  C   UNL     1      -0.880  17.531  18.037  0.00  0.00    +0.000 A 
ATOM     25  C   UNL     1       0.173  18.272  17.548  0.00  0.00    +0.000 A 
ATOM     26  C   UNL     1       1.472  17.789  17.690  0.00  0.00    +0.000 A 
ATOM     27  C   UNL     1       1.733  16.553  18.322  0.00  0.00    +0.000 A 
BRANCH  27  28
ATOM     28  O   UNL     1       3.022  16.080  18.437  0.00  0.00    +0.000 OA
ATOM     29  C   UNL     1       3.802  16.643  19.490  0.00  0.00    +0.000 C 
ENDBRANCH  27  28
ENDBRANCH  19  22
ENDBRANCH   7  14
BRANCH   1  30
ATOM     30  C   UNL     1       3.692   3.950  18.351  0.00  0.00    +0.000 C 
BRANCH  30  31
ATOM     31  C   UNL     1       5.218   4.030  18.432  0.00  0.00    +0.000 C 
BRANCH  31  32
ATOM     32  C   UNL     1       5.841   4.126  17.039  0.00  0.00    +0.000 C 
BRANCH  32  34
ATOM     33  C   UNL     1       7.026   6.246  17.695  0.00  0.00    +0.000 C 
ATOM     34  C   UNL     1       7.179   4.861  17.091  0.00  0.00    +0.000 C 
ENDBRANCH  32  34
ENDBRANCH  31  32
ENDBRANCH  30  31
ENDBRANCH   1  30
TORSDOF 7
ENDMDL
