MODEL 1
REMARK VINA RESULT:      -9.3      0.000      0.000
REMARK  Name = 
REMARK  7 active torsions:
REMARK  status: ('A' for Active; 'I' for Inactive)
REMARK    1  A    between atoms: C_2  and  C_11
REMARK    2  A    between atoms: N_3  and  C_4
REMARK    3  A    between atoms: C_4  and  C_5
REMARK    4  A    between atoms: C_14  and  C_15
REMARK    5  A    between atoms: C_15  and  C_16
REMARK    6  A    between atoms: N_19  and  C_20
REMARK    7  A    between atoms: C_20  and  C_21
REMARK                            x       y       z     vdW  Elec       q    Type
REMARK                         _______ _______ _______ _____ _____    ______ ____
ROOT
ATOM      1  C   UNL     1       1.668   8.394  19.165  0.00  0.00    +0.000 A 
ATOM      2  C   UNL     1       2.496   7.404  18.617  0.00  0.00    +0.000 A 
ATOM      3  C   UNL     1       2.727   6.193  19.313  0.00  0.00    +0.000 A 
ATOM      4  C   UNL     1       2.153   5.970  20.573  0.00  0.00    +0.000 A 
ATOM      5  C   UNL     1       1.357   6.996  21.085  0.00  0.00    +0.000 A 
ATOM      6  C   UNL     1       1.104   8.181  20.403  0.00  0.00    +0.000 A 
ENDROOT
BRANCH   1   8
ATOM      7  O   UNL     1       2.015  10.189  17.679  0.00  0.00    +0.000 OA
ATOM      8  C   UNL     1       1.296   9.676  18.489  0.00  0.00    +0.000 C 
ATOM      9  N   UNL     1       0.070  10.173  18.891  0.00  0.00    +0.000 N 
ATOM     10  H   UNL     1      -0.313   9.839  19.764  0.00  0.00    +0.000 HD
BRANCH   9  11
ATOM     11  C   UNL     1      -0.390  11.444  18.384  0.00  0.00    +0.000 C 
BRANCH  11  12
ATOM     12  C   UNL     1      -1.848  11.387  18.018  0.00  0.00    +0.000 A 
ATOM     13  C   UNL     1      -2.853  11.877  18.865  0.00  0.00    +0.000 A 
ATOM     14  C   UNL     1      -4.198  11.709  18.533  0.00  0.00    +0.000 A 
ATOM     15  C   UNL     1      -4.544  11.104  17.330  0.00  0.00    +0.000 A 
ATOM     16  C   UNL     1      -3.554  10.679  16.447  0.00  0.00    +0.000 A 
ATOM     17  C   UNL     1      -2.213  10.813  16.792  0.00  0.00    +0.000 A 
ENDBRANCH  11  12
ENDBRANCH   9  11
ENDBRANCH   1   8
BRANCH   4  18
ATOM     18  C   UNL     1       2.276   4.685  21.365  0.00  0.00    +0.000 C 
BRANCH  18  19
ATOM     19  C   UNL     1       2.037   3.267  20.740  0.00  0.00    +0.000 C 
ATOM     20  C   UNL     1       3.268   2.494  20.275  0.00  0.00    +0.000 C 
ATOM     21  C   UNL     1       3.721   2.824  18.856  0.00  0.00    +0.000 C 
ATOM     22  N   UNL     1       2.700   2.854  17.798  0.00  0.00    +0.000 NA
ATOM     23  C   UNL     1       1.349   3.279  18.195  0.00  0.00    +0.000 C 
ATOM     24  C   UNL     1       0.940   3.088  19.680  0.00  0.00    +0.000 C 
BRANCH  22  25
ATOM     25  C   UNL     1       3.300   3.558  16.618  0.00  0.00    +0.000 C 
BRANCH  25  26
ATOM     26  C   UNL     1       4.774   3.886  16.684  0.00  0.00    +0.000 A 
ATOM     27  C   UNL     1       5.625   3.664  15.576  0.00  0.00    +0.000 A 
ATOM     28  C   UNL     1       6.814   4.384  15.451  0.00  0.00    +0.000 A 
ATOM     29  C   UNL     1       7.069   5.307  16.440  0.00  0.00    +0.000 A 
ATOM     30  C   UNL     1       6.391   5.307  17.639  0.00  0.00    +0.000 A 
ATOM     31  C   UNL     1       5.255   4.569  17.812  0.00  0.00    +0.000 A 
ATOM     32  O   UNL     1       6.707   6.389  18.411  0.00  0.00    +0.000 OA
ATOM     33  C   UNL     1       7.086   7.249  17.325  0.00  0.00    +0.000 C 
ATOM     34  O   UNL     1       7.738   6.494  16.274  0.00  0.00    +0.000 OA
ENDBRANCH  25  26
ENDBRANCH  22  25
ENDBRANCH  18  19
ENDBRANCH   4  18
TORSDOF 7
ENDMDL
MODEL 2
REMARK VINA RESULT:      -9.2      1.739      2.834
REMARK  Name = 
REMARK  7 active torsions:
REMARK  status: ('A' for Active; 'I' for Inactive)
REMARK    1  A    between atoms: C_2  and  C_11
REMARK    2  A    between atoms: N_3  and  C_4
REMARK    3  A    between atoms: C_4  and  C_5
REMARK    4  A    between atoms: C_14  and  C_15
REMARK    5  A    between atoms: C_15  and  C_16
REMARK    6  A    between atoms: N_19  and  C_20
REMARK    7  A    between atoms: C_20  and  C_21
REMARK                            x       y       z     vdW  Elec       q    Type
REMARK                         _______ _______ _______ _____ _____    ______ ____
ROOT
ATOM      1  C   UNL     1       1.620   8.843  19.075  0.00  0.00    +0.000 A 
ATOM      2  C   UNL     1       2.373   7.797  18.523  0.00  0.00    +0.000 A 
ATOM      3  C   UNL     1       2.572   6.595  19.243  0.00  0.00    +0.000 A 
ATOM      4  C   UNL     1       2.041   6.436  20.532  0.00  0.00    +0.000 A 
ATOM      5  C   UNL     1       1.320   7.515  21.046  0.00  0.00    +0.000 A 
ATOM      6  C   UNL     1       1.098   8.692  20.341  0.00  0.00    +0.000 A 
ENDROOT
BRANCH   1   8
ATOM      7  O   UNL     1       1.986  10.571  17.516  0.00  0.00    +0.000 OA
ATOM      8  C   UNL     1       1.284  10.124  18.378  0.00  0.00    +0.000 C 
ATOM      9  N   UNL     1       0.110  10.701  18.826  0.00  0.00    +0.000 N 
ATOM     10  H   UNL     1      -0.243  10.415  19.728  0.00  0.00    +0.000 HD
BRANCH   9  11
ATOM     11  C   UNL     1      -0.304  11.981  18.303  0.00  0.00    +0.000 C 
BRANCH  11  12
ATOM     12  C   UNL     1       0.009  13.090  19.270  0.00  0.00    +0.000 A 
ATOM     13  C   UNL     1       0.215  14.413  18.852  0.00  0.00    +0.000 A 
ATOM     14  C   UNL     1       0.606  15.389  19.769  0.00  0.00    +0.000 A 
ATOM     15  C   UNL     1       0.738  15.063  21.114  0.00  0.00    +0.000 A 
ATOM     16  C   UNL     1       0.466  13.769  21.553  0.00  0.00    +0.000 A 
ATOM     17  C   UNL     1       0.110  12.786  20.635  0.00  0.00    +0.000 A 
ENDBRANCH  11  12
ENDBRANCH   9  11
ENDBRANCH   1   8
BRANCH   4  18
ATOM     18  C   UNL     1       2.134   5.167  21.355  0.00  0.00    +0.000 C 
BRANCH  18  19
ATOM     19  C   UNL     1       1.443   3.824  20.938  0.00  0.00    +0.000 C 
ATOM     20  C   UNL     1       2.233   2.537  21.158  0.00  0.00    +0.000 C 
ATOM     21  C   UNL     1       3.178   2.174  20.017  0.00  0.00    +0.000 C 
ATOM     22  N   UNL     1       2.651   2.228  18.645  0.00  0.00    +0.000 NA
ATOM     23  C   UNL     1       1.615   3.237  18.374  0.00  0.00    +0.000 C 
ATOM     24  C   UNL     1       0.754   3.726  19.569  0.00  0.00    +0.000 C 
BRANCH  22  25
ATOM     25  C   UNL     1       3.827   2.214  17.714  0.00  0.00    +0.000 C 
BRANCH  25  26
ATOM     26  C   UNL     1       4.482   3.541  17.406  0.00  0.00    +0.000 A 
ATOM     27  C   UNL     1       5.299   4.193  18.358  0.00  0.00    +0.000 A 
ATOM     28  C   UNL     1       6.262   5.114  17.942  0.00  0.00    +0.000 A 
ATOM     29  C   UNL     1       6.364   5.309  16.582  0.00  0.00    +0.000 A 
ATOM     30  C   UNL     1       5.388   4.893  15.704  0.00  0.00    +0.000 A 
ATOM     31  C   UNL     1       4.398   4.036  16.096  0.00  0.00    +0.000 A 
ATOM     32  O   UNL     1       5.759   5.064  14.400  0.00  0.00    +0.000 OA
ATOM     33  C   UNL     1       7.175   4.998  14.633  0.00  0.00    +0.000 C 
ATOM     34  O   UNL     1       7.517   5.609  15.901  0.00  0.00    +0.000 OA
ENDBRANCH  25  26
ENDBRANCH  22  25
ENDBRANCH  18  19
ENDBRANCH   4  18
TORSDOF 7
ENDMDL
MODEL 3
REMARK VINA RESULT:      -9.2      1.267      1.878
REMARK  Name = 
REMARK  7 active torsions:
REMARK  status: ('A' for Active; 'I' for Inactive)
REMARK    1  A    between atoms: C_2  and  C_11
REMARK    2  A    between atoms: N_3  and  C_4
REMARK    3  A    between atoms: C_4  and  C_5
REMARK    4  A    between atoms: C_14  and  C_15
REMARK    5  A    between atoms: C_15  and  C_16
REMARK    6  A    between atoms: N_19  and  C_20
REMARK    7  A    between atoms: C_20  and  C_21
REMARK                            x       y       z     vdW  Elec       q    Type
REMARK                         _______ _______ _______ _____ _____    ______ ____
ROOT
ATOM      1  C   UNL     1       0.580   9.449  20.037  0.00  0.00    +0.000 A 
ATOM      2  C   UNL     1       1.494   8.892  19.133  0.00  0.00    +0.000 A 
ATOM      3  C   UNL     1       2.146   7.671  19.429  0.00  0.00    +0.000 A 
ATOM      4  C   UNL     1       1.909   7.007  20.642  0.00  0.00    +0.000 A 
ATOM      5  C   UNL     1       1.008   7.616  21.518  0.00  0.00    +0.000 A 
ATOM      6  C   UNL     1       0.345   8.803  21.231  0.00  0.00    +0.000 A 
ENDROOT
BRANCH   1   8
ATOM      7  O   UNL     1      -0.715  11.302  20.703  0.00  0.00    +0.000 OA
ATOM      8  C   UNL     1      -0.219  10.692  19.798  0.00  0.00    +0.000 C 
ATOM      9  N   UNL     1      -0.306  11.040  18.463  0.00  0.00    +0.000 N 
ATOM     10  H   UNL     1      -0.114  10.326  17.775  0.00  0.00    +0.000 HD
BRANCH   9  11
ATOM     11  C   UNL     1      -1.110  12.172  18.068  0.00  0.00    +0.000 C 
BRANCH  11  12
ATOM     12  C   UNL     1      -2.534  11.762  17.808  0.00  0.00    +0.000 A 
ATOM     13  C   UNL     1      -2.938  11.184  16.595  0.00  0.00    +0.000 A 
ATOM     14  C   UNL     1      -4.286  10.916  16.357  0.00  0.00    +0.000 A 
ATOM     15  C   UNL     1      -5.228  11.170  17.347  0.00  0.00    +0.000 A 
ATOM     16  C   UNL     1      -4.831  11.677  18.582  0.00  0.00    +0.000 A 
ATOM     17  C   UNL     1      -3.492  11.978  18.810  0.00  0.00    +0.000 A 
ENDBRANCH  11  12
ENDBRANCH   9  11
ENDBRANCH   1   8
BRANCH   4  18
ATOM     18  C   UNL     1       2.495   5.664  21.022  0.00  0.00    +0.000 C 
BRANCH  18  19
ATOM     19  C   UNL     1       1.745   4.307  20.798  0.00  0.00    +0.000 C 
ATOM     20  C   UNL     1       2.586   3.034  20.812  0.00  0.00    +0.000 C 
ATOM     21  C   UNL     1       3.216   2.679  19.469  0.00  0.00    +0.000 C 
ATOM     22  N   UNL     1       2.356   2.716  18.276  0.00  0.00    +0.000 NA
ATOM     23  C   UNL     1       1.269   3.707  18.275  0.00  0.00    +0.000 C 
ATOM     24  C   UNL     1       0.732   4.189  19.649  0.00  0.00    +0.000 C 
BRANCH  22  25
ATOM     25  C   UNL     1       3.257   2.714  17.077  0.00  0.00    +0.000 C 
BRANCH  25  26
ATOM     26  C   UNL     1       4.176   3.902  16.900  0.00  0.00    +0.000 A 
ATOM     27  C   UNL     1       3.783   5.199  17.302  0.00  0.00    +0.000 A 
ATOM     28  C   UNL     1       4.749   6.164  17.595  0.00  0.00    +0.000 A 
ATOM     29  C   UNL     1       6.061   5.759  17.487  0.00  0.00    +0.000 A 
ATOM     30  C   UNL     1       6.423   4.605  16.829  0.00  0.00    +0.000 A 
ATOM     31  C   UNL     1       5.493   3.666  16.478  0.00  0.00    +0.000 A 
ATOM     32  O   UNL     1       7.754   4.328  16.965  0.00  0.00    +0.000 OA
ATOM     33  C   UNL     1       7.930   5.025  18.209  0.00  0.00    +0.000 C 
ATOM     34  O   UNL     1       7.104   6.214  18.254  0.00  0.00    +0.000 OA
ENDBRANCH  25  26
ENDBRANCH  22  25
ENDBRANCH  18  19
ENDBRANCH   4  18
TORSDOF 7
ENDMDL
MODEL 4
REMARK VINA RESULT:      -9.2      1.124      1.691
REMARK  Name = 
REMARK  7 active torsions:
REMARK  status: ('A' for Active; 'I' for Inactive)
REMARK    1  A    between atoms: C_2  and  C_11
REMARK    2  A    between atoms: N_3  and  C_4
REMARK    3  A    between atoms: C_4  and  C_5
REMARK    4  A    between atoms: C_14  and  C_15
REMARK    5  A    between atoms: C_15  and  C_16
REMARK    6  A    between atoms: N_19  and  C_20
REMARK    7  A    between atoms: C_20  and  C_21
REMARK                            x       y       z     vdW  Elec       q    Type
REMARK                         _______ _______ _______ _____ _____    ______ ____
ROOT
ATOM      1  C   UNL     1       1.193   8.985  19.488  0.00  0.00    +0.000 A 
ATOM      2  C   UNL     1       2.088   8.129  18.831  0.00  0.00    +0.000 A 
ATOM      3  C   UNL     1       2.473   6.901  19.420  0.00  0.00    +0.000 A 
ATOM      4  C   UNL     1       1.985   6.527  20.682  0.00  0.00    +0.000 A 
ATOM      5  C   UNL     1       1.116   7.425  21.304  0.00  0.00    +0.000 A 
ATOM      6  C   UNL     1       0.714   8.624  20.728  0.00  0.00    +0.000 A 
ENDROOT
BRANCH   1   8
ATOM      7  O   UNL     1       0.878  10.596  17.798  0.00  0.00    +0.000 OA
ATOM      8  C   UNL     1       0.663  10.269  18.930  0.00  0.00    +0.000 C 
ATOM      9  N   UNL     1      -0.081  10.997  19.841  0.00  0.00    +0.000 N 
ATOM     10  H   UNL     1       0.038  10.790  20.822  0.00  0.00    +0.000 HD
BRANCH   9  11
ATOM     11  C   UNL     1      -0.594  12.295  19.472  0.00  0.00    +0.000 C 
BRANCH  11  12
ATOM     12  C   UNL     1      -2.084  12.252  19.267  0.00  0.00    +0.000 A 
ATOM     13  C   UNL     1      -2.984  12.786  20.202  0.00  0.00    +0.000 A 
ATOM     14  C   UNL     1      -4.358  12.632  20.023  0.00  0.00    +0.000 A 
ATOM     15  C   UNL     1      -4.842  11.995  18.885  0.00  0.00    +0.000 A 
ATOM     16  C   UNL     1      -3.960  11.525  17.914  0.00  0.00    +0.000 A 
ATOM     17  C   UNL     1      -2.588  11.646  18.107  0.00  0.00    +0.000 A 
ENDBRANCH  11  12
ENDBRANCH   9  11
ENDBRANCH   1   8
BRANCH   4  18
ATOM     18  C   UNL     1       2.274   5.206  21.365  0.00  0.00    +0.000 C 
BRANCH  18  19
ATOM     19  C   UNL     1       1.560   3.867  20.977  0.00  0.00    +0.000 C 
ATOM     20  C   UNL     1       2.346   2.574  21.177  0.00  0.00    +0.000 C 
ATOM     21  C   UNL     1       3.251   2.199  20.008  0.00  0.00    +0.000 C 
ATOM     22  N   UNL     1       2.680   2.251  18.653  0.00  0.00    +0.000 NA
ATOM     23  C   UNL     1       1.644   3.267  18.411  0.00  0.00    +0.000 C 
ATOM     24  C   UNL     1       0.826   3.768  19.631  0.00  0.00    +0.000 C 
BRANCH  22  25
ATOM     25  C   UNL     1       3.825   2.222  17.685  0.00  0.00    +0.000 C 
BRANCH  25  26
ATOM     26  C   UNL     1       4.478   3.543  17.347  0.00  0.00    +0.000 A 
ATOM     27  C   UNL     1       5.281   4.226  18.290  0.00  0.00    +0.000 A 
ATOM     28  C   UNL     1       6.244   5.139  17.858  0.00  0.00    +0.000 A 
ATOM     29  C   UNL     1       6.363   5.295  16.495  0.00  0.00    +0.000 A 
ATOM     30  C   UNL     1       5.399   4.850  15.617  0.00  0.00    +0.000 A 
ATOM     31  C   UNL     1       4.409   4.000  16.022  0.00  0.00    +0.000 A 
ATOM     32  O   UNL     1       5.786   4.984  14.314  0.00  0.00    +0.000 OA
ATOM     33  C   UNL     1       7.199   4.932  14.566  0.00  0.00    +0.000 C 
ATOM     34  O   UNL     1       7.523   5.581  15.820  0.00  0.00    +0.000 OA
ENDBRANCH  25  26
ENDBRANCH  22  25
ENDBRANCH  18  19
ENDBRANCH   4  18
TORSDOF 7
ENDMDL
MODEL 5
REMARK VINA RESULT:      -9.1      6.184     10.324
REMARK  Name = 
REMARK  7 active torsions:
REMARK  status: ('A' for Active; 'I' for Inactive)
REMARK    1  A    between atoms: C_2  and  C_11
REMARK    2  A    between atoms: N_3  and  C_4
REMARK    3  A    between atoms: C_4  and  C_5
REMARK    4  A    between atoms: C_14  and  C_15
REMARK    5  A    between atoms: C_15  and  C_16
REMARK    6  A    between atoms: N_19  and  C_20
REMARK    7  A    between atoms: C_20  and  C_21
REMARK                            x       y       z     vdW  Elec       q    Type
REMARK                         _______ _______ _______ _____ _____    ______ ____
ROOT
ATOM      1  C   UNL     1       7.162   6.374  17.522  0.00  0.00    +0.000 A 
ATOM      2  C   UNL     1       6.976   7.618  16.902  0.00  0.00    +0.000 A 
ATOM      3  C   UNL     1       7.605   8.778  17.414  0.00  0.00    +0.000 A 
ATOM      4  C   UNL     1       8.406   8.711  18.564  0.00  0.00    +0.000 A 
ATOM      5  C   UNL     1       8.539   7.453  19.158  0.00  0.00    +0.000 A 
ATOM      6  C   UNL     1       7.945   6.303  18.653  0.00  0.00    +0.000 A 
ENDROOT
BRANCH   1   8
ATOM      7  O   UNL     1       7.323   4.196  16.636  0.00  0.00    +0.000 OA
ATOM      8  C   UNL     1       6.608   5.074  17.027  0.00  0.00    +0.000 C 
ATOM      9  N   UNL     1       5.227   5.011  17.081  0.00  0.00    +0.000 N 
ATOM     10  H   UNL     1       4.716   5.879  17.144  0.00  0.00    +0.000 HD
BRANCH   9  11
ATOM     11  C   UNL     1       4.543   3.849  16.565  0.00  0.00    +0.000 C 
BRANCH  11  12
ATOM     12  C   UNL     1       3.420   3.432  17.475  0.00  0.00    +0.000 A 
ATOM     13  C   UNL     1       3.424   2.206  18.156  0.00  0.00    +0.000 A 
ATOM     14  C   UNL     1       2.315   1.813  18.906  0.00  0.00    +0.000 A 
ATOM     15  C   UNL     1       1.223   2.665  19.027  0.00  0.00    +0.000 A 
ATOM     16  C   UNL     1       1.237   3.917  18.414  0.00  0.00    +0.000 A 
ATOM     17  C   UNL     1       2.327   4.296  17.636  0.00  0.00    +0.000 A 
ENDBRANCH  11  12
ENDBRANCH   9  11
ENDBRANCH   1   8
BRANCH   4  18
ATOM     18  C   UNL     1       9.180   9.874  19.149  0.00  0.00    +0.000 C 
BRANCH  18  19
ATOM     19  C   UNL     1       9.766  11.037  18.277  0.00  0.00    +0.000 C 
ATOM     20  C   UNL     1      11.205  11.462  18.558  0.00  0.00    +0.000 C 
ATOM     21  C   UNL     1      11.351  12.491  19.675  0.00  0.00    +0.000 C 
ATOM     22  N   UNL     1      10.463  13.663  19.650  0.00  0.00    +0.000 NA
ATOM     23  C   UNL     1       9.119  13.462  19.086  0.00  0.00    +0.000 C 
ATOM     24  C   UNL     1       8.932  12.309  18.064  0.00  0.00    +0.000 C 
BRANCH  22  25
ATOM     25  C   UNL     1      10.526  14.299  21.007  0.00  0.00    +0.000 C 
BRANCH  25  26
ATOM     26  C   UNL     1       9.450  13.921  22.000  0.00  0.00    +0.000 A 
ATOM     27  C   UNL     1       9.124  12.568  22.247  0.00  0.00    +0.000 A 
ATOM     28  C   UNL     1       8.524  12.202  23.453  0.00  0.00    +0.000 A 
ATOM     29  C   UNL     1       8.307  13.219  24.355  0.00  0.00    +0.000 A 
ATOM     30  C   UNL     1       8.363  14.547  23.993  0.00  0.00    +0.000 A 
ATOM     31  C   UNL     1       8.893  14.935  22.795  0.00  0.00    +0.000 A 
ATOM     32  O   UNL     1       8.255  15.382  25.070  0.00  0.00    +0.000 OA
ATOM     33  C   UNL     1       8.761  14.450  26.038  0.00  0.00    +0.000 C 
ATOM     34  O   UNL     1       8.342  13.099  25.722  0.00  0.00    +0.000 OA
ENDBRANCH  25  26
ENDBRANCH  22  25
ENDBRANCH  18  19
ENDBRANCH   4  18
TORSDOF 7
ENDMDL
MODEL 6
REMARK VINA RESULT:      -9.1      1.187      1.655
REMARK  Name = 
REMARK  7 active torsions:
REMARK  status: ('A' for Active; 'I' for Inactive)
REMARK    1  A    between atoms: C_2  and  C_11
REMARK    2  A    between atoms: N_3  and  C_4
REMARK    3  A    between atoms: C_4  and  C_5
REMARK    4  A    between atoms: C_14  and  C_15
REMARK    5  A    between atoms: C_15  and  C_16
REMARK    6  A    between atoms: N_19  and  C_20
REMARK    7  A    between atoms: C_20  and  C_21
REMARK                            x       y       z     vdW  Elec       q    Type
REMARK                         _______ _______ _______ _____ _____    ______ ____
ROOT
ATOM      1  C   UNL     1       0.946   9.648  19.487  0.00  0.00    +0.000 A 
ATOM      2  C   UNL     1       1.692   8.918  18.551  0.00  0.00    +0.000 A 
ATOM      3  C   UNL     1       2.262   7.670  18.900  0.00  0.00    +0.000 A 
ATOM      4  C   UNL     1       2.112   7.151  20.195  0.00  0.00    +0.000 A 
ATOM      5  C   UNL     1       1.381   7.928  21.096  0.00  0.00    +0.000 A 
ATOM      6  C   UNL     1       0.798   9.145  20.760  0.00  0.00    +0.000 A 
ENDROOT
BRANCH   1   8
ATOM      7  O   UNL     1       0.772  11.826  18.604  0.00  0.00    +0.000 OA
ATOM      8  C   UNL     1       0.240  10.938  19.208  0.00  0.00    +0.000 C 
ATOM      9  N   UNL     1      -1.050  10.976  19.704  0.00  0.00    +0.000 N 
ATOM     10  H   UNL     1      -1.297  10.318  20.430  0.00  0.00    +0.000 HD
BRANCH   9  11
ATOM     11  C   UNL     1      -1.830  12.184  19.581  0.00  0.00    +0.000 C 
BRANCH  11  12
ATOM     12  C   UNL     1      -3.152  11.911  18.917  0.00  0.00    +0.000 A 
ATOM     13  C   UNL     1      -4.377  12.164  19.553  0.00  0.00    +0.000 A 
ATOM     14  C   UNL     1      -5.576  11.799  18.942  0.00  0.00    +0.000 A 
ATOM     15  C   UNL     1      -5.563  11.233  17.672  0.00  0.00    +0.000 A 
ATOM     16  C   UNL     1      -4.358  11.044  17.000  0.00  0.00    +0.000 A 
ATOM     17  C   UNL     1      -3.158  11.374  17.621  0.00  0.00    +0.000 A 
ENDBRANCH  11  12
ENDBRANCH   9  11
ENDBRANCH   1   8
BRANCH   4  18
ATOM     18  C   UNL     1       2.616   5.797  20.648  0.00  0.00    +0.000 C 
BRANCH  18  19
ATOM     19  C   UNL     1       1.887   4.453  20.305  0.00  0.00    +0.000 C 
ATOM     20  C   UNL     1       2.736   3.185  20.284  0.00  0.00    +0.000 C 
ATOM     21  C   UNL     1       3.434   2.916  18.954  0.00  0.00    +0.000 C 
ATOM     22  N   UNL     1       2.633   3.021  17.725  0.00  0.00    +0.000 NA
ATOM     23  C   UNL     1       1.540   4.006  17.730  0.00  0.00    +0.000 C 
ATOM     24  C   UNL     1       0.933   4.401  19.103  0.00  0.00    +0.000 C 
BRANCH  22  25
ATOM     25  C   UNL     1       3.591   3.096  16.574  0.00  0.00    +0.000 C 
BRANCH  25  26
ATOM     26  C   UNL     1       4.636   4.188  16.613  0.00  0.00    +0.000 A 
ATOM     27  C   UNL     1       4.293   5.520  16.942  0.00  0.00    +0.000 A 
ATOM     28  C   UNL     1       5.261   6.389  17.446  0.00  0.00    +0.000 A 
ATOM     29  C   UNL     1       6.521   5.859  17.614  0.00  0.00    +0.000 A 
ATOM     30  C   UNL     1       6.903   4.671  17.031  0.00  0.00    +0.000 A 
ATOM     31  C   UNL     1       5.984   3.824  16.477  0.00  0.00    +0.000 A 
ATOM     32  O   UNL     1       8.142   4.268  17.442  0.00  0.00    +0.000 OA
ATOM     33  C   UNL     1       8.116   4.952  18.705  0.00  0.00    +0.000 C 
ATOM     34  O   UNL     1       7.417   6.217  18.591  0.00  0.00    +0.000 OA
ENDBRANCH  25  26
ENDBRANCH  22  25
ENDBRANCH  18  19
ENDBRANCH   4  18
TORSDOF 7
ENDMDL
MODEL 7
REMARK VINA RESULT:      -9.0      4.989      9.860
REMARK  Name = 
REMARK  7 active torsions:
REMARK  status: ('A' for Active; 'I' for Inactive)
REMARK    1  A    between atoms: C_2  and  C_11
REMARK    2  A    between atoms: N_3  and  C_4
REMARK    3  A    between atoms: C_4  and  C_5
REMARK    4  A    between atoms: C_14  and  C_15
REMARK    5  A    between atoms: C_15  and  C_16
REMARK    6  A    between atoms: N_19  and  C_20
REMARK    7  A    between atoms: C_20  and  C_21
REMARK                            x       y       z     vdW  Elec       q    Type
REMARK                         _______ _______ _______ _____ _____    ______ ____
ROOT
ATOM      1  C   UNL     1       6.654   5.783  17.874  0.00  0.00    +0.000 A 
ATOM      2  C   UNL     1       7.757   6.079  18.687  0.00  0.00    +0.000 A 
ATOM      3  C   UNL     1       8.298   7.386  18.718  0.00  0.00    +0.000 A 
ATOM      4  C   UNL     1       7.757   8.405  17.919  0.00  0.00    +0.000 A 
ATOM      5  C   UNL     1       6.676   8.053  17.109  0.00  0.00    +0.000 A 
ATOM      6  C   UNL     1       6.121   6.779  17.085  0.00  0.00    +0.000 A 
ENDROOT
BRANCH   1   8
ATOM      7  O   UNL     1       5.771   3.894  16.777  0.00  0.00    +0.000 OA
ATOM      8  C   UNL     1       5.956   4.460  17.816  0.00  0.00    +0.000 C 
ATOM      9  N   UNL     1       5.574   3.987  19.059  0.00  0.00    +0.000 N 
ATOM     10  H   UNL     1       5.511   4.650  19.818  0.00  0.00    +0.000 HD
BRANCH   9  11
ATOM     11  C   UNL     1       4.821   2.759  19.157  0.00  0.00    +0.000 C 
BRANCH  11  12
ATOM     12  C   UNL     1       3.378   3.033  19.485  0.00  0.00    +0.000 A 
ATOM     13  C   UNL     1       2.415   3.266  18.491  0.00  0.00    +0.000 A 
ATOM     14  C   UNL     1       1.112   3.618  18.842  0.00  0.00    +0.000 A 
ATOM     15  C   UNL     1       0.749   3.684  20.182  0.00  0.00    +0.000 A 
ATOM     16  C   UNL     1       1.677   3.384  21.177  0.00  0.00    +0.000 A 
ATOM     17  C   UNL     1       2.987   3.067  20.831  0.00  0.00    +0.000 A 
ENDBRANCH  11  12
ENDBRANCH   9  11
ENDBRANCH   1   8
BRANCH   4  18
ATOM     18  C   UNL     1       8.213   9.849  17.933  0.00  0.00    +0.000 C 
BRANCH  18  19
ATOM     19  C   UNL     1       9.553  10.318  18.596  0.00  0.00    +0.000 C 
ATOM     20  C   UNL     1       9.472  10.871  20.017  0.00  0.00    +0.000 C 
ATOM     21  C   UNL     1       9.144  12.359  20.096  0.00  0.00    +0.000 C 
ATOM     22  N   UNL     1       9.897  13.276  19.227  0.00  0.00    +0.000 NA
ATOM     23  C   UNL     1      10.332  12.746  17.926  0.00  0.00    +0.000 C 
ATOM     24  C   UNL     1      10.515  11.210  17.798  0.00  0.00    +0.000 C 
BRANCH  22  25
ATOM     25  C   UNL     1       9.153  14.578  19.201  0.00  0.00    +0.000 C 
BRANCH  25  26
ATOM     26  C   UNL     1       7.671  14.534  19.495  0.00  0.00    +0.000 A 
ATOM     27  C   UNL     1       7.176  14.749  20.802  0.00  0.00    +0.000 A 
ATOM     28  C   UNL     1       5.865  15.187  20.992  0.00  0.00    +0.000 A 
ATOM     29  C   UNL     1       5.129  15.406  19.849  0.00  0.00    +0.000 A 
ATOM     30  C   UNL     1       5.520  14.926  18.619  0.00  0.00    +0.000 A 
ATOM     31  C   UNL     1       6.780  14.438  18.415  0.00  0.00    +0.000 A 
ATOM     32  O   UNL     1       4.718  15.377  17.609  0.00  0.00    +0.000 OA
ATOM     33  C   UNL     1       4.296  16.579  18.272  0.00  0.00    +0.000 C 
ATOM     34  O   UNL     1       4.150  16.356  19.697  0.00  0.00    +0.000 OA
ENDBRANCH  25  26
ENDBRANCH  22  25
ENDBRANCH  18  19
ENDBRANCH   4  18
TORSDOF 7
ENDMDL
MODEL 8
REMARK VINA RESULT:      -9.0      5.903     10.027
REMARK  Name = 
REMARK  7 active torsions:
REMARK  status: ('A' for Active; 'I' for Inactive)
REMARK    1  A    between atoms: C_2  and  C_11
REMARK    2  A    between atoms: N_3  and  C_4
REMARK    3  A    between atoms: C_4  and  C_5
REMARK    4  A    between atoms: C_14  and  C_15
REMARK    5  A    between atoms: C_15  and  C_16
REMARK    6  A    between atoms: N_19  and  C_20
REMARK    7  A    between atoms: C_20  and  C_21
REMARK                            x       y       z     vdW  Elec       q    Type
REMARK                         _______ _______ _______ _____ _____    ______ ____
ROOT
ATOM      1  C   UNL     1       6.606   6.179  17.427  0.00  0.00    +0.000 A 
ATOM      2  C   UNL     1       7.565   5.929  18.419  0.00  0.00    +0.000 A 
ATOM      3  C   UNL     1       8.356   6.982  18.937  0.00  0.00    +0.000 A 
ATOM      4  C   UNL     1       8.213   8.291  18.453  0.00  0.00    +0.000 A 
ATOM      5  C   UNL     1       7.262   8.483  17.448  0.00  0.00    +0.000 A 
ATOM      6  C   UNL     1       6.464   7.462  16.946  0.00  0.00    +0.000 A 
ENDROOT
BRANCH   1   8
ATOM      7  O   UNL     1       5.349   5.176  15.705  0.00  0.00    +0.000 OA
ATOM      8  C   UNL     1       5.667   5.160  16.860  0.00  0.00    +0.000 C 
ATOM      9  N   UNL     1       5.236   4.234  17.792  0.00  0.00    +0.000 N 
ATOM     10  H   UNL     1       5.322   4.471  18.770  0.00  0.00    +0.000 HD
BRANCH   9  11
ATOM     11  C   UNL     1       4.265   3.235  17.413  0.00  0.00    +0.000 C 
BRANCH  11  12
ATOM     12  C   UNL     1       3.158   3.141  18.428  0.00  0.00    +0.000 A 
ATOM     13  C   UNL     1       1.857   2.748  18.083  0.00  0.00    +0.000 A 
ATOM     14  C   UNL     1       0.838   2.775  19.035  0.00  0.00    +0.000 A 
ATOM     15  C   UNL     1       1.123   3.138  20.346  0.00  0.00    +0.000 A 
ATOM     16  C   UNL     1       2.427   3.460  20.718  0.00  0.00    +0.000 A 
ATOM     17  C   UNL     1       3.438   3.468  19.763  0.00  0.00    +0.000 A 
ENDBRANCH  11  12
ENDBRANCH   9  11
ENDBRANCH   1   8
BRANCH   4  18
ATOM     18  C   UNL     1       8.955   9.498  18.989  0.00  0.00    +0.000 C 
BRANCH  18  19
ATOM     19  C   UNL     1       9.473  10.661  18.075  0.00  0.00    +0.000 C 
ATOM     20  C   UNL     1      10.917  11.113  18.274  0.00  0.00    +0.000 C 
ATOM     21  C   UNL     1      11.105  12.157  19.370  0.00  0.00    +0.000 C 
ATOM     22  N   UNL     1      10.196  13.313  19.380  0.00  0.00    +0.000 NA
ATOM     23  C   UNL     1       8.828  13.083  18.890  0.00  0.00    +0.000 C 
ATOM     24  C   UNL     1       8.607  11.916  17.892  0.00  0.00    +0.000 C 
BRANCH  22  25
ATOM     25  C   UNL     1      10.321  13.967  20.724  0.00  0.00    +0.000 C 
BRANCH  25  26
ATOM     26  C   UNL     1       9.286  13.608  21.766  0.00  0.00    +0.000 A 
ATOM     27  C   UNL     1       8.974  12.260  22.056  0.00  0.00    +0.000 A 
ATOM     28  C   UNL     1       8.423  11.918  23.292  0.00  0.00    +0.000 A 
ATOM     29  C   UNL     1       8.238  12.955  24.180  0.00  0.00    +0.000 A 
ATOM     30  C   UNL     1       8.276  14.275  23.787  0.00  0.00    +0.000 A 
ATOM     31  C   UNL     1       8.757  14.637  22.560  0.00  0.00    +0.000 A 
ATOM     32  O   UNL     1       8.206  15.132  24.848  0.00  0.00    +0.000 OA
ATOM     33  C   UNL     1       8.753  14.223  25.817  0.00  0.00    +0.000 C 
ATOM     34  O   UNL     1       8.327  12.865  25.546  0.00  0.00    +0.000 OA
ENDBRANCH  25  26
ENDBRANCH  22  25
ENDBRANCH  18  19
ENDBRANCH   4  18
TORSDOF 7
ENDMDL
MODEL 9
REMARK VINA RESULT:      -8.9      5.036      9.882
REMARK  Name = 
REMARK  7 active torsions:
REMARK  status: ('A' for Active; 'I' for Inactive)
REMARK    1  A    between atoms: C_2  and  C_11
REMARK    2  A    between atoms: N_3  and  C_4
REMARK    3  A    between atoms: C_4  and  C_5
REMARK    4  A    between atoms: C_14  and  C_15
REMARK    5  A    between atoms: C_15  and  C_16
REMARK    6  A    between atoms: N_19  and  C_20
REMARK    7  A    between atoms: C_20  and  C_21
REMARK                            x       y       z     vdW  Elec       q    Type
REMARK                         _______ _______ _______ _____ _____    ______ ____
ROOT
ATOM      1  C   UNL     1       6.746   6.011  18.076  0.00  0.00    +0.000 A 
ATOM      2  C   UNL     1       7.855   6.330  18.873  0.00  0.00    +0.000 A 
ATOM      3  C   UNL     1       8.440   7.617  18.809  0.00  0.00    +0.000 A 
ATOM      4  C   UNL     1       7.939   8.590  17.931  0.00  0.00    +0.000 A 
ATOM      5  C   UNL     1       6.850   8.215  17.142  0.00  0.00    +0.000 A 
ATOM      6  C   UNL     1       6.252   6.962  17.210  0.00  0.00    +0.000 A 
ENDROOT
BRANCH   1   8
ATOM      7  O   UNL     1       6.157   3.929  19.007  0.00  0.00    +0.000 OA
ATOM      8  C   UNL     1       6.004   4.712  18.114  0.00  0.00    +0.000 C 
ATOM      9  N   UNL     1       5.151   4.537  17.040  0.00  0.00    +0.000 N 
ATOM     10  H   UNL     1       5.306   5.099  16.215  0.00  0.00    +0.000 HD
BRANCH   9  11
ATOM     11  C   UNL     1       4.424   3.297  16.897  0.00  0.00    +0.000 C 
BRANCH  11  12
ATOM     12  C   UNL     1       3.252   3.244  17.839  0.00  0.00    +0.000 A 
ATOM     13  C   UNL     1       2.900   2.075  18.530  0.00  0.00    +0.000 A 
ATOM     14  C   UNL     1       1.745   2.040  19.312  0.00  0.00    +0.000 A 
ATOM     15  C   UNL     1       0.970   3.186  19.454  0.00  0.00    +0.000 A 
ATOM     16  C   UNL     1       1.349   4.373  18.831  0.00  0.00    +0.000 A 
ATOM     17  C   UNL     1       2.481   4.400  18.022  0.00  0.00    +0.000 A 
ENDBRANCH  11  12
ENDBRANCH   9  11
ENDBRANCH   1   8
BRANCH   4  18
ATOM     18  C   UNL     1       8.444  10.015  17.839  0.00  0.00    +0.000 C 
BRANCH  18  19
ATOM     19  C   UNL     1       9.763  10.503  18.531  0.00  0.00    +0.000 C 
ATOM     20  C   UNL     1       9.659  10.964  19.983  0.00  0.00    +0.000 C 
ATOM     21  C   UNL     1       9.263  12.428  20.152  0.00  0.00    +0.000 C 
ATOM     22  N   UNL     1       9.973  13.429  19.342  0.00  0.00    +0.000 NA
ATOM     23  C   UNL     1      10.430  13.000  18.011  0.00  0.00    +0.000 C 
ATOM     24  C   UNL     1      10.682  11.485  17.790  0.00  0.00    +0.000 C 
BRANCH  22  25
ATOM     25  C   UNL     1       9.171  14.695  19.394  0.00  0.00    +0.000 C 
BRANCH  25  26
ATOM     26  C   UNL     1       7.680  14.562  19.608  0.00  0.00    +0.000 A 
ATOM     27  C   UNL     1       7.113  14.662  20.900  0.00  0.00    +0.000 A 
ATOM     28  C   UNL     1       5.774  15.023  21.050  0.00  0.00    +0.000 A 
ATOM     29  C   UNL     1       5.084  15.287  19.888  0.00  0.00    +0.000 A 
ATOM     30  C   UNL     1       5.557  14.913  18.650  0.00  0.00    +0.000 A 
ATOM     31  C   UNL     1       6.849  14.500  18.480  0.00  0.00    +0.000 A 
ATOM     32  O   UNL     1       4.784  15.396  17.633  0.00  0.00    +0.000 OA
ATOM     33  C   UNL     1       4.270  16.527  18.354  0.00  0.00    +0.000 C 
ATOM     34  O   UNL     1       4.067  16.199  19.750  0.00  0.00    +0.000 OA
ENDBRANCH  25  26
ENDBRANCH  22  25
ENDBRANCH  18  19
ENDBRANCH   4  18
TORSDOF 7
ENDMDL
