MODEL 1
REMARK VINA RESULT:      -7.0      0.000      0.000
REMARK  Name = 
REMARK  9 active torsions:
REMARK  status: ('A' for Active; 'I' for Inactive)
REMARK    1  A    between atoms: C_1  and  C_2
REMARK    2  A    between atoms: C_2  and  N_3
REMARK    3  A    between atoms: N_3  and  C_4
REMARK    4  A    between atoms: C_4  and  C_5
REMARK    5  A    between atoms: C_6  and  C_8
REMARK    6  A    between atoms: C_8  and  S_9
REMARK    7  A    between atoms: S_9  and  C_10
REMARK    8  A    between atoms: C_14  and  C_15
REMARK    9  A    between atoms: C_21  and  C_22
REMARK                            x       y       z     vdW  Elec       q    Type
REMARK                         _______ _______ _______ _____ _____    ______ ____
ROOT
ATOM      1  C   UNL     1       2.767   8.120  18.313  0.00  0.00    +0.000 A 
ATOM      2  N   UNL     1       3.656   7.883  17.326  0.00  0.00    +0.000 NA
ATOM      3  C   UNL     1       4.106   6.621  17.150  0.00  0.00    +0.000 A 
ATOM      4  C   UNL     1       3.672   5.529  17.925  0.00  0.00    +0.000 A 
ATOM      5  C   UNL     1       2.767   5.770  19.008  0.00  0.00    +0.000 A 
ATOM      6  C   UNL     1       2.330   7.117  19.190  0.00  0.00    +0.000 A 
ATOM      7  C   UNL     1       4.228   4.149  17.612  0.00  0.00    +0.000 C 
ATOM      8  C   UNL     1       4.926   4.010  16.258  0.00  0.00    +0.000 C 
ATOM      9  C   UNL     1       5.880   5.173  16.059  0.00  0.00    +0.000 C 
ATOM     10  C   UNL     1       5.081   6.465  16.006  0.00  0.00    +0.000 C 
ENDROOT
BRANCH   5  11
ATOM     11  C   UNL     1       2.288   4.663  19.911  0.00  0.00    +0.000 A 
ATOM     12  C   UNL     1       1.232   3.800  19.571  0.00  0.00    +0.000 A 
ATOM     13  C   UNL     1       0.785   2.810  20.453  0.00  0.00    +0.000 A 
ATOM     14  C   UNL     1       1.453   2.642  21.648  0.00  0.00    +0.000 A 
ATOM     15  N   UNL     1       2.480   3.421  22.027  0.00  0.00    +0.000 NA
ATOM     16  C   UNL     1       2.838   4.417  21.175  0.00  0.00    +0.000 A 
ENDBRANCH   5  11
BRANCH   6  17
ATOM     17  C   UNL     1       1.476   7.494  20.284  0.00  0.00    +0.000 C 
ATOM     18  N   UNL     1       0.762   7.821  21.141  0.00  0.00    +0.000 NA
ENDBRANCH   6  17
BRANCH   1  19
ATOM     19  S   UNL     1       2.176   9.815  18.442  0.00  0.00    +0.000 S 
BRANCH  19  20
ATOM     20  C   UNL     1       0.434   9.639  17.937  0.00  0.00    +0.000 C 
BRANCH  20  22
ATOM     21  N   UNL     1      -1.748  10.891  18.149  0.00  0.00    +0.000 N 
ATOM     22  C   UNL     1      -0.394  10.779  18.527  0.00  0.00    +0.000 C 
ATOM     23  O   UNL     1       0.116  11.566  19.330  0.00  0.00    +0.000 OA
BRANCH  21  25
ATOM     24  C   UNL     1      -4.054  11.706  18.679  0.00  0.00    +0.000 C 
ATOM     25  C   UNL     1      -2.554  11.907  18.833  0.00  0.00    +0.000 C 
ENDBRANCH  21  25
BRANCH  21  26
ATOM     26  C   UNL     1      -2.343  10.001  17.144  0.00  0.00    +0.000 C 
ATOM     27  C   UNL     1      -2.648  10.559  15.764  0.00  0.00    +0.000 C 
ENDBRANCH  21  26
ENDBRANCH  20  22
ENDBRANCH  19  20
ENDBRANCH   1  19
TORSDOF 7
ENDMDL
MODEL 2
REMARK VINA RESULT:      -6.9      3.902      7.890
REMARK  Name = 
REMARK  9 active torsions:
REMARK  status: ('A' for Active; 'I' for Inactive)
REMARK    1  A    between atoms: C_1  and  C_2
REMARK    2  A    between atoms: C_2  and  N_3
REMARK    3  A    between atoms: N_3  and  C_4
REMARK    4  A    between atoms: C_4  and  C_5
REMARK    5  A    between atoms: C_6  and  C_8
REMARK    6  A    between atoms: C_8  and  S_9
REMARK    7  A    between atoms: S_9  and  C_10
REMARK    8  A    between atoms: C_14  and  C_15
REMARK    9  A    between atoms: C_21  and  C_22
REMARK                            x       y       z     vdW  Elec       q    Type
REMARK                         _______ _______ _______ _____ _____    ______ ____
ROOT
ATOM      1  C   UNL     1       4.964   4.458  17.166  0.00  0.00    +0.000 A 
ATOM      2  N   UNL     1       4.422   3.264  17.486  0.00  0.00    +0.000 NA
ATOM      3  C   UNL     1       3.256   3.245  18.168  0.00  0.00    +0.000 A 
ATOM      4  C   UNL     1       2.556   4.409  18.537  0.00  0.00    +0.000 A 
ATOM      5  C   UNL     1       3.140   5.684  18.249  0.00  0.00    +0.000 A 
ATOM      6  C   UNL     1       4.387   5.676  17.554  0.00  0.00    +0.000 A 
ATOM      7  C   UNL     1       1.236   4.259  19.277  0.00  0.00    +0.000 C 
ATOM      8  C   UNL     1       0.610   2.865  19.232  0.00  0.00    +0.000 C 
ATOM      9  C   UNL     1       1.668   1.824  19.543  0.00  0.00    +0.000 C 
ATOM     10  C   UNL     1       2.731   1.858  18.457  0.00  0.00    +0.000 C 
ENDROOT
BRANCH   5  11
ATOM     11  C   UNL     1       2.476   6.976  18.649  0.00  0.00    +0.000 A 
ATOM     12  C   UNL     1       2.078   7.953  17.719  0.00  0.00    +0.000 A 
ATOM     13  C   UNL     1       1.503   9.161  18.129  0.00  0.00    +0.000 A 
ATOM     14  C   UNL     1       1.260   9.351  19.473  0.00  0.00    +0.000 A 
ATOM     15  N   UNL     1       1.600   8.452  20.413  0.00  0.00    +0.000 NA
ATOM     16  C   UNL     1       2.221   7.323  19.981  0.00  0.00    +0.000 A 
ENDBRANCH   5  11
BRANCH   6  17
ATOM     17  C   UNL     1       5.103   6.890  17.269  0.00  0.00    +0.000 C 
ATOM     18  N   UNL     1       5.709   7.861  17.069  0.00  0.00    +0.000 NA
ENDBRANCH   6  17
BRANCH   1  19
ATOM     19  S   UNL     1       6.487   4.394  16.208  0.00  0.00    +0.000 S 
BRANCH  19  20
ATOM     20  C   UNL     1       5.934   5.026  14.591  0.00  0.00    +0.000 C 
BRANCH  20  22
ATOM     21  N   UNL     1       6.332   3.696  12.482  0.00  0.00    +0.000 N 
ATOM     22  C   UNL     1       6.867   4.523  13.491  0.00  0.00    +0.000 C 
ATOM     23  O   UNL     1       8.055   4.858  13.485  0.00  0.00    +0.000 OA
BRANCH  21  25
ATOM     24  C   UNL     1       7.379   1.843  11.167  0.00  0.00    +0.000 C 
ATOM     25  C   UNL     1       7.214   3.342  11.367  0.00  0.00    +0.000 C 
ENDBRANCH  21  25
BRANCH  21  26
ATOM     26  C   UNL     1       4.937   3.240  12.521  0.00  0.00    +0.000 C 
ATOM     27  C   UNL     1       4.115   3.295  11.243  0.00  0.00    +0.000 C 
ENDBRANCH  21  26
ENDBRANCH  20  22
ENDBRANCH  19  20
ENDBRANCH   1  19
TORSDOF 7
ENDMDL
MODEL 3
REMARK VINA RESULT:      -6.8      3.580      7.748
REMARK  Name = 
REMARK  9 active torsions:
REMARK  status: ('A' for Active; 'I' for Inactive)
REMARK    1  A    between atoms: C_1  and  C_2
REMARK    2  A    between atoms: C_2  and  N_3
REMARK    3  A    between atoms: N_3  and  C_4
REMARK    4  A    between atoms: C_4  and  C_5
REMARK    5  A    between atoms: C_6  and  C_8
REMARK    6  A    between atoms: C_8  and  S_9
REMARK    7  A    between atoms: S_9  and  C_10
REMARK    8  A    between atoms: C_14  and  C_15
REMARK    9  A    between atoms: C_21  and  C_22
REMARK                            x       y       z     vdW  Elec       q    Type
REMARK                         _______ _______ _______ _____ _____    ______ ____
ROOT
ATOM      1  C   UNL     1       4.926   4.501  17.893  0.00  0.00    +0.000 A 
ATOM      2  N   UNL     1       4.469   3.414  18.549  0.00  0.00    +0.000 NA
ATOM      3  C   UNL     1       3.348   3.533  19.294  0.00  0.00    +0.000 A 
ATOM      4  C   UNL     1       2.609   4.727  19.397  0.00  0.00    +0.000 A 
ATOM      5  C   UNL     1       3.105   5.901  18.748  0.00  0.00    +0.000 A 
ATOM      6  C   UNL     1       4.308   5.756  17.991  0.00  0.00    +0.000 A 
ATOM      7  C   UNL     1       1.345   4.727  20.242  0.00  0.00    +0.000 C 
ATOM      8  C   UNL     1       0.793   3.349  20.605  0.00  0.00    +0.000 C 
ATOM      9  C   UNL     1       1.922   2.465  21.100  0.00  0.00    +0.000 C 
ATOM     10  C   UNL     1       2.915   2.252  19.969  0.00  0.00    +0.000 C 
ENDROOT
BRANCH   5  11
ATOM     11  C   UNL     1       2.398   7.228  18.844  0.00  0.00    +0.000 A 
ATOM     12  C   UNL     1       2.094   8.018  17.721  0.00  0.00    +0.000 A 
ATOM     13  C   UNL     1       1.474   9.265  17.852  0.00  0.00    +0.000 A 
ATOM     14  C   UNL     1       1.093   9.682  19.110  0.00  0.00    +0.000 A 
ATOM     15  N   UNL     1       1.337   8.969  20.222  0.00  0.00    +0.000 NA
ATOM     16  C   UNL     1       2.005   7.796  20.061  0.00  0.00    +0.000 A 
ENDBRANCH   5  11
BRANCH   6  17
ATOM     17  C   UNL     1       4.940   6.878  17.352  0.00  0.00    +0.000 C 
ATOM     18  N   UNL     1       5.480   7.785  16.865  0.00  0.00    +0.000 NA
ENDBRANCH   6  17
BRANCH   1  19
ATOM     19  S   UNL     1       6.391   4.243  16.879  0.00  0.00    +0.000 S 
BRANCH  19  20
ATOM     20  C   UNL     1       5.671   4.137  15.208  0.00  0.00    +0.000 C 
BRANCH  20  22
ATOM     21  N   UNL     1       6.579   3.924  12.862  0.00  0.00    +0.000 N 
ATOM     22  C   UNL     1       6.741   4.445  14.163  0.00  0.00    +0.000 C 
ATOM     23  O   UNL     1       7.710   5.152  14.456  0.00  0.00    +0.000 OA
BRANCH  21  25
ATOM     24  C   UNL     1       7.533   5.845  11.573  0.00  0.00    +0.000 C 
ATOM     25  C   UNL     1       7.545   4.348  11.845  0.00  0.00    +0.000 C 
ENDBRANCH  21  25
BRANCH  21  26
ATOM     26  C   UNL     1       5.466   3.028  12.525  0.00  0.00    +0.000 C 
ATOM     27  C   UNL     1       4.444   3.488  11.498  0.00  0.00    +0.000 C 
ENDBRANCH  21  26
ENDBRANCH  20  22
ENDBRANCH  19  20
ENDBRANCH   1  19
TORSDOF 7
ENDMDL
MODEL 4
REMARK VINA RESULT:      -6.7      3.457      7.782
REMARK  Name = 
REMARK  9 active torsions:
REMARK  status: ('A' for Active; 'I' for Inactive)
REMARK    1  A    between atoms: C_1  and  C_2
REMARK    2  A    between atoms: C_2  and  N_3
REMARK    3  A    between atoms: N_3  and  C_4
REMARK    4  A    between atoms: C_4  and  C_5
REMARK    5  A    between atoms: C_6  and  C_8
REMARK    6  A    between atoms: C_8  and  S_9
REMARK    7  A    between atoms: S_9  and  C_10
REMARK    8  A    between atoms: C_14  and  C_15
REMARK    9  A    between atoms: C_21  and  C_22
REMARK                            x       y       z     vdW  Elec       q    Type
REMARK                         _______ _______ _______ _____ _____    ______ ____
ROOT
ATOM      1  C   UNL     1       5.343   4.578  18.355  0.00  0.00    +0.000 A 
ATOM      2  N   UNL     1       4.905   3.537  19.092  0.00  0.00    +0.000 NA
ATOM      3  C   UNL     1       3.726   3.656  19.742  0.00  0.00    +0.000 A 
ATOM      4  C   UNL     1       2.911   4.801  19.665  0.00  0.00    +0.000 A 
ATOM      5  C   UNL     1       3.383   5.933  18.928  0.00  0.00    +0.000 A 
ATOM      6  C   UNL     1       4.646   5.792  18.275  0.00  0.00    +0.000 A 
ATOM      7  C   UNL     1       1.590   4.804  20.417  0.00  0.00    +0.000 C 
ATOM      8  C   UNL     1       1.095   3.436  20.889  0.00  0.00    +0.000 C 
ATOM      9  C   UNL     1       2.236   2.687  21.552  0.00  0.00    +0.000 C 
ATOM     10  C   UNL     1       3.322   2.425  20.521  0.00  0.00    +0.000 C 
ENDROOT
BRANCH   5  11
ATOM     11  C   UNL     1       2.592   7.212  18.832  0.00  0.00    +0.000 A 
ATOM     12  C   UNL     1       2.047   7.861  19.954  0.00  0.00    +0.000 A 
ATOM     13  C   UNL     1       1.281   9.025  19.823  0.00  0.00    +0.000 A 
ATOM     14  C   UNL     1       1.130   9.576  18.568  0.00  0.00    +0.000 A 
ATOM     15  N   UNL     1       1.639   9.017  17.458  0.00  0.00    +0.000 NA
ATOM     16  C   UNL     1       2.316   7.849  17.617  0.00  0.00    +0.000 A 
ENDBRANCH   5  11
BRANCH   6  17
ATOM     17  C   UNL     1       5.255   6.883  17.563  0.00  0.00    +0.000 C 
ATOM     18  N   UNL     1       5.710   7.784  16.987  0.00  0.00    +0.000 NA
ENDBRANCH   6  17
BRANCH   1  19
ATOM     19  S   UNL     1       6.893   4.317  17.477  0.00  0.00    +0.000 S 
BRANCH  19  20
ATOM     20  C   UNL     1       6.304   3.903  15.803  0.00  0.00    +0.000 C 
BRANCH  20  22
ATOM     21  N   UNL     1       6.883   4.458  13.409  0.00  0.00    +0.000 N 
ATOM     22  C   UNL     1       7.004   4.790  14.774  0.00  0.00    +0.000 C 
ATOM     23  O   UNL     1       7.638   5.783  15.141  0.00  0.00    +0.000 OA
BRANCH  21  25
ATOM     24  C   UNL     1       8.889   5.788  12.724  0.00  0.00    +0.000 C 
ATOM     25  C   UNL     1       7.446   5.401  12.437  0.00  0.00    +0.000 C 
ENDBRANCH  21  25
BRANCH  21  26
ATOM     26  C   UNL     1       6.187   3.242  12.971  0.00  0.00    +0.000 C 
ATOM     27  C   UNL     1       5.097   3.364  11.918  0.00  0.00    +0.000 C 
ENDBRANCH  21  26
ENDBRANCH  20  22
ENDBRANCH  19  20
ENDBRANCH   1  19
TORSDOF 7
ENDMDL
MODEL 5
REMARK VINA RESULT:      -6.7      2.242      4.616
REMARK  Name = 
REMARK  9 active torsions:
REMARK  status: ('A' for Active; 'I' for Inactive)
REMARK    1  A    between atoms: C_1  and  C_2
REMARK    2  A    between atoms: C_2  and  N_3
REMARK    3  A    between atoms: N_3  and  C_4
REMARK    4  A    between atoms: C_4  and  C_5
REMARK    5  A    between atoms: C_6  and  C_8
REMARK    6  A    between atoms: C_8  and  S_9
REMARK    7  A    between atoms: S_9  and  C_10
REMARK    8  A    between atoms: C_14  and  C_15
REMARK    9  A    between atoms: C_21  and  C_22
REMARK                            x       y       z     vdW  Elec       q    Type
REMARK                         _______ _______ _______ _____ _____    ______ ____
ROOT
ATOM      1  C   UNL     1       2.292   6.841  19.713  0.00  0.00    +0.000 A 
ATOM      2  N   UNL     1       1.907   5.912  20.612  0.00  0.00    +0.000 NA
ATOM      3  C   UNL     1       2.478   4.688  20.561  0.00  0.00    +0.000 A 
ATOM      4  C   UNL     1       3.480   4.338  19.637  0.00  0.00    +0.000 A 
ATOM      5  C   UNL     1       3.865   5.295  18.645  0.00  0.00    +0.000 A 
ATOM      6  C   UNL     1       3.226   6.571  18.702  0.00  0.00    +0.000 A 
ATOM      7  C   UNL     1       4.068   2.937  19.699  0.00  0.00    +0.000 C 
ATOM      8  C   UNL     1       3.782   2.158  20.983  0.00  0.00    +0.000 C 
ATOM      9  C   UNL     1       2.310   2.277  21.331  0.00  0.00    +0.000 C 
ATOM     10  C   UNL     1       1.987   3.733  21.625  0.00  0.00    +0.000 C 
ENDROOT
BRANCH   5  11
ATOM     11  C   UNL     1       4.899   4.984  17.593  0.00  0.00    +0.000 A 
ATOM     12  C   UNL     1       4.587   4.353  16.376  0.00  0.00    +0.000 A 
ATOM     13  C   UNL     1       5.580   4.042  15.440  0.00  0.00    +0.000 A 
ATOM     14  C   UNL     1       6.876   4.436  15.699  0.00  0.00    +0.000 A 
ATOM     15  N   UNL     1       7.238   5.058  16.834  0.00  0.00    +0.000 NA
ATOM     16  C   UNL     1       6.258   5.278  17.749  0.00  0.00    +0.000 A 
ENDBRANCH   5  11
BRANCH   6  17
ATOM     17  C   UNL     1       3.480   7.589  17.719  0.00  0.00    +0.000 C 
ATOM     18  N   UNL     1       3.663   8.390  16.897  0.00  0.00    +0.000 NA
ENDBRANCH   6  17
BRANCH   1  19
ATOM     19  S   UNL     1       1.526   8.461  19.885  0.00  0.00    +0.000 S 
BRANCH  19  20
ATOM     20  C   UNL     1       0.488   8.224  21.364  0.00  0.00    +0.000 C 
BRANCH  20  22
ATOM     21  N   UNL     1      -0.402  10.581  21.526  0.00  0.00    +0.000 N 
ATOM     22  C   UNL     1       0.351   9.546  22.118  0.00  0.00    +0.000 C 
ATOM     23  O   UNL     1       0.872   9.684  23.228  0.00  0.00    +0.000 OA
BRANCH  21  25
ATOM     24  C   UNL     1      -1.979  11.799  23.039  0.00  0.00    +0.000 C 
ATOM     25  C   UNL     1      -0.633  11.785  22.329  0.00  0.00    +0.000 C 
ENDBRANCH  21  25
BRANCH  21  26
ATOM     26  C   UNL     1      -0.968  10.447  20.178  0.00  0.00    +0.000 C 
ATOM     27  C   UNL     1      -0.889  11.634  19.231  0.00  0.00    +0.000 C 
ENDBRANCH  21  26
ENDBRANCH  20  22
ENDBRANCH  19  20
ENDBRANCH   1  19
TORSDOF 7
ENDMDL
MODEL 6
REMARK VINA RESULT:      -6.6      3.655      7.656
REMARK  Name = 
REMARK  9 active torsions:
REMARK  status: ('A' for Active; 'I' for Inactive)
REMARK    1  A    between atoms: C_1  and  C_2
REMARK    2  A    between atoms: C_2  and  N_3
REMARK    3  A    between atoms: N_3  and  C_4
REMARK    4  A    between atoms: C_4  and  C_5
REMARK    5  A    between atoms: C_6  and  C_8
REMARK    6  A    between atoms: C_8  and  S_9
REMARK    7  A    between atoms: S_9  and  C_10
REMARK    8  A    between atoms: C_14  and  C_15
REMARK    9  A    between atoms: C_21  and  C_22
REMARK                            x       y       z     vdW  Elec       q    Type
REMARK                         _______ _______ _______ _____ _____    ______ ____
ROOT
ATOM      1  C   UNL     1       5.406   4.486  17.281  0.00  0.00    +0.000 A 
ATOM      2  N   UNL     1       4.833   3.286  17.515  0.00  0.00    +0.000 NA
ATOM      3  C   UNL     1       3.586   3.256  18.034  0.00  0.00    +0.000 A 
ATOM      4  C   UNL     1       2.836   4.413  18.316  0.00  0.00    +0.000 A 
ATOM      5  C   UNL     1       3.446   5.693  18.120  0.00  0.00    +0.000 A 
ATOM      6  C   UNL     1       4.775   5.697  17.598  0.00  0.00    +0.000 A 
ATOM      7  C   UNL     1       1.430   4.249  18.870  0.00  0.00    +0.000 C 
ATOM      8  C   UNL     1       0.823   2.853  18.730  0.00  0.00    +0.000 C 
ATOM      9  C   UNL     1       1.836   1.814  19.171  0.00  0.00    +0.000 C 
ATOM     10  C   UNL     1       3.035   1.863  18.237  0.00  0.00    +0.000 C 
ENDROOT
BRANCH   5  11
ATOM     11  C   UNL     1       2.727   6.978  18.438  0.00  0.00    +0.000 A 
ATOM     12  C   UNL     1       2.438   7.955  17.468  0.00  0.00    +0.000 A 
ATOM     13  C   UNL     1       1.807   9.156  17.808  0.00  0.00    +0.000 A 
ATOM     14  C   UNL     1       1.399   9.340  19.112  0.00  0.00    +0.000 A 
ATOM     15  N   UNL     1       1.628   8.441  20.084  0.00  0.00    +0.000 NA
ATOM     16  C   UNL     1       2.307   7.319  19.730  0.00  0.00    +0.000 A 
ENDBRANCH   5  11
BRANCH   6  17
ATOM     17  C   UNL     1       5.516   6.917  17.423  0.00  0.00    +0.000 C 
ATOM     18  N   UNL     1       6.129   7.888  17.245  0.00  0.00    +0.000 NA
ENDBRANCH   6  17
BRANCH   1  19
ATOM     19  S   UNL     1       7.044   4.438  16.536  0.00  0.00    +0.000 S 
BRANCH  19  20
ATOM     20  C   UNL     1       6.728   5.174  14.899  0.00  0.00    +0.000 C 
BRANCH  20  22
ATOM     21  N   UNL     1       6.393   3.832  12.787  0.00  0.00    +0.000 N 
ATOM     22  C   UNL     1       5.896   4.214  14.051  0.00  0.00    +0.000 C 
ATOM     23  O   UNL     1       4.827   3.773  14.481  0.00  0.00    +0.000 OA
BRANCH  21  25
ATOM     24  C   UNL     1       4.391   3.331  11.372  0.00  0.00    +0.000 C 
ATOM     25  C   UNL     1       5.645   2.805  12.055  0.00  0.00    +0.000 C 
ENDBRANCH  21  25
BRANCH  21  26
ATOM     26  C   UNL     1       7.630   4.403  12.241  0.00  0.00    +0.000 C 
ATOM     27  C   UNL     1       7.541   5.666  11.400  0.00  0.00    +0.000 C 
ENDBRANCH  21  26
ENDBRANCH  20  22
ENDBRANCH  19  20
ENDBRANCH   1  19
TORSDOF 7
ENDMDL
MODEL 7
REMARK VINA RESULT:      -6.5      3.529      7.278
REMARK  Name = 
REMARK  9 active torsions:
REMARK  status: ('A' for Active; 'I' for Inactive)
REMARK    1  A    between atoms: C_1  and  C_2
REMARK    2  A    between atoms: C_2  and  N_3
REMARK    3  A    between atoms: N_3  and  C_4
REMARK    4  A    between atoms: C_4  and  C_5
REMARK    5  A    between atoms: C_6  and  C_8
REMARK    6  A    between atoms: C_8  and  S_9
REMARK    7  A    between atoms: S_9  and  C_10
REMARK    8  A    between atoms: C_14  and  C_15
REMARK    9  A    between atoms: C_21  and  C_22
REMARK                            x       y       z     vdW  Elec       q    Type
REMARK                         _______ _______ _______ _____ _____    ______ ____
ROOT
ATOM      1  C   UNL     1       4.693   6.279  17.296  0.00  0.00    +0.000 A 
ATOM      2  N   UNL     1       4.198   7.530  17.194  0.00  0.00    +0.000 NA
ATOM      3  C   UNL     1       3.116   7.859  17.933  0.00  0.00    +0.000 A 
ATOM      4  C   UNL     1       2.493   6.972  18.831  0.00  0.00    +0.000 A 
ATOM      5  C   UNL     1       2.974   5.627  18.915  0.00  0.00    +0.000 A 
ATOM      6  C   UNL     1       4.100   5.296  18.102  0.00  0.00    +0.000 A 
ATOM      7  C   UNL     1       1.299   7.469  19.632  0.00  0.00    +0.000 C 
ATOM      8  C   UNL     1       1.109   8.986  19.661  0.00  0.00    +0.000 C 
ATOM      9  C   UNL     1       1.244   9.540  18.255  0.00  0.00    +0.000 C 
ATOM     10  C   UNL     1       2.658   9.288  17.757  0.00  0.00    +0.000 C 
ENDROOT
BRANCH   5  11
ATOM     11  C   UNL     1       2.335   4.604  19.819  0.00  0.00    +0.000 A 
ATOM     12  C   UNL     1       1.292   3.759  19.403  0.00  0.00    +0.000 A 
ATOM     13  C   UNL     1       0.694   2.850  20.283  0.00  0.00    +0.000 A 
ATOM     14  C   UNL     1       1.200   2.740  21.561  0.00  0.00    +0.000 A 
ATOM     15  N   UNL     1       2.206   3.505  22.017  0.00  0.00    +0.000 NA
ATOM     16  C   UNL     1       2.713   4.426  21.156  0.00  0.00    +0.000 A 
ENDBRANCH   5  11
BRANCH   6  17
ATOM     17  C   UNL     1       4.630   3.961  18.049  0.00  0.00    +0.000 C 
ATOM     18  N   UNL     1       5.022   2.868  17.989  0.00  0.00    +0.000 NA
ENDBRANCH   6  17
BRANCH   1  19
ATOM     19  S   UNL     1       6.169   5.940  16.322  0.00  0.00    +0.000 S 
BRANCH  19  20
ATOM     20  C   UNL     1       5.463   5.133  14.848  0.00  0.00    +0.000 C 
BRANCH  20  22
ATOM     21  N   UNL     1       6.288   3.851  12.835  0.00  0.00    +0.000 N 
ATOM     22  C   UNL     1       6.582   4.750  13.881  0.00  0.00    +0.000 C 
ATOM     23  O   UNL     1       7.708   5.240  14.010  0.00  0.00    +0.000 OA
BRANCH  21  25
ATOM     24  C   UNL     1       7.300   2.215  11.236  0.00  0.00    +0.000 C 
ATOM     25  C   UNL     1       7.339   3.610  11.843  0.00  0.00    +0.000 C 
ENDBRANCH  21  25
BRANCH  21  26
ATOM     26  C   UNL     1       4.970   3.214  12.716  0.00  0.00    +0.000 C 
ATOM     27  C   UNL     1       4.143   3.477  11.469  0.00  0.00    +0.000 C 
ENDBRANCH  21  26
ENDBRANCH  20  22
ENDBRANCH  19  20
ENDBRANCH   1  19
TORSDOF 7
ENDMDL
MODEL 8
REMARK VINA RESULT:      -6.5      3.886      6.688
REMARK  Name = 
REMARK  9 active torsions:
REMARK  status: ('A' for Active; 'I' for Inactive)
REMARK    1  A    between atoms: C_1  and  C_2
REMARK    2  A    between atoms: C_2  and  N_3
REMARK    3  A    between atoms: N_3  and  C_4
REMARK    4  A    between atoms: C_4  and  C_5
REMARK    5  A    between atoms: C_6  and  C_8
REMARK    6  A    between atoms: C_8  and  S_9
REMARK    7  A    between atoms: S_9  and  C_10
REMARK    8  A    between atoms: C_14  and  C_15
REMARK    9  A    between atoms: C_21  and  C_22
REMARK                            x       y       z     vdW  Elec       q    Type
REMARK                         _______ _______ _______ _____ _____    ______ ____
ROOT
ATOM      1  C   UNL     1       4.313   5.075  16.686  0.00  0.00    +0.000 A 
ATOM      2  N   UNL     1       4.071   6.401  16.635  0.00  0.00    +0.000 NA
ATOM      3  C   UNL     1       3.306   6.957  17.600  0.00  0.00    +0.000 A 
ATOM      4  C   UNL     1       2.772   6.228  18.680  0.00  0.00    +0.000 A 
ATOM      5  C   UNL     1       2.977   4.813  18.724  0.00  0.00    +0.000 A 
ATOM      6  C   UNL     1       3.764   4.246  17.675  0.00  0.00    +0.000 A 
ATOM      7  C   UNL     1       1.952   6.972  19.722  0.00  0.00    +0.000 C 
ATOM      8  C   UNL     1       2.085   8.495  19.704  0.00  0.00    +0.000 C 
ATOM      9  C   UNL     1       1.960   8.997  18.278  0.00  0.00    +0.000 C 
ATOM     10  C   UNL     1       3.116   8.449  17.457  0.00  0.00    +0.000 C 
ENDROOT
BRANCH   5  11
ATOM     11  C   UNL     1       2.403   3.955  19.821  0.00  0.00    +0.000 A 
ATOM     12  C   UNL     1       1.075   3.494  19.818  0.00  0.00    +0.000 A 
ATOM     13  C   UNL     1       0.563   2.734  20.875  0.00  0.00    +0.000 A 
ATOM     14  C   UNL     1       1.412   2.376  21.900  0.00  0.00    +0.000 A 
ATOM     15  N   UNL     1       2.696   2.768  21.957  0.00  0.00    +0.000 NA
ATOM     16  C   UNL     1       3.137   3.564  20.948  0.00  0.00    +0.000 A 
ENDBRANCH   5  11
BRANCH   6  17
ATOM     17  C   UNL     1       3.982   2.828  17.574  0.00  0.00    +0.000 C 
ATOM     18  N   UNL     1       4.152   1.679  17.535  0.00  0.00    +0.000 NA
ENDBRANCH   6  17
BRANCH   1  19
ATOM     19  S   UNL     1       5.386   4.425  15.395  0.00  0.00    +0.000 S 
BRANCH  19  20
ATOM     20  C   UNL     1       6.835   5.522  15.531  0.00  0.00    +0.000 C 
BRANCH  20  22
ATOM     21  N   UNL     1       7.636   6.385  17.764  0.00  0.00    +0.000 N 
ATOM     22  C   UNL     1       7.531   5.298  16.872  0.00  0.00    +0.000 C 
ATOM     23  O   UNL     1       7.968   4.182  17.165  0.00  0.00    +0.000 OA
BRANCH  21  25
ATOM     24  C   UNL     1       7.213   5.387  20.019  0.00  0.00    +0.000 C 
ATOM     25  C   UNL     1       8.183   6.109  19.096  0.00  0.00    +0.000 C 
ENDBRANCH  21  25
BRANCH  21  26
ATOM     26  C   UNL     1       7.179   7.731  17.395  0.00  0.00    +0.000 C 
ATOM     27  C   UNL     1       8.024   8.926  17.803  0.00  0.00    +0.000 C 
ENDBRANCH  21  26
ENDBRANCH  20  22
ENDBRANCH  19  20
ENDBRANCH   1  19
TORSDOF 7
ENDMDL
MODEL 9
REMARK VINA RESULT:      -6.4      0.891      1.224
REMARK  Name = 
REMARK  9 active torsions:
REMARK  status: ('A' for Active; 'I' for Inactive)
REMARK    1  A    between atoms: C_1  and  C_2
REMARK    2  A    between atoms: C_2  and  N_3
REMARK    3  A    between atoms: N_3  and  C_4
REMARK    4  A    between atoms: C_4  and  C_5
REMARK    5  A    between atoms: C_6  and  C_8
REMARK    6  A    between atoms: C_8  and  S_9
REMARK    7  A    between atoms: S_9  and  C_10
REMARK    8  A    between atoms: C_14  and  C_15
REMARK    9  A    between atoms: C_21  and  C_22
REMARK                            x       y       z     vdW  Elec       q    Type
REMARK                         _______ _______ _______ _____ _____    ______ ____
ROOT
ATOM      1  C   UNL     1       3.023   8.018  18.167  0.00  0.00    +0.000 A 
ATOM      2  N   UNL     1       3.892   7.732  17.175  0.00  0.00    +0.000 NA
ATOM      3  C   UNL     1       4.262   6.446  16.991  0.00  0.00    +0.000 A 
ATOM      4  C   UNL     1       3.764   5.378  17.762  0.00  0.00    +0.000 A 
ATOM      5  C   UNL     1       2.881   5.669  18.849  0.00  0.00    +0.000 A 
ATOM      6  C   UNL     1       2.528   7.039  19.041  0.00  0.00    +0.000 A 
ATOM      7  C   UNL     1       4.233   3.969  17.438  0.00  0.00    +0.000 C 
ATOM      8  C   UNL     1       4.915   3.795  16.081  0.00  0.00    +0.000 C 
ATOM      9  C   UNL     1       5.939   4.897  15.884  0.00  0.00    +0.000 C 
ATOM     10  C   UNL     1       5.221   6.237  15.842  0.00  0.00    +0.000 C 
ENDROOT
BRANCH   5  11
ATOM     11  C   UNL     1       2.337   4.589  19.749  0.00  0.00    +0.000 A 
ATOM     12  C   UNL     1       2.928   4.247  20.978  0.00  0.00    +0.000 A 
ATOM     13  C   UNL     1       2.421   3.209  21.768  0.00  0.00    +0.000 A 
ATOM     14  C   UNL     1       1.273   2.567  21.354  0.00  0.00    +0.000 A 
ATOM     15  N   UNL     1       0.649   2.856  20.199  0.00  0.00    +0.000 NA
ATOM     16  C   UNL     1       1.213   3.820  19.425  0.00  0.00    +0.000 A 
ENDBRANCH   5  11
BRANCH   6  17
ATOM     17  C   UNL     1       1.703   7.462  20.140  0.00  0.00    +0.000 C 
ATOM     18  N   UNL     1       1.008   7.775  21.018  0.00  0.00    +0.000 NA
ENDBRANCH   6  17
BRANCH   1  19
ATOM     19  S   UNL     1       2.538   9.746  18.307  0.00  0.00    +0.000 S 
BRANCH  19  20
ATOM     20  C   UNL     1       0.740   9.650  18.030  0.00  0.00    +0.000 C 
BRANCH  20  22
ATOM     21  N   UNL     1      -1.321  10.941  18.709  0.00  0.00    +0.000 N 
ATOM     22  C   UNL     1       0.016  10.593  18.990  0.00  0.00    +0.000 C 
ATOM     23  O   UNL     1       0.593  11.016  19.995  0.00  0.00    +0.000 OA
BRANCH  21  25
ATOM     24  C   UNL     1      -1.731  13.223  19.649  0.00  0.00    +0.000 C 
ATOM     25  C   UNL     1      -2.034  11.733  19.715  0.00  0.00    +0.000 C 
ENDBRANCH  21  25
BRANCH  21  26
ATOM     26  C   UNL     1      -1.991  10.495  17.480  0.00  0.00    +0.000 C 
ATOM     27  C   UNL     1      -3.374   9.875  17.587  0.00  0.00    +0.000 C 
ENDBRANCH  21  26
ENDBRANCH  20  22
ENDBRANCH  19  20
ENDBRANCH   1  19
TORSDOF 7
ENDMDL
