MODEL 1
REMARK VINA RESULT:      -5.5      0.000      0.000
REMARK  Name = 
REMARK  4 active torsions:
REMARK  status: ('A' for Active; 'I' for Inactive)
REMARK    1  A    between atoms: C_1  and  C_2
REMARK    2  A    between atoms: C_2  and  N_3
REMARK    3  A    between atoms: N_10  and  O_11
REMARK    4  A    between atoms: O_11  and  C_12
REMARK                            x       y       z     vdW  Elec       q    Type
REMARK                         _______ _______ _______ _____ _____    ______ ____
ROOT
ATOM      1  N   UNL     1       6.441   5.721  17.568  0.00  0.00    +0.000 N 
ATOM      2  C   UNL     1       7.451   6.653  17.596  0.00  0.00    +0.000 C 
ATOM      3  O   UNL     1       7.795   7.387  16.680  0.00  0.00    +0.000 OA
ATOM      4  N   UNL     1       8.064   6.644  18.810  0.00  0.00    +0.000 N 
ATOM      5  C   UNL     1       7.571   5.643  19.570  0.00  0.00    +0.000 C 
ATOM      6  O   UNL     1       8.006   5.204  20.608  0.00  0.00    +0.000 OA
ATOM      7  C   UNL     1       6.378   5.109  18.784  0.00  0.00    +0.000 C 
ATOM      8  N   UNL     1       5.552   4.260  19.301  0.00  0.00    +0.000 NA
ATOM      9  H   UNL     1       8.896   7.169  19.022  0.00  0.00    +0.000 HD
ENDROOT
BRANCH   1  11
ATOM     10  C   UNL     1       6.335   4.363  15.503  0.00  0.00    +0.000 C 
ATOM     11  C   UNL     1       5.675   5.432  16.364  0.00  0.00    +0.000 C 
ENDBRANCH   1  11
BRANCH   8  12
ATOM     12  O   UNL     1       4.465   3.990  18.463  0.00  0.00    +0.000 OA
ATOM     13  C   UNL     1       3.916   2.728  18.818  0.00  0.00    +0.000 C 
ENDBRANCH   8  12
TORSDOF 2
ENDMDL
MODEL 2
REMARK VINA RESULT:      -5.4      1.995      2.464
REMARK  Name = 
REMARK  4 active torsions:
REMARK  status: ('A' for Active; 'I' for Inactive)
REMARK    1  A    between atoms: C_1  and  C_2
REMARK    2  A    between atoms: C_2  and  N_3
REMARK    3  A    between atoms: N_10  and  O_11
REMARK    4  A    between atoms: O_11  and  C_12
REMARK                            x       y       z     vdW  Elec       q    Type
REMARK                         _______ _______ _______ _____ _____    ______ ____
ROOT
ATOM      1  N   UNL     1       5.080   5.430  17.244  0.00  0.00    +0.000 N 
ATOM      2  C   UNL     1       5.750   6.094  16.244  0.00  0.00    +0.000 C 
ATOM      3  O   UNL     1       5.264   6.846  15.412  0.00  0.00    +0.000 OA
ATOM      4  N   UNL     1       7.073   5.781  16.280  0.00  0.00    +0.000 N 
ATOM      5  C   UNL     1       7.299   4.827  17.208  0.00  0.00    +0.000 C 
ATOM      6  O   UNL     1       8.295   4.164  17.377  0.00  0.00    +0.000 OA
ATOM      7  C   UNL     1       5.977   4.691  17.956  0.00  0.00    +0.000 C 
ATOM      8  N   UNL     1       5.880   3.991  19.038  0.00  0.00    +0.000 NA
ATOM      9  H   UNL     1       7.736   6.069  15.580  0.00  0.00    +0.000 HD
ENDROOT
BRANCH   1  11
ATOM     10  C   UNL     1       3.172   6.771  18.073  0.00  0.00    +0.000 C 
ATOM     11  C   UNL     1       3.632   5.489  17.389  0.00  0.00    +0.000 C 
ENDBRANCH   1  11
BRANCH   8  12
ATOM     12  O   UNL     1       4.617   4.093  19.632  0.00  0.00    +0.000 OA
ATOM     13  C   UNL     1       4.106   2.784  19.845  0.00  0.00    +0.000 C 
ENDBRANCH   8  12
TORSDOF 2
ENDMDL
MODEL 3
REMARK VINA RESULT:      -5.3      2.224      4.422
REMARK  Name = 
REMARK  4 active torsions:
REMARK  status: ('A' for Active; 'I' for Inactive)
REMARK    1  A    between atoms: C_1  and  C_2
REMARK    2  A    between atoms: C_2  and  N_3
REMARK    3  A    between atoms: N_10  and  O_11
REMARK    4  A    between atoms: O_11  and  C_12
REMARK                            x       y       z     vdW  Elec       q    Type
REMARK                         _______ _______ _______ _____ _____    ______ ____
ROOT
ATOM      1  N   UNL     1       3.965   4.237  18.074  0.00  0.00    +0.000 N 
ATOM      2  C   UNL     1       3.069   3.207  17.916  0.00  0.00    +0.000 C 
ATOM      3  O   UNL     1       2.084   3.198  17.191  0.00  0.00    +0.000 OA
ATOM      4  N   UNL     1       3.412   2.161  18.716  0.00  0.00    +0.000 N 
ATOM      5  C   UNL     1       4.454   2.503  19.503  0.00  0.00    +0.000 C 
ATOM      6  O   UNL     1       4.892   1.918  20.465  0.00  0.00    +0.000 OA
ATOM      7  C   UNL     1       4.917   3.855  18.971  0.00  0.00    +0.000 C 
ATOM      8  N   UNL     1       6.017   4.400  19.374  0.00  0.00    +0.000 NA
ATOM      9  H   UNL     1       2.842   1.342  18.842  0.00  0.00    +0.000 HD
ENDROOT
BRANCH   1  11
ATOM     10  C   UNL     1       2.928   6.478  18.237  0.00  0.00    +0.000 C 
ATOM     11  C   UNL     1       3.796   5.529  17.421  0.00  0.00    +0.000 C 
ENDBRANCH   1  11
BRANCH   8  12
ATOM     12  O   UNL     1       6.320   5.576  18.677  0.00  0.00    +0.000 OA
ATOM     13  C   UNL     1       7.666   5.936  18.954  0.00  0.00    +0.000 C 
ENDBRANCH   8  12
TORSDOF 2
ENDMDL
MODEL 4
REMARK VINA RESULT:      -5.2      2.929      4.699
REMARK  Name = 
REMARK  4 active torsions:
REMARK  status: ('A' for Active; 'I' for Inactive)
REMARK    1  A    between atoms: C_1  and  C_2
REMARK    2  A    between atoms: C_2  and  N_3
REMARK    3  A    between atoms: N_10  and  O_11
REMARK    4  A    between atoms: O_11  and  C_12
REMARK                            x       y       z     vdW  Elec       q    Type
REMARK                         _______ _______ _______ _____ _____    ______ ____
ROOT
ATOM      1  N   UNL     1       3.073   3.941  18.871  0.00  0.00    +0.000 N 
ATOM      2  C   UNL     1       3.841   2.802  18.895  0.00  0.00    +0.000 C 
ATOM      3  O   UNL     1       3.444   1.649  18.804  0.00  0.00    +0.000 OA
ATOM      4  N   UNL     1       5.152   3.125  19.061  0.00  0.00    +0.000 N 
ATOM      5  C   UNL     1       5.279   4.452  19.271  0.00  0.00    +0.000 C 
ATOM      6  O   UNL     1       6.248   5.063  19.656  0.00  0.00    +0.000 OA
ATOM      7  C   UNL     1       3.890   5.023  19.003  0.00  0.00    +0.000 C 
ATOM      8  N   UNL     1       3.684   6.297  18.931  0.00  0.00    +0.000 NA
ATOM      9  H   UNL     1       5.881   2.448  19.212  0.00  0.00    +0.000 HD
ENDROOT
BRANCH   1  11
ATOM     10  C   UNL     1       0.982   3.836  20.191  0.00  0.00    +0.000 C 
ATOM     11  C   UNL     1       1.618   3.902  18.808  0.00  0.00    +0.000 C 
ENDBRANCH   1  11
BRANCH   8  12
ATOM     12  O   UNL     1       2.371   6.608  18.559  0.00  0.00    +0.000 OA
ATOM     13  C   UNL     1       2.345   7.932  18.043  0.00  0.00    +0.000 C 
ENDBRANCH   8  12
TORSDOF 2
ENDMDL
MODEL 5
REMARK VINA RESULT:      -5.2      2.619      5.077
REMARK  Name = 
REMARK  4 active torsions:
REMARK  status: ('A' for Active; 'I' for Inactive)
REMARK    1  A    between atoms: C_1  and  C_2
REMARK    2  A    between atoms: C_2  and  N_3
REMARK    3  A    between atoms: N_10  and  O_11
REMARK    4  A    between atoms: O_11  and  C_12
REMARK                            x       y       z     vdW  Elec       q    Type
REMARK                         _______ _______ _______ _____ _____    ______ ____
ROOT
ATOM      1  N   UNL     1       3.034   4.367  18.398  0.00  0.00    +0.000 N 
ATOM      2  C   UNL     1       2.051   3.701  17.707  0.00  0.00    +0.000 C 
ATOM      3  O   UNL     1       1.018   4.179  17.260  0.00  0.00    +0.000 OA
ATOM      4  N   UNL     1       2.369   2.383  17.593  0.00  0.00    +0.000 N 
ATOM      5  C   UNL     1       3.490   2.115  18.296  0.00  0.00    +0.000 C 
ATOM      6  O   UNL     1       3.950   1.039  18.595  0.00  0.00    +0.000 OA
ATOM      7  C   UNL     1       4.017   3.481  18.724  0.00  0.00    +0.000 C 
ATOM      8  N   UNL     1       5.183   3.618  19.264  0.00  0.00    +0.000 NA
ATOM      9  H   UNL     1       1.747   1.687  17.217  0.00  0.00    +0.000 HD
ENDROOT
BRANCH   1  11
ATOM     10  C   UNL     1       2.174   5.968  20.078  0.00  0.00    +0.000 C 
ATOM     11  C   UNL     1       2.919   5.773  18.763  0.00  0.00    +0.000 C 
ENDBRANCH   1  11
BRANCH   8  12
ATOM     12  O   UNL     1       5.524   4.959  19.471  0.00  0.00    +0.000 OA
ATOM     13  C   UNL     1       6.647   5.274  18.658  0.00  0.00    +0.000 C 
ENDBRANCH   8  12
TORSDOF 2
ENDMDL
MODEL 6
REMARK VINA RESULT:      -5.2      1.890      3.499
REMARK  Name = 
REMARK  4 active torsions:
REMARK  status: ('A' for Active; 'I' for Inactive)
REMARK    1  A    between atoms: C_1  and  C_2
REMARK    2  A    between atoms: C_2  and  N_3
REMARK    3  A    between atoms: N_10  and  O_11
REMARK    4  A    between atoms: O_11  and  C_12
REMARK                            x       y       z     vdW  Elec       q    Type
REMARK                         _______ _______ _______ _____ _____    ______ ____
ROOT
ATOM      1  N   UNL     1       5.770   4.763  17.301  0.00  0.00    +0.000 N 
ATOM      2  C   UNL     1       6.345   4.975  18.532  0.00  0.00    +0.000 C 
ATOM      3  O   UNL     1       6.098   4.375  19.568  0.00  0.00    +0.000 OA
ATOM      4  N   UNL     1       7.244   5.994  18.459  0.00  0.00    +0.000 N 
ATOM      5  C   UNL     1       7.207   6.558  17.233  0.00  0.00    +0.000 C 
ATOM      6  O   UNL     1       7.703   7.598  16.870  0.00  0.00    +0.000 OA
ATOM      7  C   UNL     1       6.313   5.638  16.408  0.00  0.00    +0.000 C 
ATOM      8  N   UNL     1       6.201   5.773  15.128  0.00  0.00    +0.000 NA
ATOM      9  H   UNL     1       7.707   6.390  19.260  0.00  0.00    +0.000 HD
ENDROOT
BRANCH   1  11
ATOM     10  C   UNL     1       3.328   4.386  17.434  0.00  0.00    +0.000 C 
ATOM     11  C   UNL     1       4.694   3.803  17.095  0.00  0.00    +0.000 C 
ENDBRANCH   1  11
BRANCH   8  12
ATOM     12  O   UNL     1       5.432   4.758  14.547  0.00  0.00    +0.000 OA
ATOM     13  C   UNL     1       6.276   3.957  13.731  0.00  0.00    +0.000 C 
ENDBRANCH   8  12
TORSDOF 2
ENDMDL
MODEL 7
REMARK VINA RESULT:      -5.0      2.114      3.013
REMARK  Name = 
REMARK  4 active torsions:
REMARK  status: ('A' for Active; 'I' for Inactive)
REMARK    1  A    between atoms: C_1  and  C_2
REMARK    2  A    between atoms: C_2  and  N_3
REMARK    3  A    between atoms: N_10  and  O_11
REMARK    4  A    between atoms: O_11  and  C_12
REMARK                            x       y       z     vdW  Elec       q    Type
REMARK                         _______ _______ _______ _____ _____    ______ ____
ROOT
ATOM      1  N   UNL     1       4.359   4.271  17.665  0.00  0.00    +0.000 N 
ATOM      2  C   UNL     1       5.527   4.058  16.972  0.00  0.00    +0.000 C 
ATOM      3  O   UNL     1       5.645   3.495  15.892  0.00  0.00    +0.000 OA
ATOM      4  N   UNL     1       6.584   4.550  17.673  0.00  0.00    +0.000 N 
ATOM      5  C   UNL     1       6.174   4.987  18.883  0.00  0.00    +0.000 C 
ATOM      6  O   UNL     1       6.847   5.291  19.839  0.00  0.00    +0.000 OA
ATOM      7  C   UNL     1       4.652   4.927  18.823  0.00  0.00    +0.000 C 
ATOM      8  N   UNL     1       3.917   5.448  19.750  0.00  0.00    +0.000 NA
ATOM      9  H   UNL     1       7.545   4.414  17.407  0.00  0.00    +0.000 HD
ENDROOT
BRANCH   1  11
ATOM     10  C   UNL     1       2.793   2.356  17.730  0.00  0.00    +0.000 C 
ATOM     11  C   UNL     1       3.074   3.759  17.209  0.00  0.00    +0.000 C 
ENDBRANCH   1  11
BRANCH   8  12
ATOM     12  O   UNL     1       2.551   5.392  19.447  0.00  0.00    +0.000 OA
ATOM     13  C   UNL     1       1.838   5.034  20.622  0.00  0.00    +0.000 C 
ENDBRANCH   8  12
TORSDOF 2
ENDMDL
MODEL 8
REMARK VINA RESULT:      -5.0      1.923      4.587
REMARK  Name = 
REMARK  4 active torsions:
REMARK  status: ('A' for Active; 'I' for Inactive)
REMARK    1  A    between atoms: C_1  and  C_2
REMARK    2  A    between atoms: C_2  and  N_3
REMARK    3  A    between atoms: N_10  and  O_11
REMARK    4  A    between atoms: O_11  and  C_12
REMARK                            x       y       z     vdW  Elec       q    Type
REMARK                         _______ _______ _______ _____ _____    ______ ____
ROOT
ATOM      1  N   UNL     1       6.027   4.913  17.240  0.00  0.00    +0.000 N 
ATOM      2  C   UNL     1       5.252   4.038  16.518  0.00  0.00    +0.000 C 
ATOM      3  O   UNL     1       4.436   3.243  16.964  0.00  0.00    +0.000 OA
ATOM      4  N   UNL     1       5.529   4.151  15.191  0.00  0.00    +0.000 N 
ATOM      5  C   UNL     1       6.562   5.000  15.004  0.00  0.00    +0.000 C 
ATOM      6  O   UNL     1       7.210   5.186  14.002  0.00  0.00    +0.000 OA
ATOM      7  C   UNL     1       6.807   5.622  16.375  0.00  0.00    +0.000 C 
ATOM      8  N   UNL     1       7.610   6.622  16.532  0.00  0.00    +0.000 NA
ATOM      9  H   UNL     1       5.157   3.537  14.486  0.00  0.00    +0.000 HD
ENDROOT
BRANCH   1  11
ATOM     10  C   UNL     1       4.724   5.509  19.256  0.00  0.00    +0.000 C 
ATOM     11  C   UNL     1       6.023   4.944  18.696  0.00  0.00    +0.000 C 
ENDBRANCH   1  11
BRANCH   8  12
ATOM     12  O   UNL     1       7.601   7.118  17.840  0.00  0.00    +0.000 OA
ATOM     13  C   UNL     1       7.909   8.505  17.804  0.00  0.00    +0.000 C 
ENDBRANCH   8  12
TORSDOF 2
ENDMDL
MODEL 9
REMARK VINA RESULT:      -5.0      2.774      5.309
REMARK  Name = 
REMARK  4 active torsions:
REMARK  status: ('A' for Active; 'I' for Inactive)
REMARK    1  A    between atoms: C_1  and  C_2
REMARK    2  A    between atoms: C_2  and  N_3
REMARK    3  A    between atoms: N_10  and  O_11
REMARK    4  A    between atoms: O_11  and  C_12
REMARK                            x       y       z     vdW  Elec       q    Type
REMARK                         _______ _______ _______ _____ _____    ______ ____
ROOT
ATOM      1  N   UNL     1       3.208   3.621  20.071  0.00  0.00    +0.000 N 
ATOM      2  C   UNL     1       1.957   3.687  20.637  0.00  0.00    +0.000 C 
ATOM      3  O   UNL     1       1.293   2.750  21.057  0.00  0.00    +0.000 OA
ATOM      4  N   UNL     1       1.519   4.975  20.656  0.00  0.00    +0.000 N 
ATOM      5  C   UNL     1       2.394   5.772  20.006  0.00  0.00    +0.000 C 
ATOM      6  O   UNL     1       2.244   6.914  19.645  0.00  0.00    +0.000 OA
ATOM      7  C   UNL     1       3.602   4.881  19.734  0.00  0.00    +0.000 C 
ATOM      8  N   UNL     1       4.713   5.366  19.284  0.00  0.00    +0.000 NA
ATOM      9  H   UNL     1       0.589   5.247  20.929  0.00  0.00    +0.000 HD
ENDROOT
BRANCH   1  11
ATOM     10  C   UNL     1       3.476   1.729  18.499  0.00  0.00    +0.000 C 
ATOM     11  C   UNL     1       3.889   2.358  19.824  0.00  0.00    +0.000 C 
ENDBRANCH   1  11
BRANCH   8  12
ATOM     12  O   UNL     1       5.729   4.406  19.218  0.00  0.00    +0.000 OA
ATOM     13  C   UNL     1       6.546   4.684  18.089  0.00  0.00    +0.000 C 
ENDBRANCH   8  12
TORSDOF 2
ENDMDL
