MODEL 1
REMARK VINA RESULT:      -8.1      0.000      0.000
REMARK  Name = 
REMARK  10 active torsions:
REMARK  status: ('A' for Active; 'I' for Inactive)
REMARK    1  A    between atoms: C_1  and  O_2
REMARK    2  A    between atoms: O_2  and  C_3
REMARK    3  A    between atoms: C_3  and  C_5
REMARK    4  A    between atoms: C_5  and  C_6
REMARK    5  A    between atoms: C_5  and  N_7
REMARK    6  A    between atoms: N_7  and  C_8
REMARK    7  A    between atoms: C_9  and  C_10
REMARK    8  A    between atoms: N_12  and  C_13
REMARK    9  A    between atoms: C_13  and  C_14
REMARK   10  A    between atoms: N_24  and  O_25
REMARK                            x       y       z     vdW  Elec       q    Type
REMARK                         _______ _______ _______ _____ _____    ______ ____
ROOT
ATOM      1  C   UNL     1      -0.611  10.518  18.953  0.00  0.00    +0.000 A 
ATOM      2  C   UNL     1       0.462   9.785  19.363  0.00  0.00    +0.000 A 
ATOM      3  C   UNL     1       0.764   9.659  20.827  0.00  0.00    +0.000 A 
ATOM      4  O   UNL     1       1.612   8.868  21.254  0.00  0.00    +0.000 OA
ATOM      5  N   UNL     1       0.086  10.469  21.683  0.00  0.00    +0.000 N 
ATOM      6  C   UNL     1      -0.986  11.290  21.331  0.00  0.00    +0.000 A 
ATOM      7  N   UNL     1      -1.601  12.002  22.314  0.00  0.00    +0.000 NA
ATOM      8  C   UNL     1      -2.662  12.752  21.972  0.00  0.00    +0.000 A 
ATOM      9  C   UNL     1      -3.152  12.818  20.685  0.00  0.00    +0.000 A 
ATOM     10  C   UNL     1      -2.508  12.081  19.689  0.00  0.00    +0.000 A 
ATOM     11  C   UNL     1      -1.376  11.301  19.988  0.00  0.00    +0.000 A 
ENDROOT
BRANCH   2  12
ATOM     12  C   UNL     1       1.443   9.188  18.378  0.00  0.00    +0.000 C 
ATOM     13  O   UNL     1       1.842   9.786  17.380  0.00  0.00    +0.000 OA
ATOM     14  N   UNL     1       1.936   7.944  18.703  0.00  0.00    +0.000 N 
ATOM     15  H   UNL     1       1.717   7.564  19.625  0.00  0.00    +0.000 HD
BRANCH  14  16
ATOM     16  C   UNL     1       3.069   7.354  18.029  0.00  0.00    +0.000 C 
BRANCH  16  17
ATOM     17  C   UNL     1       2.905   5.865  17.872  0.00  0.00    +0.000 A 
ATOM     18  C   UNL     1       1.700   5.237  18.220  0.00  0.00    +0.000 A 
ATOM     19  C   UNL     1       1.546   3.859  18.045  0.00  0.00    +0.000 A 
ATOM     20  C   UNL     1       2.593   3.112  17.513  0.00  0.00    +0.000 A 
ATOM     21  F   UNL     1       2.437   1.793  17.339  0.00  0.00    +0.000 F 
ATOM     22  C   UNL     1       3.791   3.713  17.157  0.00  0.00    +0.000 A 
ATOM     23  C   UNL     1       3.936   5.084  17.337  0.00  0.00    +0.000 A 
ATOM     24  F   UNL     1       5.095   5.661  16.988  0.00  0.00    +0.000 F 
ENDBRANCH  16  17
ENDBRANCH  14  16
ENDBRANCH   2  12
BRANCH   1  25
ATOM     25  N   UNL     1      -1.048  10.690  17.641  0.00  0.00    +0.000 N 
ATOM     26  H   UNL     1      -0.935  11.618  17.233  0.00  0.00    +0.000 HD
BRANCH  25  27
ATOM     27  C   UNL     1      -1.982   9.840  16.870  0.00  0.00    +0.000 C 
ATOM     28  C   UNL     1      -3.133   9.376  17.757  0.00  0.00    +0.000 C 
BRANCH  27  29
ATOM     29  C   UNL     1      -2.580  10.642  15.701  0.00  0.00    +0.000 C 
ATOM     30  O   UNL     1      -3.047  11.772  15.814  0.00  0.00    +0.000 OA
BRANCH  29  32
ATOM     31  C   UNL     1      -3.723  10.011  13.704  0.00  0.00    +0.000 C 
ATOM     32  O   UNL     1      -2.582   9.893  14.561  0.00  0.00    +0.000 OA
ENDBRANCH  29  32
ENDBRANCH  27  29
ENDBRANCH  25  27
ENDBRANCH   1  25
BRANCH   5  33
ATOM     33  O   UNL     1       0.434  10.402  23.054  0.00  0.00    +0.000 OA
ATOM     34  H   UNL     1      -0.055  11.165  23.424  0.00  0.00    +0.000 HD
ENDBRANCH   5  33
TORSDOF 8
ENDMDL
MODEL 2
REMARK VINA RESULT:      -8.1      3.503      6.520
REMARK  Name = 
REMARK  10 active torsions:
REMARK  status: ('A' for Active; 'I' for Inactive)
REMARK    1  A    between atoms: C_1  and  O_2
REMARK    2  A    between atoms: O_2  and  C_3
REMARK    3  A    between atoms: C_3  and  C_5
REMARK    4  A    between atoms: C_5  and  C_6
REMARK    5  A    between atoms: C_5  and  N_7
REMARK    6  A    between atoms: N_7  and  C_8
REMARK    7  A    between atoms: C_9  and  C_10
REMARK    8  A    between atoms: N_12  and  C_13
REMARK    9  A    between atoms: C_13  and  C_14
REMARK   10  A    between atoms: N_24  and  O_25
REMARK                            x       y       z     vdW  Elec       q    Type
REMARK                         _______ _______ _______ _____ _____    ______ ____
ROOT
ATOM      1  C   UNL     1       2.600   6.574  19.956  0.00  0.00    +0.000 A 
ATOM      2  C   UNL     1       3.366   6.672  18.833  0.00  0.00    +0.000 A 
ATOM      3  C   UNL     1       3.272   7.896  17.971  0.00  0.00    +0.000 A 
ATOM      4  O   UNL     1       4.067   8.107  17.049  0.00  0.00    +0.000 OA
ATOM      5  N   UNL     1       2.258   8.766  18.219  0.00  0.00    +0.000 N 
ATOM      6  C   UNL     1       1.396   8.703  19.315  0.00  0.00    +0.000 A 
ATOM      7  N   UNL     1       0.464   9.683  19.458  0.00  0.00    +0.000 NA
ATOM      8  C   UNL     1      -0.329   9.638  20.542  0.00  0.00    +0.000 A 
ATOM      9  C   UNL     1      -0.227   8.659  21.507  0.00  0.00    +0.000 A 
ATOM     10  C   UNL     1       0.735   7.661  21.344  0.00  0.00    +0.000 A 
ATOM     11  C   UNL     1       1.573   7.645  20.214  0.00  0.00    +0.000 A 
ENDROOT
BRANCH   2  12
ATOM     12  C   UNL     1       4.227   5.524  18.353  0.00  0.00    +0.000 C 
ATOM     13  O   UNL     1       5.067   4.972  19.061  0.00  0.00    +0.000 OA
ATOM     14  N   UNL     1       3.962   5.069  17.081  0.00  0.00    +0.000 N 
ATOM     15  H   UNL     1       3.140   5.435  16.599  0.00  0.00    +0.000 HD
BRANCH  14  16
ATOM     16  C   UNL     1       4.491   3.824  16.573  0.00  0.00    +0.000 C 
BRANCH  16  17
ATOM     17  C   UNL     1       5.378   4.048  15.376  0.00  0.00    +0.000 A 
ATOM     18  C   UNL     1       4.935   3.723  14.085  0.00  0.00    +0.000 A 
ATOM     19  C   UNL     1       5.753   3.961  12.978  0.00  0.00    +0.000 A 
ATOM     20  C   UNL     1       7.009   4.532  13.160  0.00  0.00    +0.000 A 
ATOM     21  F   UNL     1       7.786   4.766  12.094  0.00  0.00    +0.000 F 
ATOM     22  C   UNL     1       7.466   4.866  14.426  0.00  0.00    +0.000 A 
ATOM     23  C   UNL     1       6.646   4.624  15.523  0.00  0.00    +0.000 A 
ATOM     24  F   UNL     1       7.090   4.952  16.745  0.00  0.00    +0.000 F 
ENDBRANCH  16  17
ENDBRANCH  14  16
ENDBRANCH   2  12
BRANCH   1  25
ATOM     25  N   UNL     1       2.608   5.530  20.880  0.00  0.00    +0.000 N 
ATOM     26  H   UNL     1       3.448   5.422  21.448  0.00  0.00    +0.000 HD
BRANCH  25  27
ATOM     27  C   UNL     1       1.740   4.333  20.913  0.00  0.00    +0.000 C 
ATOM     28  C   UNL     1       1.029   4.155  19.575  0.00  0.00    +0.000 C 
BRANCH  27  29
ATOM     29  C   UNL     1       2.589   3.075  21.168  0.00  0.00    +0.000 C 
ATOM     30  O   UNL     1       2.727   2.554  22.272  0.00  0.00    +0.000 OA
BRANCH  29  32
ATOM     31  C   UNL     1       4.444   1.965  20.159  0.00  0.00    +0.000 C 
ATOM     32  O   UNL     1       3.211   2.679  20.021  0.00  0.00    +0.000 OA
ENDBRANCH  29  32
ENDBRANCH  27  29
ENDBRANCH  25  27
ENDBRANCH   1  25
BRANCH   5  33
ATOM     33  O   UNL     1       2.128   9.877  17.350  0.00  0.00    +0.000 OA
ATOM     34  H   UNL     1       2.783  10.502  17.723  0.00  0.00    +0.000 HD
ENDBRANCH   5  33
TORSDOF 8
ENDMDL
MODEL 3
REMARK VINA RESULT:      -8.0      4.092      8.583
REMARK  Name = 
REMARK  10 active torsions:
REMARK  status: ('A' for Active; 'I' for Inactive)
REMARK    1  A    between atoms: C_1  and  O_2
REMARK    2  A    between atoms: O_2  and  C_3
REMARK    3  A    between atoms: C_3  and  C_5
REMARK    4  A    between atoms: C_5  and  C_6
REMARK    5  A    between atoms: C_5  and  N_7
REMARK    6  A    between atoms: N_7  and  C_8
REMARK    7  A    between atoms: C_9  and  C_10
REMARK    8  A    between atoms: N_12  and  C_13
REMARK    9  A    between atoms: C_13  and  C_14
REMARK   10  A    between atoms: N_24  and  O_25
REMARK                            x       y       z     vdW  Elec       q    Type
REMARK                         _______ _______ _______ _____ _____    ______ ____
ROOT
ATOM      1  C   UNL     1       3.397   5.608  18.073  0.00  0.00    +0.000 A 
ATOM      2  C   UNL     1       2.644   6.374  18.912  0.00  0.00    +0.000 A 
ATOM      3  C   UNL     1       1.928   5.735  20.064  0.00  0.00    +0.000 A 
ATOM      4  O   UNL     1       1.382   6.405  20.947  0.00  0.00    +0.000 OA
ATOM      5  N   UNL     1       1.873   4.377  20.097  0.00  0.00    +0.000 N 
ATOM      6  C   UNL     1       2.569   3.525  19.240  0.00  0.00    +0.000 A 
ATOM      7  N   UNL     1       2.457   2.182  19.435  0.00  0.00    +0.000 NA
ATOM      8  C   UNL     1       3.170   1.373  18.633  0.00  0.00    +0.000 A 
ATOM      9  C   UNL     1       4.007   1.842  17.644  0.00  0.00    +0.000 A 
ATOM     10  C   UNL     1       4.110   3.221  17.458  0.00  0.00    +0.000 A 
ATOM     11  C   UNL     1       3.365   4.114  18.251  0.00  0.00    +0.000 A 
ENDROOT
BRANCH   2  12
ATOM     12  C   UNL     1       2.402   7.844  18.647  0.00  0.00    +0.000 C 
ATOM     13  O   UNL     1       2.760   8.410  17.615  0.00  0.00    +0.000 OA
ATOM     14  N   UNL     1       1.677   8.513  19.607  0.00  0.00    +0.000 N 
ATOM     15  H   UNL     1       1.247   7.967  20.356  0.00  0.00    +0.000 HD
BRANCH  14  16
ATOM     16  C   UNL     1       1.126   9.832  19.391  0.00  0.00    +0.000 C 
BRANCH  16  17
ATOM     17  C   UNL     1       0.261  10.266  20.545  0.00  0.00    +0.000 A 
ATOM     18  C   UNL     1       0.328   9.603  21.780  0.00  0.00    +0.000 A 
ATOM     19  C   UNL     1      -0.458  10.029  22.853  0.00  0.00    +0.000 A 
ATOM     20  C   UNL     1      -1.302  11.124  22.695  0.00  0.00    +0.000 A 
ATOM     21  F   UNL     1      -2.047  11.534  23.731  0.00  0.00    +0.000 F 
ATOM     22  C   UNL     1      -1.382  11.797  21.485  0.00  0.00    +0.000 A 
ATOM     23  C   UNL     1      -0.598  11.364  20.422  0.00  0.00    +0.000 A 
ATOM     24  F   UNL     1      -0.675  12.021  19.255  0.00  0.00    +0.000 F 
ENDBRANCH  16  17
ENDBRANCH  14  16
ENDBRANCH   2  12
BRANCH   1  25
ATOM     25  N   UNL     1       4.156   6.058  16.993  0.00  0.00    +0.000 N 
ATOM     26  H   UNL     1       3.807   5.839  16.060  0.00  0.00    +0.000 HD
BRANCH  25  27
ATOM     27  C   UNL     1       5.573   6.484  16.986  0.00  0.00    +0.000 C 
ATOM     28  C   UNL     1       6.254   6.084  18.291  0.00  0.00    +0.000 C 
BRANCH  27  29
ATOM     29  C   UNL     1       6.323   5.797  15.832  0.00  0.00    +0.000 C 
ATOM     30  O   UNL     1       7.542   5.836  15.687  0.00  0.00    +0.000 OA
BRANCH  29  32
ATOM     31  C   UNL     1       5.924   4.121  14.181  0.00  0.00    +0.000 C 
ATOM     32  O   UNL     1       5.441   5.213  14.970  0.00  0.00    +0.000 OA
ENDBRANCH  29  32
ENDBRANCH  27  29
ENDBRANCH  25  27
ENDBRANCH   1  25
BRANCH   5  33
ATOM     33  O   UNL     1       1.127   3.782  21.144  0.00  0.00    +0.000 OA
ATOM     34  H   UNL     1       1.630   4.065  21.935  0.00  0.00    +0.000 HD
ENDBRANCH   5  33
TORSDOF 8
ENDMDL
MODEL 4
REMARK VINA RESULT:      -7.9      3.662      6.500
REMARK  Name = 
REMARK  10 active torsions:
REMARK  status: ('A' for Active; 'I' for Inactive)
REMARK    1  A    between atoms: C_1  and  O_2
REMARK    2  A    between atoms: O_2  and  C_3
REMARK    3  A    between atoms: C_3  and  C_5
REMARK    4  A    between atoms: C_5  and  C_6
REMARK    5  A    between atoms: C_5  and  N_7
REMARK    6  A    between atoms: N_7  and  C_8
REMARK    7  A    between atoms: C_9  and  C_10
REMARK    8  A    between atoms: N_12  and  C_13
REMARK    9  A    between atoms: C_13  and  C_14
REMARK   10  A    between atoms: N_24  and  O_25
REMARK                            x       y       z     vdW  Elec       q    Type
REMARK                         _______ _______ _______ _____ _____    ______ ____
ROOT
ATOM      1  C   UNL     1       2.500   6.515  19.979  0.00  0.00    +0.000 A 
ATOM      2  C   UNL     1       3.088   6.413  18.753  0.00  0.00    +0.000 A 
ATOM      3  C   UNL     1       3.035   7.572  17.803  0.00  0.00    +0.000 A 
ATOM      4  O   UNL     1       3.698   7.591  16.760  0.00  0.00    +0.000 OA
ATOM      5  N   UNL     1       2.206   8.604  18.111  0.00  0.00    +0.000 N 
ATOM      6  C   UNL     1       1.526   8.752  19.320  0.00  0.00    +0.000 A 
ATOM      7  N   UNL     1       0.776   9.873  19.503  0.00  0.00    +0.000 NA
ATOM      8  C   UNL     1       0.164  10.028  20.690  0.00  0.00    +0.000 A 
ATOM      9  C   UNL     1       0.275   9.117  21.717  0.00  0.00    +0.000 A 
ATOM     10  C   UNL     1       1.048   7.973  21.512  0.00  0.00    +0.000 A 
ATOM     11  C   UNL     1       1.688   7.747  20.280  0.00  0.00    +0.000 A 
ENDROOT
BRANCH   2  12
ATOM     12  C   UNL     1       3.691   5.114  18.264  0.00  0.00    +0.000 C 
ATOM     13  O   UNL     1       3.087   4.321  17.543  0.00  0.00    +0.000 OA
ATOM     14  N   UNL     1       5.005   4.897  18.612  0.00  0.00    +0.000 N 
ATOM     15  H   UNL     1       5.520   5.659  19.056  0.00  0.00    +0.000 HD
BRANCH  14  16
ATOM     16  C   UNL     1       5.809   3.858  18.010  0.00  0.00    +0.000 C 
BRANCH  16  17
ATOM     17  C   UNL     1       6.260   4.240  16.625  0.00  0.00    +0.000 A 
ATOM     18  C   UNL     1       5.749   3.580  15.497  0.00  0.00    +0.000 A 
ATOM     19  C   UNL     1       6.151   3.960  14.214  0.00  0.00    +0.000 A 
ATOM     20  C   UNL     1       7.056   5.005  14.059  0.00  0.00    +0.000 A 
ATOM     21  F   UNL     1       7.432   5.371  12.826  0.00  0.00    +0.000 F 
ATOM     22  C   UNL     1       7.571   5.675  15.158  0.00  0.00    +0.000 A 
ATOM     23  C   UNL     1       7.167   5.289  16.431  0.00  0.00    +0.000 A 
ATOM     24  F   UNL     1       7.664   5.942  17.492  0.00  0.00    +0.000 F 
ENDBRANCH  16  17
ENDBRANCH  14  16
ENDBRANCH   2  12
BRANCH   1  25
ATOM     25  N   UNL     1       2.504   5.550  20.986  0.00  0.00    +0.000 N 
ATOM     26  H   UNL     1       3.370   5.435  21.512  0.00  0.00    +0.000 HD
BRANCH  25  27
ATOM     27  C   UNL     1       1.570   4.418  21.170  0.00  0.00    +0.000 C 
ATOM     28  C   UNL     1       0.709   4.231  19.924  0.00  0.00    +0.000 C 
BRANCH  27  29
ATOM     29  C   UNL     1       2.360   3.117  21.397  0.00  0.00    +0.000 C 
ATOM     30  O   UNL     1       1.987   2.209  22.135  0.00  0.00    +0.000 OA
BRANCH  29  32
ATOM     31  C   UNL     1       4.256   1.922  20.579  0.00  0.00    +0.000 C 
ATOM     32  O   UNL     1       3.548   3.157  20.727  0.00  0.00    +0.000 OA
ENDBRANCH  29  32
ENDBRANCH  27  29
ENDBRANCH  25  27
ENDBRANCH   1  25
BRANCH   5  33
ATOM     33  O   UNL     1       2.101   9.656  17.170  0.00  0.00    +0.000 OA
ATOM     34  H   UNL     1       2.750  10.302  17.516  0.00  0.00    +0.000 HD
ENDBRANCH   5  33
TORSDOF 8
ENDMDL
MODEL 5
REMARK VINA RESULT:      -7.8      3.623      6.322
REMARK  Name = 
REMARK  10 active torsions:
REMARK  status: ('A' for Active; 'I' for Inactive)
REMARK    1  A    between atoms: C_1  and  O_2
REMARK    2  A    between atoms: O_2  and  C_3
REMARK    3  A    between atoms: C_3  and  C_5
REMARK    4  A    between atoms: C_5  and  C_6
REMARK    5  A    between atoms: C_5  and  N_7
REMARK    6  A    between atoms: N_7  and  C_8
REMARK    7  A    between atoms: C_9  and  C_10
REMARK    8  A    between atoms: N_12  and  C_13
REMARK    9  A    between atoms: C_13  and  C_14
REMARK   10  A    between atoms: N_24  and  O_25
REMARK                            x       y       z     vdW  Elec       q    Type
REMARK                         _______ _______ _______ _____ _____    ______ ____
ROOT
ATOM      1  C   UNL     1       2.882   6.391  19.810  0.00  0.00    +0.000 A 
ATOM      2  C   UNL     1       3.613   6.493  18.665  0.00  0.00    +0.000 A 
ATOM      3  C   UNL     1       3.470   7.706  17.794  0.00  0.00    +0.000 A 
ATOM      4  O   UNL     1       4.233   7.924  16.847  0.00  0.00    +0.000 OA
ATOM      5  N   UNL     1       2.446   8.559  18.064  0.00  0.00    +0.000 N 
ATOM      6  C   UNL     1       1.618   8.488  19.185  0.00  0.00    +0.000 A 
ATOM      7  N   UNL     1       0.670   9.452  19.346  0.00  0.00    +0.000 NA
ATOM      8  C   UNL     1      -0.089   9.402  20.454  0.00  0.00    +0.000 A 
ATOM      9  C   UNL     1       0.060   8.434  21.424  0.00  0.00    +0.000 A 
ATOM     10  C   UNL     1       1.037   7.454  21.242  0.00  0.00    +0.000 A 
ATOM     11  C   UNL     1       1.842   7.443  20.088  0.00  0.00    +0.000 A 
ENDROOT
BRANCH   2  12
ATOM     12  C   UNL     1       4.483   5.358  18.170  0.00  0.00    +0.000 C 
ATOM     13  O   UNL     1       5.271   4.750  18.893  0.00  0.00    +0.000 OA
ATOM     14  N   UNL     1       4.287   4.981  16.861  0.00  0.00    +0.000 N 
ATOM     15  H   UNL     1       3.502   5.389  16.353  0.00  0.00    +0.000 HD
BRANCH  14  16
ATOM     16  C   UNL     1       4.826   3.757  16.313  0.00  0.00    +0.000 C 
BRANCH  16  17
ATOM     17  C   UNL     1       5.603   4.012  15.048  0.00  0.00    +0.000 A 
ATOM     18  C   UNL     1       5.161   3.497  13.819  0.00  0.00    +0.000 A 
ATOM     19  C   UNL     1       5.872   3.763  12.647  0.00  0.00    +0.000 A 
ATOM     20  C   UNL     1       7.018   4.550  12.700  0.00  0.00    +0.000 A 
ATOM     21  F   UNL     1       7.691   4.809  11.571  0.00  0.00    +0.000 F 
ATOM     22  C   UNL     1       7.471   5.074  13.902  0.00  0.00    +0.000 A 
ATOM     23  C   UNL     1       6.758   4.803  15.065  0.00  0.00    +0.000 A 
ATOM     24  F   UNL     1       7.197   5.314  16.224  0.00  0.00    +0.000 F 
ENDBRANCH  16  17
ENDBRANCH  14  16
ENDBRANCH   2  12
BRANCH   1  25
ATOM     25  N   UNL     1       2.938   5.356  20.743  0.00  0.00    +0.000 N 
ATOM     26  H   UNL     1       3.506   5.515  21.575  0.00  0.00    +0.000 HD
BRANCH  25  27
ATOM     27  C   UNL     1       2.601   3.929  20.546  0.00  0.00    +0.000 C 
ATOM     28  C   UNL     1       2.229   3.283  21.876  0.00  0.00    +0.000 C 
BRANCH  27  29
ATOM     29  C   UNL     1       1.392   3.800  19.603  0.00  0.00    +0.000 C 
ATOM     30  O   UNL     1       0.227   3.959  19.958  0.00  0.00    +0.000 OA
BRANCH  29  32
ATOM     31  C   UNL     1       2.276   2.077  18.210  0.00  0.00    +0.000 C 
ATOM     32  O   UNL     1       1.797   3.418  18.358  0.00  0.00    +0.000 OA
ENDBRANCH  29  32
ENDBRANCH  27  29
ENDBRANCH  25  27
ENDBRANCH   1  25
BRANCH   5  33
ATOM     33  O   UNL     1       2.268   9.657  17.189  0.00  0.00    +0.000 OA
ATOM     34  H   UNL     1       3.185   9.829  16.892  0.00  0.00    +0.000 HD
ENDBRANCH   5  33
TORSDOF 8
ENDMDL
MODEL 6
REMARK VINA RESULT:      -7.8      3.792      8.600
REMARK  Name = 
REMARK  10 active torsions:
REMARK  status: ('A' for Active; 'I' for Inactive)
REMARK    1  A    between atoms: C_1  and  O_2
REMARK    2  A    between atoms: O_2  and  C_3
REMARK    3  A    between atoms: C_3  and  C_5
REMARK    4  A    between atoms: C_5  and  C_6
REMARK    5  A    between atoms: C_5  and  N_7
REMARK    6  A    between atoms: N_7  and  C_8
REMARK    7  A    between atoms: C_9  and  C_10
REMARK    8  A    between atoms: N_12  and  C_13
REMARK    9  A    between atoms: C_13  and  C_14
REMARK   10  A    between atoms: N_24  and  O_25
REMARK                            x       y       z     vdW  Elec       q    Type
REMARK                         _______ _______ _______ _____ _____    ______ ____
ROOT
ATOM      1  C   UNL     1       3.730   5.533  17.741  0.00  0.00    +0.000 A 
ATOM      2  C   UNL     1       3.041   6.486  18.430  0.00  0.00    +0.000 A 
ATOM      3  C   UNL     1       2.214   6.096  19.619  0.00  0.00    +0.000 A 
ATOM      4  O   UNL     1       1.718   6.939  20.374  0.00  0.00    +0.000 OA
ATOM      5  N   UNL     1       2.000   4.770  19.831  0.00  0.00    +0.000 N 
ATOM      6  C   UNL     1       2.623   3.736  19.133  0.00  0.00    +0.000 A 
ATOM      7  N   UNL     1       2.348   2.454  19.500  0.00  0.00    +0.000 NA
ATOM      8  C   UNL     1       2.991   1.467  18.853  0.00  0.00    +0.000 A 
ATOM      9  C   UNL     1       3.912   1.699  17.855  0.00  0.00    +0.000 A 
ATOM     10  C   UNL     1       4.182   3.019  17.490  0.00  0.00    +0.000 A 
ATOM     11  C   UNL     1       3.518   4.090  18.116  0.00  0.00    +0.000 A 
ENDROOT
BRANCH   2  12
ATOM     12  C   UNL     1       2.982   7.923  17.958  0.00  0.00    +0.000 C 
ATOM     13  O   UNL     1       3.737   8.382  17.103  0.00  0.00    +0.000 OA
ATOM     14  N   UNL     1       1.967   8.685  18.491  0.00  0.00    +0.000 N 
ATOM     15  H   UNL     1       1.258   8.218  19.057  0.00  0.00    +0.000 HD
BRANCH  14  16
ATOM     16  C   UNL     1       1.599   9.977  17.956  0.00  0.00    +0.000 C 
BRANCH  16  17
ATOM     17  C   UNL     1       0.458  10.589  18.726  0.00  0.00    +0.000 A 
ATOM     18  C   UNL     1       0.697  11.326  19.896  0.00  0.00    +0.000 A 
ATOM     19  C   UNL     1      -0.365  11.913  20.589  0.00  0.00    +0.000 A 
ATOM     20  C   UNL     1      -1.662  11.773  20.106  0.00  0.00    +0.000 A 
ATOM     21  F   UNL     1      -2.676  12.347  20.769  0.00  0.00    +0.000 F 
ATOM     22  C   UNL     1      -1.921  11.054  18.949  0.00  0.00    +0.000 A 
ATOM     23  C   UNL     1      -0.859  10.470  18.268  0.00  0.00    +0.000 A 
ATOM     24  F   UNL     1      -1.114   9.779  17.147  0.00  0.00    +0.000 F 
ENDBRANCH  16  17
ENDBRANCH  14  16
ENDBRANCH   2  12
BRANCH   1  25
ATOM     25  N   UNL     1       4.575   5.741  16.652  0.00  0.00    +0.000 N 
ATOM     26  H   UNL     1       4.287   5.338  15.760  0.00  0.00    +0.000 HD
BRANCH  25  27
ATOM     27  C   UNL     1       5.999   6.141  16.664  0.00  0.00    +0.000 C 
ATOM     28  C   UNL     1       6.540   6.139  18.090  0.00  0.00    +0.000 C 
BRANCH  27  29
ATOM     29  C   UNL     1       6.833   5.142  15.842  0.00  0.00    +0.000 C 
ATOM     30  O   UNL     1       7.715   4.432  16.316  0.00  0.00    +0.000 OA
BRANCH  29  32
ATOM     31  C   UNL     1       6.114   4.003  13.873  0.00  0.00    +0.000 C 
ATOM     32  O   UNL     1       6.501   5.219  14.521  0.00  0.00    +0.000 OA
ENDBRANCH  29  32
ENDBRANCH  27  29
ENDBRANCH  25  27
ENDBRANCH   1  25
BRANCH   5  33
ATOM     33  O   UNL     1       1.152   4.414  20.907  0.00  0.00    +0.000 OA
ATOM     34  H   UNL     1       0.694   5.259  21.092  0.00  0.00    +0.000 HD
ENDBRANCH   5  33
TORSDOF 8
ENDMDL
MODEL 7
REMARK VINA RESULT:      -7.8      1.262      1.463
REMARK  Name = 
REMARK  10 active torsions:
REMARK  status: ('A' for Active; 'I' for Inactive)
REMARK    1  A    between atoms: C_1  and  O_2
REMARK    2  A    between atoms: O_2  and  C_3
REMARK    3  A    between atoms: C_3  and  C_5
REMARK    4  A    between atoms: C_5  and  C_6
REMARK    5  A    between atoms: C_5  and  N_7
REMARK    6  A    between atoms: N_7  and  C_8
REMARK    7  A    between atoms: C_9  and  C_10
REMARK    8  A    between atoms: N_12  and  C_13
REMARK    9  A    between atoms: C_13  and  C_14
REMARK   10  A    between atoms: N_24  and  O_25
REMARK                            x       y       z     vdW  Elec       q    Type
REMARK                         _______ _______ _______ _____ _____    ______ ____
ROOT
ATOM      1  C   UNL     1      -0.842  10.736  19.090  0.00  0.00    +0.000 A 
ATOM      2  C   UNL     1       0.156   9.985  19.637  0.00  0.00    +0.000 A 
ATOM      3  C   UNL     1       0.347   9.969  21.125  0.00  0.00    +0.000 A 
ATOM      4  O   UNL     1       1.117   9.174  21.675  0.00  0.00    +0.000 OA
ATOM      5  N   UNL     1      -0.341  10.882  21.859  0.00  0.00    +0.000 N 
ATOM      6  C   UNL     1      -1.337  11.724  21.364  0.00  0.00    +0.000 A 
ATOM      7  N   UNL     1      -1.978  12.547  22.238  0.00  0.00    +0.000 NA
ATOM      8  C   UNL     1      -2.968  13.319  21.758  0.00  0.00    +0.000 A 
ATOM      9  C   UNL     1      -3.362  13.301  20.437  0.00  0.00    +0.000 A 
ATOM     10  C   UNL     1      -2.693  12.450  19.555  0.00  0.00    +0.000 A 
ATOM     11  C   UNL     1      -1.632  11.641  19.998  0.00  0.00    +0.000 A 
ENDROOT
BRANCH   2  12
ATOM     12  C   UNL     1       1.167   9.258  18.779  0.00  0.00    +0.000 C 
ATOM     13  O   UNL     1       1.741   9.781  17.824  0.00  0.00    +0.000 OA
ATOM     14  N   UNL     1       1.477   7.976  19.175  0.00  0.00    +0.000 N 
ATOM     15  H   UNL     1       1.115   7.647  20.072  0.00  0.00    +0.000 HD
BRANCH  14  16
ATOM     16  C   UNL     1       2.606   7.247  18.643  0.00  0.00    +0.000 C 
BRANCH  16  17
ATOM     17  C   UNL     1       2.408   5.758  18.766  0.00  0.00    +0.000 A 
ATOM     18  C   UNL     1       2.633   4.913  17.668  0.00  0.00    +0.000 A 
ATOM     19  C   UNL     1       2.475   3.531  17.798  0.00  0.00    +0.000 A 
ATOM     20  C   UNL     1       2.102   2.994  19.026  0.00  0.00    +0.000 A 
ATOM     21  F   UNL     1       1.960   1.667  19.147  0.00  0.00    +0.000 F 
ATOM     22  C   UNL     1       1.879   3.809  20.126  0.00  0.00    +0.000 A 
ATOM     23  C   UNL     1       2.036   5.184  19.987  0.00  0.00    +0.000 A 
ATOM     24  F   UNL     1       1.823   5.968  21.054  0.00  0.00    +0.000 F 
ENDBRANCH  16  17
ENDBRANCH  14  16
ENDBRANCH   2  12
BRANCH   1  25
ATOM     25  N   UNL     1      -1.176  10.818  17.739  0.00  0.00    +0.000 N 
ATOM     26  H   UNL     1      -0.988  11.703  17.270  0.00  0.00    +0.000 HD
BRANCH  25  27
ATOM     27  C   UNL     1      -2.093   9.948  16.970  0.00  0.00    +0.000 C 
ATOM     28  C   UNL     1      -3.146   9.340  17.891  0.00  0.00    +0.000 C 
BRANCH  27  29
ATOM     29  C   UNL     1      -2.825  10.774  15.898  0.00  0.00    +0.000 C 
ATOM     30  O   UNL     1      -3.638  11.659  16.151  0.00  0.00    +0.000 OA
BRANCH  29  32
ATOM     31  C   UNL     1      -3.575  10.037  13.756  0.00  0.00    +0.000 C 
ATOM     32  O   UNL     1      -2.496  10.333  14.650  0.00  0.00    +0.000 OA
ENDBRANCH  29  32
ENDBRANCH  27  29
ENDBRANCH  25  27
ENDBRANCH   1  25
BRANCH   5  33
ATOM     33  O   UNL     1      -0.095  10.913  23.253  0.00  0.00    +0.000 OA
ATOM     34  H   UNL     1      -0.903  10.492  23.610  0.00  0.00    +0.000 HD
ENDBRANCH   5  33
TORSDOF 8
ENDMDL
MODEL 8
REMARK VINA RESULT:      -7.7      3.460      6.378
REMARK  Name = 
REMARK  10 active torsions:
REMARK  status: ('A' for Active; 'I' for Inactive)
REMARK    1  A    between atoms: C_1  and  O_2
REMARK    2  A    between atoms: O_2  and  C_3
REMARK    3  A    between atoms: C_3  and  C_5
REMARK    4  A    between atoms: C_5  and  C_6
REMARK    5  A    between atoms: C_5  and  N_7
REMARK    6  A    between atoms: N_7  and  C_8
REMARK    7  A    between atoms: C_9  and  C_10
REMARK    8  A    between atoms: N_12  and  C_13
REMARK    9  A    between atoms: C_13  and  C_14
REMARK   10  A    between atoms: N_24  and  O_25
REMARK                            x       y       z     vdW  Elec       q    Type
REMARK                         _______ _______ _______ _____ _____    ______ ____
ROOT
ATOM      1  C   UNL     1       2.437   6.632  19.956  0.00  0.00    +0.000 A 
ATOM      2  C   UNL     1       3.085   6.599  18.757  0.00  0.00    +0.000 A 
ATOM      3  C   UNL     1       3.028   7.789  17.846  0.00  0.00    +0.000 A 
ATOM      4  O   UNL     1       3.737   7.874  16.837  0.00  0.00    +0.000 OA
ATOM      5  N   UNL     1       2.142   8.775  18.150  0.00  0.00    +0.000 N 
ATOM      6  C   UNL     1       1.401   8.851  19.329  0.00  0.00    +0.000 A 
ATOM      7  N   UNL     1       0.596   9.933  19.515  0.00  0.00    +0.000 NA
ATOM      8  C   UNL     1      -0.076  10.020  20.675  0.00  0.00    +0.000 A 
ATOM      9  C   UNL     1       0.026   9.076  21.675  0.00  0.00    +0.000 A 
ATOM     10  C   UNL     1       0.855   7.973  21.467  0.00  0.00    +0.000 A 
ATOM     11  C   UNL     1       1.561   7.818  20.260  0.00  0.00    +0.000 A 
ENDROOT
BRANCH   2  12
ATOM     12  C   UNL     1       3.764   5.345  18.253  0.00  0.00    +0.000 C 
ATOM     13  O   UNL     1       3.270   4.608  17.401  0.00  0.00    +0.000 OA
ATOM     14  N   UNL     1       5.026   5.107  18.751  0.00  0.00    +0.000 N 
ATOM     15  H   UNL     1       5.468   5.834  19.315  0.00  0.00    +0.000 HD
BRANCH  14  16
ATOM     16  C   UNL     1       5.915   4.120  18.181  0.00  0.00    +0.000 C 
BRANCH  16  17
ATOM     17  C   UNL     1       6.308   4.479  16.772  0.00  0.00    +0.000 A 
ATOM     18  C   UNL     1       7.064   5.632  16.510  0.00  0.00    +0.000 A 
ATOM     19  C   UNL     1       7.447   5.942  15.203  0.00  0.00    +0.000 A 
ATOM     20  C   UNL     1       7.084   5.096  14.160  0.00  0.00    +0.000 A 
ATOM     21  F   UNL     1       7.463   5.393  12.910  0.00  0.00    +0.000 F 
ATOM     22  C   UNL     1       6.342   3.948  14.396  0.00  0.00    +0.000 A 
ATOM     23  C   UNL     1       5.962   3.648  15.699  0.00  0.00    +0.000 A 
ATOM     24  F   UNL     1       5.248   2.536  15.923  0.00  0.00    +0.000 F 
ENDBRANCH  16  17
ENDBRANCH  14  16
ENDBRANCH   2  12
BRANCH   1  25
ATOM     25  N   UNL     1       2.435   5.632  20.928  0.00  0.00    +0.000 N 
ATOM     26  H   UNL     1       3.285   5.523  21.480  0.00  0.00    +0.000 HD
BRANCH  25  27
ATOM     27  C   UNL     1       1.530   4.467  21.038  0.00  0.00    +0.000 C 
ATOM     28  C   UNL     1       0.768   4.261  19.732  0.00  0.00    +0.000 C 
BRANCH  27  29
ATOM     29  C   UNL     1       2.346   3.192  21.315  0.00  0.00    +0.000 C 
ATOM     30  O   UNL     1       2.112   2.417  22.238  0.00  0.00    +0.000 OA
BRANCH  29  32
ATOM     31  C   UNL     1       3.461   1.920  19.634  0.00  0.00    +0.000 C 
ATOM     32  O   UNL     1       3.392   3.097  20.445  0.00  0.00    +0.000 OA
ENDBRANCH  29  32
ENDBRANCH  27  29
ENDBRANCH  25  27
ENDBRANCH   1  25
BRANCH   5  33
ATOM     33  O   UNL     1       2.037   9.856  17.242  0.00  0.00    +0.000 OA
ATOM     34  H   UNL     1       2.481  10.576  17.733  0.00  0.00    +0.000 HD
ENDBRANCH   5  33
TORSDOF 8
ENDMDL
MODEL 9
REMARK VINA RESULT:      -7.6      3.746      8.671
REMARK  Name = 
REMARK  10 active torsions:
REMARK  status: ('A' for Active; 'I' for Inactive)
REMARK    1  A    between atoms: C_1  and  O_2
REMARK    2  A    between atoms: O_2  and  C_3
REMARK    3  A    between atoms: C_3  and  C_5
REMARK    4  A    between atoms: C_5  and  C_6
REMARK    5  A    between atoms: C_5  and  N_7
REMARK    6  A    between atoms: N_7  and  C_8
REMARK    7  A    between atoms: C_9  and  C_10
REMARK    8  A    between atoms: N_12  and  C_13
REMARK    9  A    between atoms: C_13  and  C_14
REMARK   10  A    between atoms: N_24  and  O_25
REMARK                            x       y       z     vdW  Elec       q    Type
REMARK                         _______ _______ _______ _____ _____    ______ ____
ROOT
ATOM      1  C   UNL     1       3.666   5.323  17.809  0.00  0.00    +0.000 A 
ATOM      2  C   UNL     1       3.049   6.290  18.545  0.00  0.00    +0.000 A 
ATOM      3  C   UNL     1       2.292   5.914  19.784  0.00  0.00    +0.000 A 
ATOM      4  O   UNL     1       1.869   6.765  20.574  0.00  0.00    +0.000 OA
ATOM      5  N   UNL     1       2.058   4.593  20.004  0.00  0.00    +0.000 N 
ATOM      6  C   UNL     1       2.607   3.547  19.262  0.00  0.00    +0.000 A 
ATOM      7  N   UNL     1       2.323   2.271  19.641  0.00  0.00    +0.000 NA
ATOM      8  C   UNL     1       2.896   1.272  18.949  0.00  0.00    +0.000 A 
ATOM      9  C   UNL     1       3.755   1.486  17.893  0.00  0.00    +0.000 A 
ATOM     10  C   UNL     1       4.035   2.801  17.518  0.00  0.00    +0.000 A 
ATOM     11  C   UNL     1       3.441   3.884  18.191  0.00  0.00    +0.000 A 
ENDROOT
BRANCH   2  12
ATOM     12  C   UNL     1       2.996   7.730  18.085  0.00  0.00    +0.000 C 
ATOM     13  O   UNL     1       3.880   8.253  17.408  0.00  0.00    +0.000 OA
ATOM     14  N   UNL     1       1.848   8.419  18.405  0.00  0.00    +0.000 N 
ATOM     15  H   UNL     1       1.068   7.897  18.808  0.00  0.00    +0.000 HD
BRANCH  14  16
ATOM     16  C   UNL     1       1.516   9.697  17.818  0.00  0.00    +0.000 C 
BRANCH  16  17
ATOM     17  C   UNL     1       0.442  10.404  18.603  0.00  0.00    +0.000 A 
ATOM     18  C   UNL     1       0.760  11.123  19.765  0.00  0.00    +0.000 A 
ATOM     19  C   UNL     1      -0.239  11.798  20.472  0.00  0.00    +0.000 A 
ATOM     20  C   UNL     1      -1.551  11.763  20.011  0.00  0.00    +0.000 A 
ATOM     21  F   UNL     1      -2.503  12.420  20.688  0.00  0.00    +0.000 F 
ATOM     22  C   UNL     1      -1.888  11.063  18.862  0.00  0.00    +0.000 A 
ATOM     23  C   UNL     1      -0.888  10.392  18.167  0.00  0.00    +0.000 A 
ATOM     24  F   UNL     1      -1.217   9.719  17.054  0.00  0.00    +0.000 F 
ENDBRANCH  16  17
ENDBRANCH  14  16
ENDBRANCH   2  12
BRANCH   1  25
ATOM     25  N   UNL     1       4.443   5.516  16.668  0.00  0.00    +0.000 N 
ATOM     26  H   UNL     1       4.033   6.075  15.919  0.00  0.00    +0.000 HD
BRANCH  25  27
ATOM     27  C   UNL     1       5.619   4.738  16.221  0.00  0.00    +0.000 C 
ATOM     28  C   UNL     1       5.703   4.730  14.698  0.00  0.00    +0.000 C 
BRANCH  27  29
ATOM     29  C   UNL     1       6.910   5.379  16.761  0.00  0.00    +0.000 C 
ATOM     30  O   UNL     1       7.816   4.747  17.297  0.00  0.00    +0.000 OA
BRANCH  29  32
ATOM     31  C   UNL     1       7.594   7.513  17.579  0.00  0.00    +0.000 C 
ATOM     32  O   UNL     1       6.862   6.736  16.626  0.00  0.00    +0.000 OA
ENDBRANCH  29  32
ENDBRANCH  27  29
ENDBRANCH  25  27
ENDBRANCH   1  25
BRANCH   5  33
ATOM     33  O   UNL     1       1.274   4.252  21.132  0.00  0.00    +0.000 OA
ATOM     34  H   UNL     1       1.891   3.691  21.645  0.00  0.00    +0.000 HD
ENDBRANCH   5  33
TORSDOF 8
ENDMDL
