MODEL 1
REMARK VINA RESULT:      -6.9      0.000      0.000
REMARK  Name = 
REMARK  8 active torsions:
REMARK  status: ('A' for Active; 'I' for Inactive)
REMARK    1  A    between atoms: C_1  and  C_2
REMARK    2  A    between atoms: C_7  and  C_8
REMARK    3  A    between atoms: C_9  and  C_10
REMARK    4  A    between atoms: C_10  and  C_11
REMARK    5  A    between atoms: C_11  and  O_12
REMARK    6  A    between atoms: C_18  and  C_19
REMARK    7  A    between atoms: C_19  and  C_20
REMARK    8  A    between atoms: C_20  and  O_21
REMARK                            x       y       z     vdW  Elec       q    Type
REMARK                         _______ _______ _______ _____ _____    ______ ____
ROOT
ATOM      1  C   UNL     1       4.706   3.693  19.266  0.00  0.00    +0.000 C 
ATOM      2  C   UNL     1       4.450   4.984  18.529  0.00  0.00    +0.000 A 
ATOM      3  N   UNL     1       3.655   5.876  19.221  0.00  0.00    +0.000 NA
ATOM      4  C   UNL     1       3.265   6.941  18.598  0.00  0.00    +0.000 A 
ATOM      5  N   UNL     1       2.400   7.856  19.179  0.00  0.00    +0.000 N 
ATOM      6  N   UNL     1       1.769   7.598  20.403  0.00  0.00    +0.000 N 
ATOM      7  C   UNL     1       0.910   8.662  20.639  0.00  0.00    +0.000 A 
ATOM      8  C   UNL     1       0.191   8.813  21.936  0.00  0.00    +0.000 C 
ATOM      9  C   UNL     1       0.824   9.498  19.587  0.00  0.00    +0.000 A 
ATOM     10  C   UNL     1       1.821   8.992  18.613  0.00  0.00    +0.000 A 
ATOM     11  O   UNL     1       2.086   9.512  17.540  0.00  0.00    +0.000 OA
ATOM     12  N   UNL     1       3.674   7.246  17.332  0.00  0.00    +0.000 N 
ATOM     13  C   UNL     1       4.564   6.486  16.647  0.00  0.00    +0.000 A 
ATOM     14  O   UNL     1       5.029   6.834  15.570  0.00  0.00    +0.000 OA
ATOM     15  C   UNL     1       4.931   5.202  17.287  0.00  0.00    +0.000 A 
ATOM     16  H   UNL     1       2.401   7.343  21.161  0.00  0.00    +0.000 HD
ATOM     17  H   UNL     1       3.384   8.119  16.903  0.00  0.00    +0.000 HD
ENDROOT
BRANCH   9  18
ATOM     18  C   UNL     1      -0.000  10.708  19.334  0.00  0.00    +0.000 C 
BRANCH  18  19
ATOM     19  C   UNL     1      -1.296  10.401  18.581  0.00  0.00    +0.000 C 
BRANCH  19  20
ATOM     20  O   UNL     1      -1.032  10.072  17.221  0.00  0.00    +0.000 OA
ATOM     21  H   UNL     1      -1.782  10.397  16.691  0.00  0.00    +0.000 HD
ENDBRANCH  19  20
ENDBRANCH  18  19
ENDBRANCH   9  18
BRANCH  15  22
ATOM     22  C   UNL     1       5.726   4.248  16.431  0.00  0.00    +0.000 C 
BRANCH  22  23
ATOM     23  C   UNL     1       7.232   4.498  16.463  0.00  0.00    +0.000 C 
BRANCH  23  24
ATOM     24  O   UNL     1       7.629   5.339  15.385  0.00  0.00    +0.000 OA
ATOM     25  H   UNL     1       7.815   4.761  14.626  0.00  0.00    +0.000 HD
ENDBRANCH  23  24
ENDBRANCH  22  23
ENDBRANCH  15  22
TORSDOF 6
ENDMDL
MODEL 2
REMARK VINA RESULT:      -6.5      1.164      1.337
REMARK  Name = 
REMARK  8 active torsions:
REMARK  status: ('A' for Active; 'I' for Inactive)
REMARK    1  A    between atoms: C_1  and  C_2
REMARK    2  A    between atoms: C_7  and  C_8
REMARK    3  A    between atoms: C_9  and  C_10
REMARK    4  A    between atoms: C_10  and  C_11
REMARK    5  A    between atoms: C_11  and  O_12
REMARK    6  A    between atoms: C_18  and  C_19
REMARK    7  A    between atoms: C_19  and  C_20
REMARK    8  A    between atoms: C_20  and  O_21
REMARK                            x       y       z     vdW  Elec       q    Type
REMARK                         _______ _______ _______ _____ _____    ______ ____
ROOT
ATOM      1  C   UNL     1       4.837   3.652  19.265  0.00  0.00    +0.000 C 
ATOM      2  C   UNL     1       4.564   4.940  18.530  0.00  0.00    +0.000 A 
ATOM      3  N   UNL     1       3.764   5.824  19.227  0.00  0.00    +0.000 NA
ATOM      4  C   UNL     1       3.360   6.886  18.606  0.00  0.00    +0.000 A 
ATOM      5  N   UNL     1       2.490   7.791  19.192  0.00  0.00    +0.000 N 
ATOM      6  N   UNL     1       1.867   7.528  20.419  0.00  0.00    +0.000 N 
ATOM      7  C   UNL     1       0.999   8.583  20.659  0.00  0.00    +0.000 A 
ATOM      8  C   UNL     1       0.285   8.726  21.960  0.00  0.00    +0.000 C 
ATOM      9  C   UNL     1       0.900   9.418  19.608  0.00  0.00    +0.000 A 
ATOM     10  C   UNL     1       1.897   8.922  18.629  0.00  0.00    +0.000 A 
ATOM     11  O   UNL     1       2.150   9.445  17.554  0.00  0.00    +0.000 OA
ATOM     12  N   UNL     1       3.760   7.195  17.338  0.00  0.00    +0.000 N 
ATOM     13  C   UNL     1       4.653   6.443  16.648  0.00  0.00    +0.000 A 
ATOM     14  O   UNL     1       5.110   6.797  15.568  0.00  0.00    +0.000 OA
ATOM     15  C   UNL     1       5.037   5.163  17.286  0.00  0.00    +0.000 A 
ATOM     16  H   UNL     1       2.506   7.278  21.174  0.00  0.00    +0.000 HD
ATOM     17  H   UNL     1       3.459   8.064  16.910  0.00  0.00    +0.000 HD
ENDROOT
BRANCH   9  18
ATOM     18  C   UNL     1       0.062  10.620  19.360  0.00  0.00    +0.000 C 
BRANCH  18  19
ATOM     19  C   UNL     1       0.790  11.929  19.676  0.00  0.00    +0.000 C 
BRANCH  19  20
ATOM     20  O   UNL     1       1.099  12.020  21.063  0.00  0.00    +0.000 OA
ATOM     21  H   UNL     1       0.890  12.927  21.350  0.00  0.00    +0.000 HD
ENDBRANCH  19  20
ENDBRANCH  18  19
ENDBRANCH   9  18
BRANCH  15  22
ATOM     22  C   UNL     1       5.837   4.217  16.425  0.00  0.00    +0.000 C 
BRANCH  22  23
ATOM     23  C   UNL     1       7.327   4.547  16.365  0.00  0.00    +0.000 C 
BRANCH  23  24
ATOM     24  O   UNL     1       7.993   4.093  17.538  0.00  0.00    +0.000 OA
ATOM     25  H   UNL     1       8.060   3.125  17.473  0.00  0.00    +0.000 HD
ENDBRANCH  23  24
ENDBRANCH  22  23
ENDBRANCH  15  22
TORSDOF 6
ENDMDL
MODEL 3
REMARK VINA RESULT:      -6.5      2.354      2.975
REMARK  Name = 
REMARK  8 active torsions:
REMARK  status: ('A' for Active; 'I' for Inactive)
REMARK    1  A    between atoms: C_1  and  C_2
REMARK    2  A    between atoms: C_7  and  C_8
REMARK    3  A    between atoms: C_9  and  C_10
REMARK    4  A    between atoms: C_10  and  C_11
REMARK    5  A    between atoms: C_11  and  O_12
REMARK    6  A    between atoms: C_18  and  C_19
REMARK    7  A    between atoms: C_19  and  C_20
REMARK    8  A    between atoms: C_20  and  O_21
REMARK                            x       y       z     vdW  Elec       q    Type
REMARK                         _______ _______ _______ _____ _____    ______ ____
ROOT
ATOM      1  C   UNL     1       2.283   3.617  21.336  0.00  0.00    +0.000 C 
ATOM      2  C   UNL     1       2.582   4.608  20.239  0.00  0.00    +0.000 A 
ATOM      3  N   UNL     1       2.154   5.892  20.513  0.00  0.00    +0.000 NA
ATOM      4  C   UNL     1       2.237   6.767  19.562  0.00  0.00    +0.000 A 
ATOM      5  N   UNL     1       1.759   8.060  19.713  0.00  0.00    +0.000 N 
ATOM      6  N   UNL     1       1.013   8.445  20.835  0.00  0.00    +0.000 N 
ATOM      7  C   UNL     1       0.617   9.756  20.617  0.00  0.00    +0.000 A 
ATOM      8  C   UNL     1      -0.057  10.555  21.681  0.00  0.00    +0.000 C 
ATOM      9  C   UNL     1       0.915  10.186  19.377  0.00  0.00    +0.000 A 
ATOM     10  C   UNL     1       1.692   9.082  18.765  0.00  0.00    +0.000 A 
ATOM     11  O   UNL     1       2.192   9.105  17.651  0.00  0.00    +0.000 OA
ATOM     12  N   UNL     1       2.799   6.489  18.350  0.00  0.00    +0.000 N 
ATOM     13  C   UNL     1       3.363   5.290  18.064  0.00  0.00    +0.000 A 
ATOM     14  O   UNL     1       3.984   5.090  17.027  0.00  0.00    +0.000 OA
ATOM     15  C   UNL     1       3.175   4.235  19.086  0.00  0.00    +0.000 A 
ATOM     16  H   UNL     1       1.458   8.242  21.730  0.00  0.00    +0.000 HD
ATOM     17  H   UNL     1       2.888   7.221  17.654  0.00  0.00    +0.000 HD
ENDROOT
BRANCH   9  18
ATOM     18  C   UNL     1       0.633  11.459  18.664  0.00  0.00    +0.000 C 
BRANCH  18  19
ATOM     19  C   UNL     1       1.835  12.406  18.635  0.00  0.00    +0.000 C 
BRANCH  19  20
ATOM     20  O   UNL     1       2.592  12.235  17.441  0.00  0.00    +0.000 OA
ATOM     21  H   UNL     1       2.869  11.303  17.402  0.00  0.00    +0.000 HD
ENDBRANCH  19  20
ENDBRANCH  18  19
ENDBRANCH   9  18
BRANCH  15  22
ATOM     22  C   UNL     1       3.588   2.844  18.675  0.00  0.00    +0.000 C 
BRANCH  22  23
ATOM     23  C   UNL     1       2.575   2.139  17.774  0.00  0.00    +0.000 C 
BRANCH  23  24
ATOM     24  O   UNL     1       1.460   1.679  18.530  0.00  0.00    +0.000 OA
ATOM     25  H   UNL     1       1.108   0.897  18.072  0.00  0.00    +0.000 HD
ENDBRANCH  23  24
ENDBRANCH  22  23
ENDBRANCH  15  22
TORSDOF 6
ENDMDL
MODEL 4
REMARK VINA RESULT:      -6.3      2.161      2.655
REMARK  Name = 
REMARK  8 active torsions:
REMARK  status: ('A' for Active; 'I' for Inactive)
REMARK    1  A    between atoms: C_1  and  C_2
REMARK    2  A    between atoms: C_7  and  C_8
REMARK    3  A    between atoms: C_9  and  C_10
REMARK    4  A    between atoms: C_10  and  C_11
REMARK    5  A    between atoms: C_11  and  O_12
REMARK    6  A    between atoms: C_18  and  C_19
REMARK    7  A    between atoms: C_19  and  C_20
REMARK    8  A    between atoms: C_20  and  O_21
REMARK                            x       y       z     vdW  Elec       q    Type
REMARK                         _______ _______ _______ _____ _____    ______ ____
ROOT
ATOM      1  C   UNL     1       1.895   4.006  21.271  0.00  0.00    +0.000 C 
ATOM      2  C   UNL     1       2.282   4.992  20.198  0.00  0.00    +0.000 A 
ATOM      3  N   UNL     1       1.884   6.289  20.458  0.00  0.00    +0.000 NA
ATOM      4  C   UNL     1       2.045   7.166  19.520  0.00  0.00    +0.000 A 
ATOM      5  N   UNL     1       1.604   8.473  19.655  0.00  0.00    +0.000 N 
ATOM      6  N   UNL     1       0.814   8.876  20.740  0.00  0.00    +0.000 N 
ATOM      7  C   UNL     1       0.474  10.202  20.513  0.00  0.00    +0.000 A 
ATOM      8  C   UNL     1      -0.227  11.016  21.547  0.00  0.00    +0.000 C 
ATOM      9  C   UNL     1       0.849  10.628  19.293  0.00  0.00    +0.000 A 
ATOM     10  C   UNL     1       1.619   9.502  18.713  0.00  0.00    +0.000 A 
ATOM     11  O   UNL     1       2.177   9.514  17.626  0.00  0.00    +0.000 OA
ATOM     12  N   UNL     1       2.659   6.875  18.336  0.00  0.00    +0.000 N 
ATOM     13  C   UNL     1       3.197   5.659  18.070  0.00  0.00    +0.000 A 
ATOM     14  O   UNL     1       3.863   5.445  17.065  0.00  0.00    +0.000 OA
ATOM     15  C   UNL     1       2.921   4.606  19.074  0.00  0.00    +0.000 A 
ATOM     16  H   UNL     1       1.205   8.654  21.655  0.00  0.00    +0.000 HD
ATOM     17  H   UNL     1       2.809   7.608  17.651  0.00  0.00    +0.000 HD
ENDROOT
BRANCH   9  18
ATOM     18  C   UNL     1       0.647  11.914  18.575  0.00  0.00    +0.000 C 
BRANCH  18  19
ATOM     19  C   UNL     1       1.915  12.769  18.515  0.00  0.00    +0.000 C 
BRANCH  19  20
ATOM     20  O   UNL     1       2.665  12.489  17.338  0.00  0.00    +0.000 OA
ATOM     21  H   UNL     1       2.056  12.555  16.581  0.00  0.00    +0.000 HD
ENDBRANCH  19  20
ENDBRANCH  18  19
ENDBRANCH   9  18
BRANCH  15  22
ATOM     22  C   UNL     1       3.308   3.204  18.674  0.00  0.00    +0.000 C 
BRANCH  22  23
ATOM     23  C   UNL     1       4.594   2.707  19.330  0.00  0.00    +0.000 C 
BRANCH  23  24
ATOM     24  O   UNL     1       5.698   3.528  18.965  0.00  0.00    +0.000 OA
ATOM     25  H   UNL     1       5.545   4.404  19.358  0.00  0.00    +0.000 HD
ENDBRANCH  23  24
ENDBRANCH  22  23
ENDBRANCH  15  22
TORSDOF 6
ENDMDL
MODEL 5
REMARK VINA RESULT:      -6.3      2.252      2.792
REMARK  Name = 
REMARK  8 active torsions:
REMARK  status: ('A' for Active; 'I' for Inactive)
REMARK    1  A    between atoms: C_1  and  C_2
REMARK    2  A    between atoms: C_7  and  C_8
REMARK    3  A    between atoms: C_9  and  C_10
REMARK    4  A    between atoms: C_10  and  C_11
REMARK    5  A    between atoms: C_11  and  O_12
REMARK    6  A    between atoms: C_18  and  C_19
REMARK    7  A    between atoms: C_19  and  C_20
REMARK    8  A    between atoms: C_20  and  O_21
REMARK                            x       y       z     vdW  Elec       q    Type
REMARK                         _______ _______ _______ _____ _____    ______ ____
ROOT
ATOM      1  C   UNL     1       2.351   3.257  21.432  0.00  0.00    +0.000 C 
ATOM      2  C   UNL     1       2.594   4.352  20.424  0.00  0.00    +0.000 A 
ATOM      3  N   UNL     1       2.134   5.592  20.822  0.00  0.00    +0.000 NA
ATOM      4  C   UNL     1       2.168   6.551  19.954  0.00  0.00    +0.000 A 
ATOM      5  N   UNL     1       1.656   7.809  20.231  0.00  0.00    +0.000 N 
ATOM      6  N   UNL     1       0.925   8.067  21.399  0.00  0.00    +0.000 N 
ATOM      7  C   UNL     1       0.484   9.379  21.310  0.00  0.00    +0.000 A 
ATOM      8  C   UNL     1      -0.189  10.056  22.456  0.00  0.00    +0.000 C 
ATOM      9  C   UNL     1       0.740   9.929  20.108  0.00  0.00    +0.000 A 
ATOM     10  C   UNL     1       1.535   8.910  19.382  0.00  0.00    +0.000 A 
ATOM     11  O   UNL     1       2.009   9.049  18.265  0.00  0.00    +0.000 OA
ATOM     12  N   UNL     1       2.710   6.402  18.710  0.00  0.00    +0.000 N 
ATOM     13  C   UNL     1       3.303   5.252  18.304  0.00  0.00    +0.000 A 
ATOM     14  O   UNL     1       3.905   5.167  17.240  0.00  0.00    +0.000 OA
ATOM     15  C   UNL     1       3.171   4.104  19.229  0.00  0.00    +0.000 A 
ATOM     16  H   UNL     1       1.396   7.798  22.262  0.00  0.00    +0.000 HD
ATOM     17  H   UNL     1       2.761   7.197  18.082  0.00  0.00    +0.000 HD
ENDROOT
BRANCH   9  18
ATOM     18  C   UNL     1       0.403  11.251  19.520  0.00  0.00    +0.000 C 
BRANCH  18  19
ATOM     19  C   UNL     1      -0.882  11.224  18.688  0.00  0.00    +0.000 C 
BRANCH  19  20
ATOM     20  O   UNL     1      -0.701  10.472  17.493  0.00  0.00    +0.000 OA
ATOM     21  H   UNL     1       0.207  10.633  17.181  0.00  0.00    +0.000 HD
ENDBRANCH  19  20
ENDBRANCH  18  19
ENDBRANCH   9  18
BRANCH  15  22
ATOM     22  C   UNL     1       3.616   2.770  18.685  0.00  0.00    +0.000 C 
BRANCH  22  23
ATOM     23  C   UNL     1       2.574   2.083  17.804  0.00  0.00    +0.000 C 
BRANCH  23  24
ATOM     24  O   UNL     1       1.574   1.455  18.600  0.00  0.00    +0.000 OA
ATOM     25  H   UNL     1       1.352   0.613  18.167  0.00  0.00    +0.000 HD
ENDBRANCH  23  24
ENDBRANCH  22  23
ENDBRANCH  15  22
TORSDOF 6
ENDMDL
MODEL 6
REMARK VINA RESULT:      -6.3      2.260      6.788
REMARK  Name = 
REMARK  8 active torsions:
REMARK  status: ('A' for Active; 'I' for Inactive)
REMARK    1  A    between atoms: C_1  and  C_2
REMARK    2  A    between atoms: C_7  and  C_8
REMARK    3  A    between atoms: C_9  and  C_10
REMARK    4  A    between atoms: C_10  and  C_11
REMARK    5  A    between atoms: C_11  and  O_12
REMARK    6  A    between atoms: C_18  and  C_19
REMARK    7  A    between atoms: C_19  and  C_20
REMARK    8  A    between atoms: C_20  and  O_21
REMARK                            x       y       z     vdW  Elec       q    Type
REMARK                         _______ _______ _______ _____ _____    ______ ____
ROOT
ATOM      1  C   UNL     1       0.077   9.762  21.898  0.00  0.00    +0.000 C 
ATOM      2  C   UNL     1       0.760   9.204  20.674  0.00  0.00    +0.000 A 
ATOM      3  N   UNL     1       1.064   7.860  20.766  0.00  0.00    +0.000 NA
ATOM      4  C   UNL     1       1.784   7.341  19.823  0.00  0.00    +0.000 A 
ATOM      5  N   UNL     1       2.209   6.023  19.866  0.00  0.00    +0.000 N 
ATOM      6  N   UNL     1       2.028   5.227  21.005  0.00  0.00    +0.000 N 
ATOM      7  C   UNL     1       2.650   4.014  20.745  0.00  0.00    +0.000 A 
ATOM      8  C   UNL     1       2.518   2.854  21.672  0.00  0.00    +0.000 C 
ATOM      9  C   UNL     1       3.350   4.030  19.595  0.00  0.00    +0.000 A 
ATOM     10  C   UNL     1       3.055   5.349  18.985  0.00  0.00    +0.000 A 
ATOM     11  O   UNL     1       3.464   5.731  17.900  0.00  0.00    +0.000 OA
ATOM     12  N   UNL     1       2.173   8.046  18.721  0.00  0.00    +0.000 N 
ATOM     13  C   UNL     1       1.793   9.328  18.500  0.00  0.00    +0.000 A 
ATOM     14  O   UNL     1       2.031   9.910  17.449  0.00  0.00    +0.000 OA
ATOM     15  C   UNL     1       1.073   9.982  19.617  0.00  0.00    +0.000 A 
ATOM     16  H   UNL     1       1.068   5.186  21.346  0.00  0.00    +0.000 HD
ATOM     17  H   UNL     1       2.692   7.583  17.982  0.00  0.00    +0.000 HD
ENDROOT
BRANCH   9  18
ATOM     18  C   UNL     1       4.225   3.022  18.941  0.00  0.00    +0.000 C 
BRANCH  18  19
ATOM     19  C   UNL     1       3.437   1.961  18.169  0.00  0.00    +0.000 C 
BRANCH  19  20
ATOM     20  O   UNL     1       4.036   0.677  18.308  0.00  0.00    +0.000 OA
ATOM     21  H   UNL     1       4.290   0.573  19.242  0.00  0.00    +0.000 HD
ENDBRANCH  19  20
ENDBRANCH  18  19
ENDBRANCH   9  18
BRANCH  15  22
ATOM     22  C   UNL     1       0.858  11.468  19.476  0.00  0.00    +0.000 C 
BRANCH  22  23
ATOM     23  C   UNL     1      -0.502  11.844  18.892  0.00  0.00    +0.000 C 
BRANCH  23  24
ATOM     24  O   UNL     1      -0.363  12.846  17.891  0.00  0.00    +0.000 OA
ATOM     25  H   UNL     1       0.405  12.602  17.347  0.00  0.00    +0.000 HD
ENDBRANCH  23  24
ENDBRANCH  22  23
ENDBRANCH  15  22
TORSDOF 6
ENDMDL
MODEL 7
REMARK VINA RESULT:      -6.3      1.120      6.807
REMARK  Name = 
REMARK  8 active torsions:
REMARK  status: ('A' for Active; 'I' for Inactive)
REMARK    1  A    between atoms: C_1  and  C_2
REMARK    2  A    between atoms: C_7  and  C_8
REMARK    3  A    between atoms: C_9  and  C_10
REMARK    4  A    between atoms: C_10  and  C_11
REMARK    5  A    between atoms: C_11  and  O_12
REMARK    6  A    between atoms: C_18  and  C_19
REMARK    7  A    between atoms: C_19  and  C_20
REMARK    8  A    between atoms: C_20  and  O_21
REMARK                            x       y       z     vdW  Elec       q    Type
REMARK                         _______ _______ _______ _____ _____    ______ ____
ROOT
ATOM      1  C   UNL     1       0.612   8.550  21.720  0.00  0.00    +0.000 C 
ATOM      2  C   UNL     1       1.251   8.503  20.355  0.00  0.00    +0.000 A 
ATOM      3  N   UNL     1       1.883   7.309  20.072  0.00  0.00    +0.000 NA
ATOM      4  C   UNL     1       2.583   7.243  18.985  0.00  0.00    +0.000 A 
ATOM      5  N   UNL     1       3.319   6.116  18.654  0.00  0.00    +0.000 N 
ATOM      6  N   UNL     1       3.484   5.053  19.553  0.00  0.00    +0.000 N 
ATOM      7  C   UNL     1       4.346   4.151  18.946  0.00  0.00    +0.000 A 
ATOM      8  C   UNL     1       4.620   2.812  19.543  0.00  0.00    +0.000 C 
ATOM      9  C   UNL     1       4.870   4.627  17.802  0.00  0.00    +0.000 A 
ATOM     10  C   UNL     1       4.186   5.924  17.578  0.00  0.00    +0.000 A 
ATOM     11  O   UNL     1       4.349   6.649  16.609  0.00  0.00    +0.000 OA
ATOM     12  N   UNL     1       2.645   8.267  18.085  0.00  0.00    +0.000 N 
ATOM     13  C   UNL     1       1.938   9.414  18.232  0.00  0.00    +0.000 A 
ATOM     14  O   UNL     1       1.892  10.271  17.358  0.00  0.00    +0.000 OA
ATOM     15  C   UNL     1       1.228   9.565  19.523  0.00  0.00    +0.000 A 
ATOM     16  H   UNL     1       2.615   4.676  19.928  0.00  0.00    +0.000 HD
ATOM     17  H   UNL     1       3.164   8.150  17.221  0.00  0.00    +0.000 HD
ENDROOT
BRANCH   9  18
ATOM     18  C   UNL     1       5.875   4.077  16.855  0.00  0.00    +0.000 C 
BRANCH  18  19
ATOM     19  C   UNL     1       7.251   4.729  17.001  0.00  0.00    +0.000 C 
BRANCH  19  20
ATOM     20  O   UNL     1       8.043   4.043  17.964  0.00  0.00    +0.000 OA
ATOM     21  H   UNL     1       7.435   3.639  18.609  0.00  0.00    +0.000 HD
ENDBRANCH  19  20
ENDBRANCH  18  19
ENDBRANCH   9  18
BRANCH  15  22
ATOM     22  C   UNL     1       0.640  10.928  19.790  0.00  0.00    +0.000 C 
BRANCH  22  23
ATOM     23  C   UNL     1      -0.769  11.115  19.231  0.00  0.00    +0.000 C 
BRANCH  23  24
ATOM     24  O   UNL     1      -0.729  11.768  17.967  0.00  0.00    +0.000 OA
ATOM     25  H   UNL     1      -1.542  12.297  17.893  0.00  0.00    +0.000 HD
ENDBRANCH  23  24
ENDBRANCH  22  23
ENDBRANCH  15  22
TORSDOF 6
ENDMDL
MODEL 8
REMARK VINA RESULT:      -6.2      2.145      2.496
REMARK  Name = 
REMARK  8 active torsions:
REMARK  status: ('A' for Active; 'I' for Inactive)
REMARK    1  A    between atoms: C_1  and  C_2
REMARK    2  A    between atoms: C_7  and  C_8
REMARK    3  A    between atoms: C_9  and  C_10
REMARK    4  A    between atoms: C_10  and  C_11
REMARK    5  A    between atoms: C_11  and  O_12
REMARK    6  A    between atoms: C_18  and  C_19
REMARK    7  A    between atoms: C_19  and  C_20
REMARK    8  A    between atoms: C_20  and  O_21
REMARK                            x       y       z     vdW  Elec       q    Type
REMARK                         _______ _______ _______ _____ _____    ______ ____
ROOT
ATOM      1  C   UNL     1       1.912   3.937  21.327  0.00  0.00    +0.000 C 
ATOM      2  C   UNL     1       2.236   5.000  20.307  0.00  0.00    +0.000 A 
ATOM      3  N   UNL     1       1.805   6.264  20.659  0.00  0.00    +0.000 NA
ATOM      4  C   UNL     1       1.909   7.202  19.773  0.00  0.00    +0.000 A 
ATOM      5  N   UNL     1       1.431   8.482  20.001  0.00  0.00    +0.000 N 
ATOM      6  N   UNL     1       0.660   8.792  21.129  0.00  0.00    +0.000 N 
ATOM      7  C   UNL     1       0.271  10.116  20.994  0.00  0.00    +0.000 A 
ATOM      8  C   UNL     1      -0.426  10.842  22.095  0.00  0.00    +0.000 C 
ATOM      9  C   UNL     1       0.596  10.629  19.793  0.00  0.00    +0.000 A 
ATOM     10  C   UNL     1       1.386   9.567  19.124  0.00  0.00    +0.000 A 
ATOM     11  O   UNL     1       1.911   9.664  18.025  0.00  0.00    +0.000 OA
ATOM     12  N   UNL     1       2.498   7.005  18.557  0.00  0.00    +0.000 N 
ATOM     13  C   UNL     1       3.067   5.827  18.201  0.00  0.00    +0.000 A 
ATOM     14  O   UNL     1       3.710   5.696  17.167  0.00  0.00    +0.000 OA
ATOM     15  C   UNL     1       2.854   4.705  19.145  0.00  0.00    +0.000 A 
ATOM     16  H   UNL     1       1.085   8.527  22.018  0.00  0.00    +0.000 HD
ATOM     17  H   UNL     1       2.604   7.783  17.914  0.00  0.00    +0.000 HD
ENDROOT
BRANCH   9  18
ATOM     18  C   UNL     1       0.332  11.949  19.162  0.00  0.00    +0.000 C 
BRANCH  18  19
ATOM     19  C   UNL     1      -1.104  12.089  18.651  0.00  0.00    +0.000 C 
BRANCH  19  20
ATOM     20  O   UNL     1      -1.147  12.850  17.449  0.00  0.00    +0.000 OA
ATOM     21  H   UNL     1      -1.542  13.714  17.665  0.00  0.00    +0.000 HD
ENDBRANCH  19  20
ENDBRANCH  18  19
ENDBRANCH   9  18
BRANCH  15  22
ATOM     22  C   UNL     1       3.274   3.345  18.648  0.00  0.00    +0.000 C 
BRANCH  22  23
ATOM     23  C   UNL     1       4.459   2.748  19.406  0.00  0.00    +0.000 C 
BRANCH  23  24
ATOM     24  O   UNL     1       5.636   3.519  19.193  0.00  0.00    +0.000 OA
ATOM     25  H   UNL     1       5.695   3.692  18.237  0.00  0.00    +0.000 HD
ENDBRANCH  23  24
ENDBRANCH  22  23
ENDBRANCH  15  22
TORSDOF 6
ENDMDL
MODEL 9
REMARK VINA RESULT:      -6.1      2.850      7.425
REMARK  Name = 
REMARK  8 active torsions:
REMARK  status: ('A' for Active; 'I' for Inactive)
REMARK    1  A    between atoms: C_1  and  C_2
REMARK    2  A    between atoms: C_7  and  C_8
REMARK    3  A    between atoms: C_9  and  C_10
REMARK    4  A    between atoms: C_10  and  C_11
REMARK    5  A    between atoms: C_11  and  O_12
REMARK    6  A    between atoms: C_18  and  C_19
REMARK    7  A    between atoms: C_19  and  C_20
REMARK    8  A    between atoms: C_20  and  O_21
REMARK                            x       y       z     vdW  Elec       q    Type
REMARK                         _______ _______ _______ _____ _____    ______ ____
ROOT
ATOM      1  C   UNL     1       1.239  10.523  18.079  0.00  0.00    +0.000 C 
ATOM      2  C   UNL     1       1.324   9.451  19.137  0.00  0.00    +0.000 A 
ATOM      3  N   UNL     1       2.190   8.422  18.823  0.00  0.00    +0.000 NA
ATOM      4  C   UNL     1       2.207   7.391  19.606  0.00  0.00    +0.000 A 
ATOM      5  N   UNL     1       2.982   6.275  19.332  0.00  0.00    +0.000 N 
ATOM      6  N   UNL     1       3.658   6.127  18.114  0.00  0.00    +0.000 N 
ATOM      7  C   UNL     1       4.244   4.870  18.134  0.00  0.00    +0.000 A 
ATOM      8  C   UNL     1       5.188   4.431  17.067  0.00  0.00    +0.000 C 
ATOM      9  C   UNL     1       3.863   4.141  19.200  0.00  0.00    +0.000 A 
ATOM     10  C   UNL     1       3.040   5.062  20.020  0.00  0.00    +0.000 A 
ATOM     11  O   UNL     1       2.545   4.791  21.103  0.00  0.00    +0.000 OA
ATOM     12  N   UNL     1       1.473   7.326  20.755  0.00  0.00    +0.000 N 
ATOM     13  C   UNL     1       0.709   8.357  21.194  0.00  0.00    +0.000 A 
ATOM     14  O   UNL     1       0.162   8.344  22.290  0.00  0.00    +0.000 OA
ATOM     15  C   UNL     1       0.576   9.497  20.259  0.00  0.00    +0.000 A 
ATOM     16  H   UNL     1       4.261   6.911  17.866  0.00  0.00    +0.000 HD
ATOM     17  H   UNL     1       1.558   6.520  21.364  0.00  0.00    +0.000 HD
ENDROOT
BRANCH   9  18
ATOM     18  C   UNL     1       4.155   2.743  19.613  0.00  0.00    +0.000 C 
BRANCH  18  19
ATOM     19  C   UNL     1       3.463   1.704  18.728  0.00  0.00    +0.000 C 
BRANCH  19  20
ATOM     20  O   UNL     1       4.330   0.609  18.451  0.00  0.00    +0.000 OA
ATOM     21  H   UNL     1       4.467   0.581  17.488  0.00  0.00    +0.000 HD
ENDBRANCH  19  20
ENDBRANCH  18  19
ENDBRANCH   9  18
BRANCH  15  22
ATOM     22  C   UNL     1      -0.454  10.533  20.633  0.00  0.00    +0.000 C 
BRANCH  22  23
ATOM     23  C   UNL     1       0.062  11.597  21.599  0.00  0.00    +0.000 C 
BRANCH  23  24
ATOM     24  O   UNL     1      -0.301  11.282  22.939  0.00  0.00    +0.000 OA
ATOM     25  H   UNL     1      -0.454  10.322  22.976  0.00  0.00    +0.000 HD
ENDBRANCH  23  24
ENDBRANCH  22  23
ENDBRANCH  15  22
TORSDOF 6
ENDMDL
