MODEL 1
REMARK VINA RESULT:      -5.1      0.000      0.000
REMARK  Name = 
REMARK  5 active torsions:
REMARK  status: ('A' for Active; 'I' for Inactive)
REMARK    1  A    between atoms: C_1  and  N_2
REMARK    2  A    between atoms: N_2  and  C_3
REMARK    3  A    between atoms: C_3  and  C_4
REMARK    4  A    between atoms: C_4  and  O_5
REMARK    5  A    between atoms: O_5  and  C_6
REMARK                            x       y       z     vdW  Elec       q    Type
REMARK                         _______ _______ _______ _____ _____    ______ ____
ROOT
ATOM      1  C   UNL     1       3.450   4.629  18.386  0.00  0.00    +0.000 A 
ATOM      2  C   UNL     1       2.949   5.857  18.844  0.00  0.00    +0.000 A 
ATOM      3 BR   UNL     1       3.095   7.520  17.905  0.00  0.00    +0.000 Br
ATOM      4  C   UNL     1       2.151   5.938  19.997  0.00  0.00    +0.000 A 
ATOM      5  C   UNL     1       1.753   4.785  20.662  0.00  0.00    +0.000 A 
ATOM      6  C   UNL     1       2.138   3.547  20.160  0.00  0.00    +0.000 A 
ATOM      7  C   UNL     1       2.978   3.469  19.037  0.00  0.00    +0.000 A 
ATOM      8 BR   UNL     1       3.417   1.724  18.422  0.00  0.00    +0.000 Br
ENDROOT
BRANCH   1   9
ATOM      9  O   UNL     1       4.302   4.455  17.318  0.00  0.00    +0.000 OA
BRANCH   9  10
ATOM     10  C   UNL     1       5.693   4.653  17.623  0.00  0.00    +0.000 C 
BRANCH  10  11
ATOM     11  C   UNL     1       6.493   4.818  16.327  0.00  0.00    +0.000 C 
BRANCH  11  13
ATOM     12  C   UNL     1       7.278   6.873  17.422  0.00  0.00    +0.000 C 
ATOM     13  N   UNL     1       7.340   6.014  16.252  0.00  0.00    +0.000 NA
ATOM     14  H   UNL     1       8.306   5.728  16.080  0.00  0.00    +0.000 HD
ENDBRANCH  11  13
ENDBRANCH  10  11
ENDBRANCH   9  10
ENDBRANCH   1   9
TORSDOF 4
ENDMDL
MODEL 2
REMARK VINA RESULT:      -5.1      0.969      1.134
REMARK  Name = 
REMARK  5 active torsions:
REMARK  status: ('A' for Active; 'I' for Inactive)
REMARK    1  A    between atoms: C_1  and  N_2
REMARK    2  A    between atoms: N_2  and  C_3
REMARK    3  A    between atoms: C_3  and  C_4
REMARK    4  A    between atoms: C_4  and  O_5
REMARK    5  A    between atoms: O_5  and  C_6
REMARK                            x       y       z     vdW  Elec       q    Type
REMARK                         _______ _______ _______ _____ _____    ______ ____
ROOT
ATOM      1  C   UNL     1       3.183   4.716  18.544  0.00  0.00    +0.000 A 
ATOM      2  C   UNL     1       2.548   5.788  19.190  0.00  0.00    +0.000 A 
ATOM      3 BR   UNL     1       2.457   7.578  18.515  0.00  0.00    +0.000 Br
ATOM      4  C   UNL     1       1.784   5.592  20.352  0.00  0.00    +0.000 A 
ATOM      5  C   UNL     1       1.553   4.311  20.838  0.00  0.00    +0.000 A 
ATOM      6  C   UNL     1       2.072   3.222  20.147  0.00  0.00    +0.000 A 
ATOM      7  C   UNL     1       2.879   3.421  19.015  0.00  0.00    +0.000 A 
ATOM      8 BR   UNL     1       3.511   1.859  18.135  0.00  0.00    +0.000 Br
ENDROOT
BRANCH   1   9
ATOM      9  O   UNL     1       4.015   4.815  17.451  0.00  0.00    +0.000 OA
BRANCH   9  10
ATOM     10  C   UNL     1       5.270   5.468  17.710  0.00  0.00    +0.000 C 
BRANCH  10  11
ATOM     11  C   UNL     1       6.412   4.450  17.637  0.00  0.00    +0.000 C 
BRANCH  11  13
ATOM     12  C   UNL     1       6.962   4.624  15.249  0.00  0.00    +0.000 C 
ATOM     13  N   UNL     1       7.435   4.717  16.619  0.00  0.00    +0.000 NA
ATOM     14  H   UNL     1       7.839   5.640  16.787  0.00  0.00    +0.000 HD
ENDBRANCH  11  13
ENDBRANCH  10  11
ENDBRANCH   9  10
ENDBRANCH   1   9
TORSDOF 4
ENDMDL
MODEL 3
REMARK VINA RESULT:      -5.1      1.438      1.507
REMARK  Name = 
REMARK  5 active torsions:
REMARK  status: ('A' for Active; 'I' for Inactive)
REMARK    1  A    between atoms: C_1  and  N_2
REMARK    2  A    between atoms: N_2  and  C_3
REMARK    3  A    between atoms: C_3  and  C_4
REMARK    4  A    between atoms: C_4  and  O_5
REMARK    5  A    between atoms: O_5  and  C_6
REMARK                            x       y       z     vdW  Elec       q    Type
REMARK                         _______ _______ _______ _____ _____    ______ ____
ROOT
ATOM      1  C   UNL     1       2.537   4.720  18.379  0.00  0.00    +0.000 A 
ATOM      2  C   UNL     1       2.789   6.057  18.723  0.00  0.00    +0.000 A 
ATOM      3 BR   UNL     1       3.544   7.368  17.550  0.00  0.00    +0.000 Br
ATOM      4  C   UNL     1       2.361   6.589  19.950  0.00  0.00    +0.000 A 
ATOM      5  C   UNL     1       1.585   5.829  20.817  0.00  0.00    +0.000 A 
ATOM      6  C   UNL     1       1.222   4.540  20.446  0.00  0.00    +0.000 A 
ATOM      7  C   UNL     1       1.693   3.990  19.243  0.00  0.00    +0.000 A 
ATOM      8 BR   UNL     1       1.109   2.230  18.825  0.00  0.00    +0.000 Br
ENDROOT
BRANCH   1   9
ATOM      9  O   UNL     1       2.982   4.085  17.240  0.00  0.00    +0.000 OA
BRANCH   9  10
ATOM     10  C   UNL     1       4.326   3.580  17.323  0.00  0.00    +0.000 C 
BRANCH  10  11
ATOM     11  C   UNL     1       5.164   4.136  16.167  0.00  0.00    +0.000 C 
BRANCH  11  13
ATOM     12  C   UNL     1       7.266   4.681  17.316  0.00  0.00    +0.000 C 
ATOM     13  N   UNL     1       6.611   3.916  16.270  0.00  0.00    +0.000 NA
ATOM     14  H   UNL     1       6.788   2.919  16.405  0.00  0.00    +0.000 HD
ENDBRANCH  11  13
ENDBRANCH  10  11
ENDBRANCH   9  10
ENDBRANCH   1   9
TORSDOF 4
ENDMDL
MODEL 4
REMARK VINA RESULT:      -5.0      2.950      4.252
REMARK  Name = 
REMARK  5 active torsions:
REMARK  status: ('A' for Active; 'I' for Inactive)
REMARK    1  A    between atoms: C_1  and  N_2
REMARK    2  A    between atoms: N_2  and  C_3
REMARK    3  A    between atoms: C_3  and  C_4
REMARK    4  A    between atoms: C_4  and  O_5
REMARK    5  A    between atoms: O_5  and  C_6
REMARK                            x       y       z     vdW  Elec       q    Type
REMARK                         _______ _______ _______ _____ _____    ______ ____
ROOT
ATOM      1  C   UNL     1       4.554   4.773  19.033  0.00  0.00    +0.000 A 
ATOM      2  C   UNL     1       3.341   5.414  19.335  0.00  0.00    +0.000 A 
ATOM      3 BR   UNL     1       2.236   5.014  20.846  0.00  0.00    +0.000 Br
ATOM      4  C   UNL     1       2.902   6.530  18.604  0.00  0.00    +0.000 A 
ATOM      5  C   UNL     1       3.709   7.093  17.623  0.00  0.00    +0.000 A 
ATOM      6  C   UNL     1       4.967   6.550  17.387  0.00  0.00    +0.000 A 
ATOM      7  C   UNL     1       5.384   5.402  18.081  0.00  0.00    +0.000 A 
ATOM      8 BR   UNL     1       7.133   4.764  17.697  0.00  0.00    +0.000 Br
ENDROOT
BRANCH   1   9
ATOM      9  O   UNL     1       5.031   3.630  19.635  0.00  0.00    +0.000 OA
BRANCH   9  10
ATOM     10  C   UNL     1       4.170   2.485  19.514  0.00  0.00    +0.000 C 
BRANCH  10  11
ATOM     11  C   UNL     1       3.717   2.323  18.060  0.00  0.00    +0.000 C 
BRANCH  11  13
ATOM     12  C   UNL     1       1.308   2.351  18.544  0.00  0.00    +0.000 C 
ATOM     13  N   UNL     1       2.410   1.685  17.871  0.00  0.00    +0.000 NA
ATOM     14  H   UNL     1       2.215   1.614  16.870  0.00  0.00    +0.000 HD
ENDBRANCH  11  13
ENDBRANCH  10  11
ENDBRANCH   9  10
ENDBRANCH   1   9
TORSDOF 4
ENDMDL
MODEL 5
REMARK VINA RESULT:      -5.0      1.497      3.093
REMARK  Name = 
REMARK  5 active torsions:
REMARK  status: ('A' for Active; 'I' for Inactive)
REMARK    1  A    between atoms: C_1  and  N_2
REMARK    2  A    between atoms: N_2  and  C_3
REMARK    3  A    between atoms: C_3  and  C_4
REMARK    4  A    between atoms: C_4  and  O_5
REMARK    5  A    between atoms: O_5  and  C_6
REMARK                            x       y       z     vdW  Elec       q    Type
REMARK                         _______ _______ _______ _____ _____    ______ ____
ROOT
ATOM      1  C   UNL     1       4.034   4.519  18.760  0.00  0.00    +0.000 A 
ATOM      2  C   UNL     1       3.601   3.230  19.110  0.00  0.00    +0.000 A 
ATOM      3 BR   UNL     1       4.534   2.043  20.288  0.00  0.00    +0.000 Br
ATOM      4  C   UNL     1       2.339   2.751  18.722  0.00  0.00    +0.000 A 
ATOM      5  C   UNL     1       1.441   3.582  18.064  0.00  0.00    +0.000 A 
ATOM      6  C   UNL     1       1.800   4.900  17.810  0.00  0.00    +0.000 A 
ATOM      7  C   UNL     1       3.081   5.364  18.152  0.00  0.00    +0.000 A 
ATOM      8 BR   UNL     1       3.451   7.192  17.784  0.00  0.00    +0.000 Br
ENDROOT
BRANCH   1   9
ATOM      9  O   UNL     1       5.277   5.049  19.023  0.00  0.00    +0.000 OA
BRANCH   9  10
ATOM     10  C   UNL     1       6.306   4.647  18.103  0.00  0.00    +0.000 C 
BRANCH  10  11
ATOM     11  C   UNL     1       7.087   5.874  17.624  0.00  0.00    +0.000 C 
BRANCH  11  13
ATOM     12  C   UNL     1       6.945   4.754  15.442  0.00  0.00    +0.000 C 
ATOM     13  N   UNL     1       7.344   5.938  16.181  0.00  0.00    +0.000 NA
ATOM     14  H   UNL     1       6.878   6.762  15.796  0.00  0.00    +0.000 HD
ENDBRANCH  11  13
ENDBRANCH  10  11
ENDBRANCH   9  10
ENDBRANCH   1   9
TORSDOF 4
ENDMDL
MODEL 6
REMARK VINA RESULT:      -5.0      1.087      2.849
REMARK  Name = 
REMARK  5 active torsions:
REMARK  status: ('A' for Active; 'I' for Inactive)
REMARK    1  A    between atoms: C_1  and  N_2
REMARK    2  A    between atoms: N_2  and  C_3
REMARK    3  A    between atoms: C_3  and  C_4
REMARK    4  A    between atoms: C_4  and  O_5
REMARK    5  A    between atoms: O_5  and  C_6
REMARK                            x       y       z     vdW  Elec       q    Type
REMARK                         _______ _______ _______ _____ _____    ______ ____
ROOT
ATOM      1  C   UNL     1       2.835   4.312  18.514  0.00  0.00    +0.000 A 
ATOM      2  C   UNL     1       2.667   3.001  18.987  0.00  0.00    +0.000 A 
ATOM      3 BR   UNL     1       3.654   1.479  18.375  0.00  0.00    +0.000 Br
ATOM      4  C   UNL     1       1.833   2.720  20.082  0.00  0.00    +0.000 A 
ATOM      5  C   UNL     1       1.228   3.750  20.792  0.00  0.00    +0.000 A 
ATOM      6  C   UNL     1       1.474   5.066  20.417  0.00  0.00    +0.000 A 
ATOM      7  C   UNL     1       2.266   5.345  19.291  0.00  0.00    +0.000 A 
ATOM      8 BR   UNL     1       2.557   7.179  18.888  0.00  0.00    +0.000 Br
ENDROOT
BRANCH   1   9
ATOM      9  O   UNL     1       3.563   4.680  17.405  0.00  0.00    +0.000 OA
BRANCH   9  10
ATOM     10  C   UNL     1       4.976   4.820  17.635  0.00  0.00    +0.000 C 
BRANCH  10  11
ATOM     11  C   UNL     1       5.758   4.255  16.446  0.00  0.00    +0.000 C 
BRANCH  11  13
ATOM     12  C   UNL     1       7.703   4.689  17.883  0.00  0.00    +0.000 C 
ATOM     13  N   UNL     1       7.219   4.290  16.573  0.00  0.00    +0.000 NA
ATOM     14  H   UNL     1       7.597   3.373  16.327  0.00  0.00    +0.000 HD
ENDBRANCH  11  13
ENDBRANCH  10  11
ENDBRANCH   9  10
ENDBRANCH   1   9
TORSDOF 4
ENDMDL
MODEL 7
REMARK VINA RESULT:      -5.0      1.234      1.266
REMARK  Name = 
REMARK  5 active torsions:
REMARK  status: ('A' for Active; 'I' for Inactive)
REMARK    1  A    between atoms: C_1  and  N_2
REMARK    2  A    between atoms: N_2  and  C_3
REMARK    3  A    between atoms: C_3  and  C_4
REMARK    4  A    between atoms: C_4  and  O_5
REMARK    5  A    between atoms: O_5  and  C_6
REMARK                            x       y       z     vdW  Elec       q    Type
REMARK                         _______ _______ _______ _____ _____    ______ ____
ROOT
ATOM      1  C   UNL     1       3.094   4.946  18.287  0.00  0.00    +0.000 A 
ATOM      2  C   UNL     1       2.616   6.117  18.896  0.00  0.00    +0.000 A 
ATOM      3 BR   UNL     1       2.661   7.860  18.104  0.00  0.00    +0.000 Br
ATOM      4  C   UNL     1       1.917   6.076  20.113  0.00  0.00    +0.000 A 
ATOM      5  C   UNL     1       1.592   4.860  20.700  0.00  0.00    +0.000 A 
ATOM      6  C   UNL     1       1.950   3.681  20.056  0.00  0.00    +0.000 A 
ATOM      7  C   UNL     1       2.694   3.722  18.866  0.00  0.00    +0.000 A 
ATOM      8 BR   UNL     1       3.102   2.050  18.059  0.00  0.00    +0.000 Br
ENDROOT
BRANCH   1   9
ATOM      9  O   UNL     1       3.855   4.887  17.141  0.00  0.00    +0.000 OA
BRANCH   9  10
ATOM     10  C   UNL     1       5.176   5.441  17.270  0.00  0.00    +0.000 C 
BRANCH  10  11
ATOM     11  C   UNL     1       6.059   4.500  18.094  0.00  0.00    +0.000 C 
BRANCH  11  13
ATOM     12  C   UNL     1       7.803   5.932  19.066  0.00  0.00    +0.000 C 
ATOM     13  N   UNL     1       6.650   5.082  19.304  0.00  0.00    +0.000 NA
ATOM     14  H   UNL     1       5.930   5.604  19.809  0.00  0.00    +0.000 HD
ENDBRANCH  11  13
ENDBRANCH  10  11
ENDBRANCH   9  10
ENDBRANCH   1   9
TORSDOF 4
ENDMDL
MODEL 8
REMARK VINA RESULT:      -5.0      2.755      5.366
REMARK  Name = 
REMARK  5 active torsions:
REMARK  status: ('A' for Active; 'I' for Inactive)
REMARK    1  A    between atoms: C_1  and  N_2
REMARK    2  A    between atoms: N_2  and  C_3
REMARK    3  A    between atoms: C_3  and  C_4
REMARK    4  A    between atoms: C_4  and  O_5
REMARK    5  A    between atoms: O_5  and  C_6
REMARK                            x       y       z     vdW  Elec       q    Type
REMARK                         _______ _______ _______ _____ _____    ______ ____
ROOT
ATOM      1  C   UNL     1       3.176   5.299  18.012  0.00  0.00    +0.000 A 
ATOM      2  C   UNL     1       3.927   4.168  17.655  0.00  0.00    +0.000 A 
ATOM      3 BR   UNL     1       3.290   2.364  17.720  0.00  0.00    +0.000 Br
ATOM      4  C   UNL     1       5.198   4.289  17.070  0.00  0.00    +0.000 A 
ATOM      5  C   UNL     1       5.706   5.538  16.736  0.00  0.00    +0.000 A 
ATOM      6  C   UNL     1       4.931   6.668  16.970  0.00  0.00    +0.000 A 
ATOM      7  C   UNL     1       3.682   6.552  17.603  0.00  0.00    +0.000 A 
ATOM      8 BR   UNL     1       2.698   8.159  17.846  0.00  0.00    +0.000 Br
ENDROOT
BRANCH   1   9
ATOM      9  O   UNL     1       1.961   5.287  18.660  0.00  0.00    +0.000 OA
BRANCH   9  10
ATOM     10  C   UNL     1       2.026   4.918  20.049  0.00  0.00    +0.000 C 
BRANCH  10  11
ATOM     11  C   UNL     1       0.813   4.059  20.418  0.00  0.00    +0.000 C 
BRANCH  11  13
ATOM     12  C   UNL     1       2.499   2.687  21.563  0.00  0.00    +0.000 C 
ATOM     13  N   UNL     1       1.107   2.837  21.175  0.00  0.00    +0.000 NA
ATOM     14  H   UNL     1       0.509   2.806  22.003  0.00  0.00    +0.000 HD
ENDBRANCH  11  13
ENDBRANCH  10  11
ENDBRANCH   9  10
ENDBRANCH   1   9
TORSDOF 4
ENDMDL
MODEL 9
REMARK VINA RESULT:      -5.0      2.997      5.045
REMARK  Name = 
REMARK  5 active torsions:
REMARK  status: ('A' for Active; 'I' for Inactive)
REMARK    1  A    between atoms: C_1  and  N_2
REMARK    2  A    between atoms: N_2  and  C_3
REMARK    3  A    between atoms: C_3  and  C_4
REMARK    4  A    between atoms: C_4  and  O_5
REMARK    5  A    between atoms: O_5  and  C_6
REMARK                            x       y       z     vdW  Elec       q    Type
REMARK                         _______ _______ _______ _____ _____    ______ ____
ROOT
ATOM      1  C   UNL     1       5.005   4.491  17.402  0.00  0.00    +0.000 A 
ATOM      2  C   UNL     1       6.170   4.401  16.624  0.00  0.00    +0.000 A 
ATOM      3 BR   UNL     1       6.211   3.973  14.758  0.00  0.00    +0.000 Br
ATOM      4  C   UNL     1       7.424   4.769  17.138  0.00  0.00    +0.000 A 
ATOM      5  C   UNL     1       7.530   5.330  18.405  0.00  0.00    +0.000 A 
ATOM      6  C   UNL     1       6.377   5.540  19.151  0.00  0.00    +0.000 A 
ATOM      7  C   UNL     1       5.129   5.124  18.658  0.00  0.00    +0.000 A 
ATOM      8 BR   UNL     1       3.617   5.488  19.752  0.00  0.00    +0.000 Br
ENDROOT
BRANCH   1   9
ATOM      9  O   UNL     1       3.748   4.082  17.019  0.00  0.00    +0.000 OA
BRANCH   9  10
ATOM     10  C   UNL     1       3.402   2.746  17.425  0.00  0.00    +0.000 C 
BRANCH  10  11
ATOM     11  C   UNL     1       1.944   2.703  17.891  0.00  0.00    +0.000 C 
BRANCH  11  13
ATOM     12  C   UNL     1       1.626   2.383  20.306  0.00  0.00    +0.000 C 
ATOM     13  N   UNL     1       1.656   1.773  18.988  0.00  0.00    +0.000 NA
ATOM     14  H   UNL     1       0.768   1.302  18.802  0.00  0.00    +0.000 HD
ENDBRANCH  11  13
ENDBRANCH  10  11
ENDBRANCH   9  10
ENDBRANCH   1   9
TORSDOF 4
ENDMDL
