MODEL 1
REMARK VINA RESULT:      -7.6      0.000      0.000
REMARK  Name = 
REMARK  9 active torsions:
REMARK  status: ('A' for Active; 'I' for Inactive)
REMARK    1  A    between atoms: C_1  and  C_2
REMARK    2  A    between atoms: C_2  and  C_3
REMARK    3  A    between atoms: C_2  and  N_4
REMARK    4  A    between atoms: C_11  and  C_12
REMARK    5  A    between atoms: N_14  and  C_15
REMARK    6  A    between atoms: C_15  and  C_16
REMARK    7  A    between atoms: C_16  and  C_17
REMARK    8  A    between atoms: C_17  and  C_18
REMARK    9  A    between atoms: N_21  and  C_22
REMARK                            x       y       z     vdW  Elec       q    Type
REMARK                         _______ _______ _______ _____ _____    ______ ____
ROOT
ATOM      1  C   UNL     1       7.497   5.779  18.574  0.00  0.00    +0.000 C 
ATOM      2  O   UNL     1       7.787   5.319  19.678  0.00  0.00    +0.000 OA
ATOM      3  N   UNL     1       7.914   7.023  18.156  0.00  0.00    +0.000 N 
ATOM      4  H   UNL     1       7.633   7.328  17.232  0.00  0.00    +0.000 HD
ENDROOT
BRANCH   1  12
ATOM      5  N   UNL     1       3.269   4.519  18.941  0.00  0.00    +0.000 N 
ATOM      6  C   UNL     1       4.608   4.287  18.768  0.00  0.00    +0.000 C 
ATOM      7  O   UNL     1       5.252   3.540  19.502  0.00  0.00    +0.000 OA
ATOM      8  N   UNL     1       5.201   5.048  17.784  0.00  0.00    +0.000 N 
ATOM      9  C   UNL     1       4.586   5.941  16.820  0.00  0.00    +0.000 C 
ATOM     10  C   UNL     1       5.458   5.779  15.589  0.00  0.00    +0.000 C 
ATOM     11  C   UNL     1       6.860   5.592  16.156  0.00  0.00    +0.000 C 
ATOM     12  C   UNL     1       6.654   4.978  17.552  0.00  0.00    +0.000 C 
ATOM     13  H   UNL     1       2.752   4.831  18.138  0.00  0.00    +0.000 HD
BRANCH   5  15
ATOM     14  C   UNL     1       1.580   4.875  20.665  0.00  0.00    +0.000 C 
ATOM     15  C   UNL     1       2.487   3.855  19.979  0.00  0.00    +0.000 C 
ATOM     16  C   UNL     1       1.650   2.718  19.398  0.00  0.00    +0.000 C 
ENDBRANCH   5  15
ENDBRANCH   1  12
BRANCH   3  17
ATOM     17  C   UNL     1       8.620   7.943  19.015  0.00  0.00    +0.000 C 
BRANCH  17  18
ATOM     18  C   UNL     1       8.619   9.351  18.434  0.00  0.00    +0.000 C 
BRANCH  18  19
ATOM     19  C   UNL     1       9.184  10.351  19.439  0.00  0.00    +0.000 C 
BRANCH  19  20
ATOM     20  C   UNL     1      10.211  11.240  18.837  0.00  0.00    +0.000 A 
ATOM     21  C   UNL     1      11.514  11.515  19.313  0.00  0.00    +0.000 A 
ATOM     22  N   UNL     1      12.192  12.339  18.510  0.00  0.00    +0.000 NA
ATOM     23  N   UNL     1      11.328  12.588  17.510  0.00  0.00    +0.000 N 
ATOM     24  C   UNL     1      11.733  13.387  16.381  0.00  0.00    +0.000 C 
ATOM     25  C   UNL     1      10.119  11.978  17.675  0.00  0.00    +0.000 A 
ENDBRANCH  19  20
ENDBRANCH  18  19
ENDBRANCH  17  18
ENDBRANCH   3  17
TORSDOF 6
ENDMDL
MODEL 2
REMARK VINA RESULT:      -7.4      1.541      2.100
REMARK  Name = 
REMARK  9 active torsions:
REMARK  status: ('A' for Active; 'I' for Inactive)
REMARK    1  A    between atoms: C_1  and  C_2
REMARK    2  A    between atoms: C_2  and  C_3
REMARK    3  A    between atoms: C_2  and  N_4
REMARK    4  A    between atoms: C_11  and  C_12
REMARK    5  A    between atoms: N_14  and  C_15
REMARK    6  A    between atoms: C_15  and  C_16
REMARK    7  A    between atoms: C_16  and  C_17
REMARK    8  A    between atoms: C_17  and  C_18
REMARK    9  A    between atoms: N_21  and  C_22
REMARK                            x       y       z     vdW  Elec       q    Type
REMARK                         _______ _______ _______ _____ _____    ______ ____
ROOT
ATOM      1  C   UNL     1       7.587   5.732  18.364  0.00  0.00    +0.000 C 
ATOM      2  O   UNL     1       8.053   5.354  19.438  0.00  0.00    +0.000 OA
ATOM      3  N   UNL     1       7.776   7.007  17.880  0.00  0.00    +0.000 N 
ATOM      4  H   UNL     1       7.360   7.238  16.987  0.00  0.00    +0.000 HD
ENDROOT
BRANCH   1  12
ATOM      5  N   UNL     1       3.422   4.348  18.949  0.00  0.00    +0.000 N 
ATOM      6  C   UNL     1       4.767   4.154  18.778  0.00  0.00    +0.000 C 
ATOM      7  O   UNL     1       5.454   3.520  19.578  0.00  0.00    +0.000 OA
ATOM      8  N   UNL     1       5.313   4.823  17.704  0.00  0.00    +0.000 N 
ATOM      9  C   UNL     1       4.647   5.577  16.658  0.00  0.00    +0.000 C 
ATOM     10  C   UNL     1       5.507   5.313  15.437  0.00  0.00    +0.000 C 
ATOM     11  C   UNL     1       6.923   5.249  15.994  0.00  0.00    +0.000 C 
ATOM     12  C   UNL     1       6.764   4.787  17.454  0.00  0.00    +0.000 C 
ATOM     13  H   UNL     1       2.881   4.546  18.127  0.00  0.00    +0.000 HD
BRANCH   5  15
ATOM     14  C   UNL     1       1.634   4.770  20.554  0.00  0.00    +0.000 C 
ATOM     15  C   UNL     1       2.685   3.773  20.070  0.00  0.00    +0.000 C 
ATOM     16  C   UNL     1       2.017   2.458  19.675  0.00  0.00    +0.000 C 
ENDBRANCH   5  15
ENDBRANCH   1  12
BRANCH   3  17
ATOM     17  C   UNL     1       8.431   8.045  18.641  0.00  0.00    +0.000 C 
BRANCH  17  18
ATOM     18  C   UNL     1       8.176   9.417  18.033  0.00  0.00    +0.000 C 
BRANCH  18  19
ATOM     19  C   UNL     1       9.418  10.297  18.144  0.00  0.00    +0.000 C 
BRANCH  19  20
ATOM     20  C   UNL     1       9.310  11.293  19.242  0.00  0.00    +0.000 A 
ATOM     21  C   UNL     1       9.178  12.697  19.136  0.00  0.00    +0.000 A 
ATOM     22  N   UNL     1       9.074  13.296  20.325  0.00  0.00    +0.000 NA
ATOM     23  N   UNL     1       9.129  12.275  21.198  0.00  0.00    +0.000 N 
ATOM     24  C   UNL     1       8.961  12.516  22.610  0.00  0.00    +0.000 C 
ATOM     25  C   UNL     1       9.300  11.060  20.602  0.00  0.00    +0.000 A 
ENDBRANCH  19  20
ENDBRANCH  18  19
ENDBRANCH  17  18
ENDBRANCH   3  17
TORSDOF 6
ENDMDL
MODEL 3
REMARK VINA RESULT:      -7.3      1.100      1.174
REMARK  Name = 
REMARK  9 active torsions:
REMARK  status: ('A' for Active; 'I' for Inactive)
REMARK    1  A    between atoms: C_1  and  C_2
REMARK    2  A    between atoms: C_2  and  C_3
REMARK    3  A    between atoms: C_2  and  N_4
REMARK    4  A    between atoms: C_11  and  C_12
REMARK    5  A    between atoms: N_14  and  C_15
REMARK    6  A    between atoms: C_15  and  C_16
REMARK    7  A    between atoms: C_16  and  C_17
REMARK    8  A    between atoms: C_17  and  C_18
REMARK    9  A    between atoms: N_21  and  C_22
REMARK                            x       y       z     vdW  Elec       q    Type
REMARK                         _______ _______ _______ _____ _____    ______ ____
ROOT
ATOM      1  C   UNL     1       7.184   6.094  17.929  0.00  0.00    +0.000 C 
ATOM      2  O   UNL     1       7.613   6.185  19.079  0.00  0.00    +0.000 OA
ATOM      3  N   UNL     1       6.949   7.195  17.136  0.00  0.00    +0.000 N 
ATOM      4  H   UNL     1       6.598   7.034  16.200  0.00  0.00    +0.000 HD
ENDROOT
BRANCH   1  12
ATOM      5  N   UNL     1       3.524   3.629  18.285  0.00  0.00    +0.000 N 
ATOM      6  C   UNL     1       4.871   3.850  18.402  0.00  0.00    +0.000 C 
ATOM      7  O   UNL     1       5.475   3.720  19.465  0.00  0.00    +0.000 OA
ATOM      8  N   UNL     1       5.473   4.344  17.265  0.00  0.00    +0.000 N 
ATOM      9  C   UNL     1       4.918   4.524  15.937  0.00  0.00    +0.000 C 
ATOM     10  C   UNL     1       6.095   4.238  15.025  0.00  0.00    +0.000 C 
ATOM     11  C   UNL     1       7.291   4.797  15.786  0.00  0.00    +0.000 C 
ATOM     12  C   UNL     1       6.896   4.722  17.272  0.00  0.00    +0.000 C 
ATOM     13  H   UNL     1       3.175   3.407  17.370  0.00  0.00    +0.000 HD
BRANCH   5  15
ATOM     14  C   UNL     1       2.003   4.364  20.045  0.00  0.00    +0.000 C 
ATOM     15  C   UNL     1       2.706   3.170  19.404  0.00  0.00    +0.000 C 
ATOM     16  C   UNL     1       1.676   2.139  18.947  0.00  0.00    +0.000 C 
ENDBRANCH   5  15
ENDBRANCH   1  12
BRANCH   3  17
ATOM     17  C   UNL     1       7.067   8.550  17.620  0.00  0.00    +0.000 C 
BRANCH  17  18
ATOM     18  C   UNL     1       8.522   8.996  17.659  0.00  0.00    +0.000 C 
BRANCH  18  19
ATOM     19  C   UNL     1       8.887   9.529  19.042  0.00  0.00    +0.000 C 
BRANCH  19  20
ATOM     20  C   UNL     1       9.638  10.809  18.976  0.00  0.00    +0.000 A 
ATOM     21  C   UNL     1       9.991  11.670  20.041  0.00  0.00    +0.000 A 
ATOM     22  N   UNL     1      10.698  12.727  19.636  0.00  0.00    +0.000 NA
ATOM     23  N   UNL     1      10.811  12.543  18.309  0.00  0.00    +0.000 N 
ATOM     24  C   UNL     1      11.597  13.452  17.512  0.00  0.00    +0.000 C 
ATOM     25  C   UNL     1      10.169  11.426  17.861  0.00  0.00    +0.000 A 
ENDBRANCH  19  20
ENDBRANCH  18  19
ENDBRANCH  17  18
ENDBRANCH   3  17
TORSDOF 6
ENDMDL
MODEL 4
REMARK VINA RESULT:      -7.2      1.509      1.667
REMARK  Name = 
REMARK  9 active torsions:
REMARK  status: ('A' for Active; 'I' for Inactive)
REMARK    1  A    between atoms: C_1  and  C_2
REMARK    2  A    between atoms: C_2  and  C_3
REMARK    3  A    between atoms: C_2  and  N_4
REMARK    4  A    between atoms: C_11  and  C_12
REMARK    5  A    between atoms: N_14  and  C_15
REMARK    6  A    between atoms: C_15  and  C_16
REMARK    7  A    between atoms: C_16  and  C_17
REMARK    8  A    between atoms: C_17  and  C_18
REMARK    9  A    between atoms: N_21  and  C_22
REMARK                            x       y       z     vdW  Elec       q    Type
REMARK                         _______ _______ _______ _____ _____    ______ ____
ROOT
ATOM      1  C   UNL     1       6.826   6.864  17.104  0.00  0.00    +0.000 C 
ATOM      2  O   UNL     1       6.028   7.479  16.397  0.00  0.00    +0.000 OA
ATOM      3  N   UNL     1       7.772   7.497  17.879  0.00  0.00    +0.000 N 
ATOM      4  H   UNL     1       8.390   6.918  18.433  0.00  0.00    +0.000 HD
ENDROOT
BRANCH   1  12
ATOM      5  N   UNL     1       3.793   4.285  19.040  0.00  0.00    +0.000 N 
ATOM      6  C   UNL     1       5.065   4.760  18.859  0.00  0.00    +0.000 C 
ATOM      7  O   UNL     1       5.723   5.257  19.772  0.00  0.00    +0.000 OA
ATOM      8  N   UNL     1       5.504   4.747  17.553  0.00  0.00    +0.000 N 
ATOM      9  C   UNL     1       4.873   4.175  16.379  0.00  0.00    +0.000 C 
ATOM     10  C   UNL     1       6.048   3.694  15.551  0.00  0.00    +0.000 C 
ATOM     11  C   UNL     1       7.126   4.742  15.802  0.00  0.00    +0.000 C 
ATOM     12  C   UNL     1       6.813   5.318  17.194  0.00  0.00    +0.000 C 
ATOM     13  H   UNL     1       3.464   3.599  18.385  0.00  0.00    +0.000 HD
BRANCH   5  15
ATOM     14  C   UNL     1       1.824   5.061  20.254  0.00  0.00    +0.000 C 
ATOM     15  C   UNL     1       3.135   4.283  20.343  0.00  0.00    +0.000 C 
ATOM     16  C   UNL     1       2.868   2.859  20.824  0.00  0.00    +0.000 C 
ENDBRANCH   5  15
ENDBRANCH   1  12
BRANCH   3  17
ATOM     17  C   UNL     1       7.991   8.923  17.840  0.00  0.00    +0.000 C 
BRANCH  17  18
ATOM     18  C   UNL     1       9.121   9.332  18.775  0.00  0.00    +0.000 C 
BRANCH  18  19
ATOM     19  C   UNL     1       8.918  10.760  19.274  0.00  0.00    +0.000 C 
BRANCH  19  20
ATOM     20  C   UNL     1      10.020  11.667  18.859  0.00  0.00    +0.000 A 
ATOM     21  C   UNL     1      10.735  11.671  17.639  0.00  0.00    +0.000 A 
ATOM     22  N   UNL     1      11.645  12.645  17.578  0.00  0.00    +0.000 NA
ATOM     23  N   UNL     1      11.511  13.277  18.758  0.00  0.00    +0.000 N 
ATOM     24  C   UNL     1      12.281  14.464  19.039  0.00  0.00    +0.000 C 
ATOM     25  C   UNL     1      10.573  12.712  19.571  0.00  0.00    +0.000 A 
ENDBRANCH  19  20
ENDBRANCH  18  19
ENDBRANCH  17  18
ENDBRANCH   3  17
TORSDOF 6
ENDMDL
MODEL 5
REMARK VINA RESULT:      -7.1      2.057      2.540
REMARK  Name = 
REMARK  9 active torsions:
REMARK  status: ('A' for Active; 'I' for Inactive)
REMARK    1  A    between atoms: C_1  and  C_2
REMARK    2  A    between atoms: C_2  and  C_3
REMARK    3  A    between atoms: C_2  and  N_4
REMARK    4  A    between atoms: C_11  and  C_12
REMARK    5  A    between atoms: N_14  and  C_15
REMARK    6  A    between atoms: C_15  and  C_16
REMARK    7  A    between atoms: C_16  and  C_17
REMARK    8  A    between atoms: C_17  and  C_18
REMARK    9  A    between atoms: N_21  and  C_22
REMARK                            x       y       z     vdW  Elec       q    Type
REMARK                         _______ _______ _______ _____ _____    ______ ____
ROOT
ATOM      1  C   UNL     1       6.715   6.825  17.205  0.00  0.00    +0.000 C 
ATOM      2  O   UNL     1       5.823   7.463  16.648  0.00  0.00    +0.000 OA
ATOM      3  N   UNL     1       7.788   7.431  17.821  0.00  0.00    +0.000 N 
ATOM      4  H   UNL     1       8.478   6.833  18.258  0.00  0.00    +0.000 HD
ENDROOT
BRANCH   1  12
ATOM      5  N   UNL     1       3.613   4.250  19.035  0.00  0.00    +0.000 N 
ATOM      6  C   UNL     1       4.893   4.717  18.892  0.00  0.00    +0.000 C 
ATOM      7  O   UNL     1       5.532   5.199  19.827  0.00  0.00    +0.000 OA
ATOM      8  N   UNL     1       5.366   4.714  17.598  0.00  0.00    +0.000 N 
ATOM      9  C   UNL     1       4.761   4.159  16.402  0.00  0.00    +0.000 C 
ATOM     10  C   UNL     1       5.954   3.677  15.599  0.00  0.00    +0.000 C 
ATOM     11  C   UNL     1       7.032   4.714  15.889  0.00  0.00    +0.000 C 
ATOM     12  C   UNL     1       6.688   5.279  17.279  0.00  0.00    +0.000 C 
ATOM     13  H   UNL     1       3.296   3.573  18.364  0.00  0.00    +0.000 HD
BRANCH   5  15
ATOM     14  C   UNL     1       1.941   5.408  20.381  0.00  0.00    +0.000 C 
ATOM     15  C   UNL     1       2.922   4.239  20.321  0.00  0.00    +0.000 C 
ATOM     16  C   UNL     1       2.182   2.922  20.539  0.00  0.00    +0.000 C 
ENDBRANCH   5  15
ENDBRANCH   1  12
BRANCH   3  17
ATOM     17  C   UNL     1       8.024   8.853  17.762  0.00  0.00    +0.000 C 
BRANCH  17  18
ATOM     18  C   UNL     1       8.887   9.317  18.928  0.00  0.00    +0.000 C 
BRANCH  18  19
ATOM     19  C   UNL     1       9.521  10.672  18.626  0.00  0.00    +0.000 C 
BRANCH  19  20
ATOM     20  C   UNL     1       9.600  11.541  19.829  0.00  0.00    +0.000 A 
ATOM     21  C   UNL     1      10.282  12.771  19.974  0.00  0.00    +0.000 A 
ATOM     22  N   UNL     1      10.121  13.311  21.184  0.00  0.00    +0.000 NA
ATOM     23  N   UNL     1       9.325  12.431  21.818  0.00  0.00    +0.000 N 
ATOM     24  C   UNL     1       8.848  12.711  23.150  0.00  0.00    +0.000 C 
ATOM     25  C   UNL     1       9.010  11.342  21.061  0.00  0.00    +0.000 A 
ENDBRANCH  19  20
ENDBRANCH  18  19
ENDBRANCH  17  18
ENDBRANCH   3  17
TORSDOF 6
ENDMDL
MODEL 6
REMARK VINA RESULT:      -7.1      1.123      1.275
REMARK  Name = 
REMARK  9 active torsions:
REMARK  status: ('A' for Active; 'I' for Inactive)
REMARK    1  A    between atoms: C_1  and  C_2
REMARK    2  A    between atoms: C_2  and  C_3
REMARK    3  A    between atoms: C_2  and  N_4
REMARK    4  A    between atoms: C_11  and  C_12
REMARK    5  A    between atoms: N_14  and  C_15
REMARK    6  A    between atoms: C_15  and  C_16
REMARK    7  A    between atoms: C_16  and  C_17
REMARK    8  A    between atoms: C_17  and  C_18
REMARK    9  A    between atoms: N_21  and  C_22
REMARK                            x       y       z     vdW  Elec       q    Type
REMARK                         _______ _______ _______ _____ _____    ______ ____
ROOT
ATOM      1  C   UNL     1       7.419   6.386  17.921  0.00  0.00    +0.000 C 
ATOM      2  O   UNL     1       7.931   6.406  19.040  0.00  0.00    +0.000 OA
ATOM      3  N   UNL     1       7.227   7.526  17.172  0.00  0.00    +0.000 N 
ATOM      4  H   UNL     1       6.801   7.422  16.260  0.00  0.00    +0.000 HD
ENDROOT
BRANCH   1  12
ATOM      5  N   UNL     1       3.688   4.112  18.635  0.00  0.00    +0.000 N 
ATOM      6  C   UNL     1       5.050   4.253  18.592  0.00  0.00    +0.000 C 
ATOM      7  O   UNL     1       5.771   4.042  19.566  0.00  0.00    +0.000 OA
ATOM      8  N   UNL     1       5.538   4.764  17.409  0.00  0.00    +0.000 N 
ATOM      9  C   UNL     1       4.837   5.034  16.167  0.00  0.00    +0.000 C 
ATOM     10  C   UNL     1       5.875   4.725  15.106  0.00  0.00    +0.000 C 
ATOM     11  C   UNL     1       7.186   5.183  15.734  0.00  0.00    +0.000 C 
ATOM     12  C   UNL     1       6.972   5.063  17.253  0.00  0.00    +0.000 C 
ATOM     13  H   UNL     1       3.217   3.951  17.763  0.00  0.00    +0.000 HD
BRANCH   5  15
ATOM     14  C   UNL     1       2.039   4.741  20.319  0.00  0.00    +0.000 C 
ATOM     15  C   UNL     1       2.987   3.648  19.829  0.00  0.00    +0.000 C 
ATOM     16  C   UNL     1       2.208   2.366  19.547  0.00  0.00    +0.000 C 
ENDBRANCH   5  15
ENDBRANCH   1  12
BRANCH   3  17
ATOM     17  C   UNL     1       7.492   8.851  17.678  0.00  0.00    +0.000 C 
BRANCH  17  18
ATOM     18  C   UNL     1       8.910   8.959  18.222  0.00  0.00    +0.000 C 
BRANCH  18  19
ATOM     19  C   UNL     1       9.010  10.079  19.254  0.00  0.00    +0.000 C 
BRANCH  19  20
ATOM     20  C   UNL     1       9.529  11.343  18.670  0.00  0.00    +0.000 A 
ATOM     21  C   UNL     1      10.544  11.503  17.698  0.00  0.00    +0.000 A 
ATOM     22  N   UNL     1      10.744  12.781  17.368  0.00  0.00    +0.000 NA
ATOM     23  N   UNL     1       9.849  13.446  18.121  0.00  0.00    +0.000 N 
ATOM     24  C   UNL     1       9.698  14.873  17.980  0.00  0.00    +0.000 C 
ATOM     25  C   UNL     1       9.119  12.633  18.938  0.00  0.00    +0.000 A 
ENDBRANCH  19  20
ENDBRANCH  18  19
ENDBRANCH  17  18
ENDBRANCH   3  17
TORSDOF 6
ENDMDL
MODEL 7
REMARK VINA RESULT:      -7.0      4.636      7.650
REMARK  Name = 
REMARK  9 active torsions:
REMARK  status: ('A' for Active; 'I' for Inactive)
REMARK    1  A    between atoms: C_1  and  C_2
REMARK    2  A    between atoms: C_2  and  C_3
REMARK    3  A    between atoms: C_2  and  N_4
REMARK    4  A    between atoms: C_11  and  C_12
REMARK    5  A    between atoms: N_14  and  C_15
REMARK    6  A    between atoms: C_15  and  C_16
REMARK    7  A    between atoms: C_16  and  C_17
REMARK    8  A    between atoms: C_17  and  C_18
REMARK    9  A    between atoms: N_21  and  C_22
REMARK                            x       y       z     vdW  Elec       q    Type
REMARK                         _______ _______ _______ _____ _____    ______ ____
ROOT
ATOM      1  C   UNL     1       5.247   3.840  18.217  0.00  0.00    +0.000 C 
ATOM      2  O   UNL     1       5.262   3.770  19.446  0.00  0.00    +0.000 OA
ATOM      3  N   UNL     1       4.392   3.090  17.442  0.00  0.00    +0.000 N 
ATOM      4  H   UNL     1       4.441   3.207  16.438  0.00  0.00    +0.000 HD
ENDROOT
BRANCH   1  12
ATOM      5  N   UNL     1       5.572   4.365  13.833  0.00  0.00    +0.000 N 
ATOM      6  C   UNL     1       6.074   4.080  15.076  0.00  0.00    +0.000 C 
ATOM      7  O   UNL     1       6.641   3.020  15.336  0.00  0.00    +0.000 OA
ATOM      8  N   UNL     1       5.790   5.022  16.040  0.00  0.00    +0.000 N 
ATOM      9  C   UNL     1       5.167   6.325  15.895  0.00  0.00    +0.000 C 
ATOM     10  C   UNL     1       5.869   7.165  16.945  0.00  0.00    +0.000 C 
ATOM     11  C   UNL     1       6.099   6.195  18.096  0.00  0.00    +0.000 C 
ATOM     12  C   UNL     1       6.180   4.804  17.444  0.00  0.00    +0.000 C 
ATOM     13  H   UNL     1       5.455   5.335  13.599  0.00  0.00    +0.000 HD
BRANCH   5  15
ATOM     14  C   UNL     1       4.476   3.541  11.816  0.00  0.00    +0.000 C 
ATOM     15  C   UNL     1       5.716   3.452  12.703  0.00  0.00    +0.000 C 
ATOM     16  C   UNL     1       6.967   3.775  11.889  0.00  0.00    +0.000 C 
ENDBRANCH   5  15
ENDBRANCH   1  12
BRANCH   3  17
ATOM     17  C   UNL     1       3.528   2.071  17.988  0.00  0.00    +0.000 C 
BRANCH  17  18
ATOM     18  C   UNL     1       2.075   2.528  18.000  0.00  0.00    +0.000 C 
BRANCH  18  19
ATOM     19  C   UNL     1       1.711   3.140  19.349  0.00  0.00    +0.000 C 
BRANCH  19  20
ATOM     20  C   UNL     1       1.884   4.616  19.367  0.00  0.00    +0.000 A 
ATOM     21  C   UNL     1       1.934   5.476  20.489  0.00  0.00    +0.000 A 
ATOM     22  N   UNL     1       2.133   6.752  20.152  0.00  0.00    +0.000 NA
ATOM     23  N   UNL     1       2.222   6.714  18.810  0.00  0.00    +0.000 N 
ATOM     24  C   UNL     1       2.527   7.912  18.067  0.00  0.00    +0.000 C 
ATOM     25  C   UNL     1       2.050   5.464  18.291  0.00  0.00    +0.000 A 
ENDBRANCH  19  20
ENDBRANCH  18  19
ENDBRANCH  17  18
ENDBRANCH   3  17
TORSDOF 6
ENDMDL
MODEL 8
REMARK VINA RESULT:      -7.0      2.028      2.397
REMARK  Name = 
REMARK  9 active torsions:
REMARK  status: ('A' for Active; 'I' for Inactive)
REMARK    1  A    between atoms: C_1  and  C_2
REMARK    2  A    between atoms: C_2  and  C_3
REMARK    3  A    between atoms: C_2  and  N_4
REMARK    4  A    between atoms: C_11  and  C_12
REMARK    5  A    between atoms: N_14  and  C_15
REMARK    6  A    between atoms: C_15  and  C_16
REMARK    7  A    between atoms: C_16  and  C_17
REMARK    8  A    between atoms: C_17  and  C_18
REMARK    9  A    between atoms: N_21  and  C_22
REMARK                            x       y       z     vdW  Elec       q    Type
REMARK                         _______ _______ _______ _____ _____    ______ ____
ROOT
ATOM      1  C   UNL     1       6.634   6.853  17.157  0.00  0.00    +0.000 C 
ATOM      2  O   UNL     1       5.699   7.430  16.602  0.00  0.00    +0.000 OA
ATOM      3  N   UNL     1       7.684   7.530  17.736  0.00  0.00    +0.000 N 
ATOM      4  H   UNL     1       8.413   6.981  18.174  0.00  0.00    +0.000 HD
ENDROOT
BRANCH   1  12
ATOM      5  N   UNL     1       3.648   4.162  19.013  0.00  0.00    +0.000 N 
ATOM      6  C   UNL     1       4.903   4.694  18.875  0.00  0.00    +0.000 C 
ATOM      7  O   UNL     1       5.500   5.234  19.805  0.00  0.00    +0.000 OA
ATOM      8  N   UNL     1       5.394   4.683  17.588  0.00  0.00    +0.000 N 
ATOM      9  C   UNL     1       4.838   4.066  16.399  0.00  0.00    +0.000 C 
ATOM     10  C   UNL     1       6.067   3.629  15.625  0.00  0.00    +0.000 C 
ATOM     11  C   UNL     1       7.083   4.730  15.902  0.00  0.00    +0.000 C 
ATOM     12  C   UNL     1       6.689   5.310  17.272  0.00  0.00    +0.000 C 
ATOM     13  H   UNL     1       3.378   3.452  18.356  0.00  0.00    +0.000 HD
BRANCH   5  15
ATOM     14  C   UNL     1       1.498   4.606  20.077  0.00  0.00    +0.000 C 
ATOM     15  C   UNL     1       2.939   4.147  20.289  0.00  0.00    +0.000 C 
ATOM     16  C   UNL     1       2.960   2.755  20.916  0.00  0.00    +0.000 C 
ENDBRANCH   5  15
ENDBRANCH   1  12
BRANCH   3  17
ATOM     17  C   UNL     1       7.845   8.961  17.635  0.00  0.00    +0.000 C 
BRANCH  17  18
ATOM     18  C   UNL     1       8.780   9.488  18.716  0.00  0.00    +0.000 C 
BRANCH  18  19
ATOM     19  C   UNL     1       9.658  10.610  18.172  0.00  0.00    +0.000 C 
BRANCH  19  20
ATOM     20  C   UNL     1       9.175  11.956  18.578  0.00  0.00    +0.000 A 
ATOM     21  C   UNL     1       8.541  12.934  17.777  0.00  0.00    +0.000 A 
ATOM     22  N   UNL     1       8.204  14.026  18.467  0.00  0.00    +0.000 NA
ATOM     23  N   UNL     1       8.613  13.747  19.717  0.00  0.00    +0.000 N 
ATOM     24  C   UNL     1       8.343  14.669  20.793  0.00  0.00    +0.000 C 
ATOM     25  C   UNL     1       9.226  12.534  19.830  0.00  0.00    +0.000 A 
ENDBRANCH  19  20
ENDBRANCH  18  19
ENDBRANCH  17  18
ENDBRANCH   3  17
TORSDOF 6
ENDMDL
MODEL 9
REMARK VINA RESULT:      -7.0      2.132      3.907
REMARK  Name = 
REMARK  9 active torsions:
REMARK  status: ('A' for Active; 'I' for Inactive)
REMARK    1  A    between atoms: C_1  and  C_2
REMARK    2  A    between atoms: C_2  and  C_3
REMARK    3  A    between atoms: C_2  and  N_4
REMARK    4  A    between atoms: C_11  and  C_12
REMARK    5  A    between atoms: N_14  and  C_15
REMARK    6  A    between atoms: C_15  and  C_16
REMARK    7  A    between atoms: C_16  and  C_17
REMARK    8  A    between atoms: C_17  and  C_18
REMARK    9  A    between atoms: N_21  and  C_22
REMARK                            x       y       z     vdW  Elec       q    Type
REMARK                         _______ _______ _______ _____ _____    ______ ____
ROOT
ATOM      1  C   UNL     1       6.329   5.997  18.274  0.00  0.00    +0.000 C 
ATOM      2  O   UNL     1       6.886   5.293  19.116  0.00  0.00    +0.000 OA
ATOM      3  N   UNL     1       6.917   7.122  17.741  0.00  0.00    +0.000 N 
ATOM      4  H   UNL     1       6.392   7.645  17.051  0.00  0.00    +0.000 HD
ENDROOT
BRANCH   1  12
ATOM      5  N   UNL     1       5.315   4.044  14.432  0.00  0.00    +0.000 N 
ATOM      6  C   UNL     1       5.257   5.066  15.342  0.00  0.00    +0.000 C 
ATOM      7  O   UNL     1       5.578   6.221  15.064  0.00  0.00    +0.000 OA
ATOM      8  N   UNL     1       4.927   4.679  16.622  0.00  0.00    +0.000 N 
ATOM      9  C   UNL     1       4.496   3.380  17.105  0.00  0.00    +0.000 C 
ATOM     10  C   UNL     1       3.517   3.727  18.211  0.00  0.00    +0.000 C 
ATOM     11  C   UNL     1       4.110   4.979  18.845  0.00  0.00    +0.000 C 
ATOM     12  C   UNL     1       4.922   5.654  17.726  0.00  0.00    +0.000 C 
ATOM     13  H   UNL     1       4.728   3.247  14.602  0.00  0.00    +0.000 HD
BRANCH   5  15
ATOM     14  C   UNL     1       7.218   4.033  12.905  0.00  0.00    +0.000 C 
ATOM     15  C   UNL     1       5.713   4.253  13.043  0.00  0.00    +0.000 C 
ATOM     16  C   UNL     1       4.958   3.314  12.106  0.00  0.00    +0.000 C 
ENDBRANCH   5  15
ENDBRANCH   1  12
BRANCH   3  17
ATOM     17  C   UNL     1       8.179   7.643  18.208  0.00  0.00    +0.000 C 
BRANCH  17  18
ATOM     18  C   UNL     1       8.257   9.152  18.019  0.00  0.00    +0.000 C 
BRANCH  18  19
ATOM     19  C   UNL     1       9.168   9.783  19.068  0.00  0.00    +0.000 C 
BRANCH  19  20
ATOM     20  C   UNL     1       9.710  11.096  18.631  0.00  0.00    +0.000 A 
ATOM     21  C   UNL     1       9.065  12.097  17.868  0.00  0.00    +0.000 A 
ATOM     22  N   UNL     1       9.830  13.174  17.679  0.00  0.00    +0.000 NA
ATOM     23  N   UNL     1      10.967  12.872  18.330  0.00  0.00    +0.000 N 
ATOM     24  C   UNL     1      12.029  13.843  18.429  0.00  0.00    +0.000 C 
ATOM     25  C   UNL     1      10.957  11.629  18.891  0.00  0.00    +0.000 A 
ENDBRANCH  19  20
ENDBRANCH  18  19
ENDBRANCH  17  18
ENDBRANCH   3  17
TORSDOF 6
ENDMDL
