MODEL 1
REMARK VINA RESULT:      -9.2      0.000      0.000
REMARK  Name = 
REMARK  8 active torsions:
REMARK  status: ('A' for Active; 'I' for Inactive)
REMARK    1  A    between atoms: C_1  and  C_2
REMARK    2  A    between atoms: C_2  and  N_3
REMARK    3  A    between atoms: N_6  and  C_7
REMARK    4  A    between atoms: C_7  and  C_8
REMARK    5  A    between atoms: C_8  and  C_9
REMARK    6  A    between atoms: C_9  and  C_10
REMARK    7  A    between atoms: N_21  and  C_22
REMARK    8  A    between atoms: C_22  and  C_23
REMARK                            x       y       z     vdW  Elec       q    Type
REMARK                         _______ _______ _______ _____ _____    ______ ____
ROOT
ATOM      1  N   UNL     1       6.342   4.975  18.257  0.00  0.00    +0.000 N 
ATOM      2  C   UNL     1       6.966   4.428  17.139  0.00  0.00    +0.000 C 
ATOM      3  O   UNL     1       8.166   4.329  16.942  0.00  0.00    +0.000 OA
ATOM      4  N   UNL     1       5.995   4.028  16.263  0.00  0.00    +0.000 N 
ATOM      5  C   UNL     1       4.750   4.211  16.788  0.00  0.00    +0.000 C 
ATOM      6  O   UNL     1       3.700   3.878  16.255  0.00  0.00    +0.000 OA
ATOM      7  C   UNL     1       4.879   5.035  18.081  0.00  0.00    +0.000 C 
ATOM      8  C   UNL     1       4.095   4.403  19.232  0.00  0.00    +0.000 C 
ATOM      9  C   UNL     1       2.597   4.693  19.130  0.00  0.00    +0.000 C 
ATOM     10  N   UNL     1       2.287   6.120  18.965  0.00  0.00    +0.000 NA
ATOM     11  C   UNL     1       2.914   6.632  17.743  0.00  0.00    +0.000 C 
ATOM     12  C   UNL     1       4.435   6.472  17.737  0.00  0.00    +0.000 C 
ENDROOT
BRANCH   1  14
ATOM     13  C   UNL     1       8.114   6.598  19.087  0.00  0.00    +0.000 C 
ATOM     14  C   UNL     1       7.008   5.604  19.401  0.00  0.00    +0.000 C 
ENDBRANCH   1  14
BRANCH   4  15
ATOM     15  C   UNL     1       6.240   3.684  14.875  0.00  0.00    +0.000 C 
BRANCH  15  16
ATOM     16  C   UNL     1       6.524   4.967  14.081  0.00  0.00    +0.000 C 
BRANCH  16  17
ATOM     17  C   UNL     1       7.212   4.698  12.745  0.00  0.00    +0.000 C 
BRANCH  17  18
ATOM     18  C   UNL     1       6.667   3.455  12.089  0.00  0.00    +0.000 A 
ATOM     19  C   UNL     1       5.297   3.267  11.899  0.00  0.00    +0.000 A 
ATOM     20  C   UNL     1       4.837   2.112  11.269  0.00  0.00    +0.000 A 
ATOM     21  C   UNL     1       5.770   1.183  10.839  0.00  0.00    +0.000 A 
ATOM     22  N   UNL     1       7.102   1.335  10.992  0.00  0.00    +0.000 NA
ATOM     23  C   UNL     1       7.519   2.465  11.610  0.00  0.00    +0.000 A 
ENDBRANCH  17  18
ENDBRANCH  16  17
ENDBRANCH  15  16
ENDBRANCH   4  15
BRANCH  10  24
ATOM     24  C   UNL     1       2.606   6.956  20.137  0.00  0.00    +0.000 C 
BRANCH  24  25
ATOM     25  C   UNL     1       1.626   8.089  20.350  0.00  0.00    +0.000 A 
ATOM     26  C   UNL     1       1.327   8.969  19.284  0.00  0.00    +0.000 A 
ATOM     27  C   UNL     1       0.507  10.084  19.473  0.00  0.00    +0.000 A 
ATOM     28  C   UNL     1      -0.022  10.300  20.732  0.00  0.00    +0.000 A 
ATOM     29  C   UNL     1       0.229   9.397  21.785  0.00  0.00    +0.000 A 
ATOM     30  C   UNL     1       1.053   8.298  21.613  0.00  0.00    +0.000 A 
ATOM     31  C   UNL     1      -0.502   9.835  23.038  0.00  0.00    +0.000 C 
ATOM     32  C   UNL     1      -1.177  11.112  22.576  0.00  0.00    +0.000 A 
ATOM     33  C   UNL     1      -1.985  11.969  23.302  0.00  0.00    +0.000 A 
ATOM     34  C   UNL     1      -2.464  13.115  22.664  0.00  0.00    +0.000 A 
ATOM     35  C   UNL     1      -2.126  13.391  21.327  0.00  0.00    +0.000 A 
ATOM     36  C   UNL     1      -1.320  12.514  20.597  0.00  0.00    +0.000 A 
ATOM     37  C   UNL     1      -0.860  11.369  21.225  0.00  0.00    +0.000 A 
ENDBRANCH  24  25
ENDBRANCH  10  24
TORSDOF 7
ENDMDL
MODEL 2
REMARK VINA RESULT:      -9.0      5.490     10.596
REMARK  Name = 
REMARK  8 active torsions:
REMARK  status: ('A' for Active; 'I' for Inactive)
REMARK    1  A    between atoms: C_1  and  C_2
REMARK    2  A    between atoms: C_2  and  N_3
REMARK    3  A    between atoms: N_6  and  C_7
REMARK    4  A    between atoms: C_7  and  C_8
REMARK    5  A    between atoms: C_8  and  C_9
REMARK    6  A    between atoms: C_9  and  C_10
REMARK    7  A    between atoms: N_21  and  C_22
REMARK    8  A    between atoms: C_22  and  C_23
REMARK                            x       y       z     vdW  Elec       q    Type
REMARK                         _______ _______ _______ _____ _____    ______ ____
ROOT
ATOM      1  N   UNL     1      -1.785  11.945  21.904  0.00  0.00    +0.000 N 
ATOM      2  C   UNL     1      -3.099  12.398  21.825  0.00  0.00    +0.000 C 
ATOM      3  O   UNL     1      -3.894  12.507  22.744  0.00  0.00    +0.000 OA
ATOM      4  N   UNL     1      -3.371  12.689  20.517  0.00  0.00    +0.000 N 
ATOM      5  C   UNL     1      -2.267  12.526  19.735  0.00  0.00    +0.000 C 
ATOM      6  O   UNL     1      -2.201  12.782  18.539  0.00  0.00    +0.000 OA
ATOM      7  C   UNL     1      -1.174  11.832  20.566  0.00  0.00    +0.000 C 
ATOM      8  C   UNL     1       0.170  12.552  20.442  0.00  0.00    +0.000 C 
ATOM      9  C   UNL     1       0.878  12.217  19.128  0.00  0.00    +0.000 C 
ATOM     10  N   UNL     1       0.996  10.774  18.879  0.00  0.00    +0.000 NA
ATOM     11  C   UNL     1      -0.335  10.164  18.823  0.00  0.00    +0.000 C 
ATOM     12  C   UNL     1      -1.139  10.359  20.110  0.00  0.00    +0.000 C 
ENDROOT
BRANCH   1  14
ATOM     13  C   UNL     1      -0.736   9.971  23.115  0.00  0.00    +0.000 C 
ATOM     14  C   UNL     1      -1.110  11.444  23.104  0.00  0.00    +0.000 C 
ENDBRANCH   1  14
BRANCH   4  15
ATOM     15  C   UNL     1      -4.705  12.905  19.991  0.00  0.00    +0.000 C 
BRANCH  15  16
ATOM     16  C   UNL     1      -5.291  11.560  19.535  0.00  0.00    +0.000 C 
BRANCH  16  17
ATOM     17  C   UNL     1      -5.703  11.560  18.065  0.00  0.00    +0.000 C 
BRANCH  17  18
ATOM     18  C   UNL     1      -4.607  11.008  17.189  0.00  0.00    +0.000 A 
ATOM     19  C   UNL     1      -3.840   9.909  17.580  0.00  0.00    +0.000 A 
ATOM     20  C   UNL     1      -2.851   9.418  16.729  0.00  0.00    +0.000 A 
ATOM     21  C   UNL     1      -2.669  10.039  15.505  0.00  0.00    +0.000 A 
ATOM     22  N   UNL     1      -3.399  11.094  15.086  0.00  0.00    +0.000 NA
ATOM     23  C   UNL     1      -4.350  11.551  15.934  0.00  0.00    +0.000 A 
ENDBRANCH  17  18
ENDBRANCH  16  17
ENDBRANCH  15  16
ENDBRANCH   4  15
BRANCH  10  24
ATOM     24  C   UNL     1       1.888  10.061  19.811  0.00  0.00    +0.000 C 
BRANCH  24  25
ATOM     25  C   UNL     1       2.085   8.603  19.458  0.00  0.00    +0.000 A 
ATOM     26  C   UNL     1       2.510   8.247  18.158  0.00  0.00    +0.000 A 
ATOM     27  C   UNL     1       2.603   6.909  17.767  0.00  0.00    +0.000 A 
ATOM     28  C   UNL     1       2.285   5.933  18.693  0.00  0.00    +0.000 A 
ATOM     29  C   UNL     1       1.912   6.282  20.008  0.00  0.00    +0.000 A 
ATOM     30  C   UNL     1       1.801   7.604  20.401  0.00  0.00    +0.000 A 
ATOM     31  C   UNL     1       1.663   5.034  20.831  0.00  0.00    +0.000 C 
ATOM     32  C   UNL     1       1.913   3.935  19.816  0.00  0.00    +0.000 A 
ATOM     33  C   UNL     1       1.827   2.565  19.993  0.00  0.00    +0.000 A 
ATOM     34  C   UNL     1       2.067   1.746  18.888  0.00  0.00    +0.000 A 
ATOM     35  C   UNL     1       2.379   2.300  17.634  0.00  0.00    +0.000 A 
ATOM     36  C   UNL     1       2.477   3.684  17.467  0.00  0.00    +0.000 A 
ATOM     37  C   UNL     1       2.256   4.494  18.567  0.00  0.00    +0.000 A 
ENDBRANCH  24  25
ENDBRANCH  10  24
TORSDOF 7
ENDMDL
MODEL 3
REMARK VINA RESULT:      -8.7      5.578     12.699
REMARK  Name = 
REMARK  8 active torsions:
REMARK  status: ('A' for Active; 'I' for Inactive)
REMARK    1  A    between atoms: C_1  and  C_2
REMARK    2  A    between atoms: C_2  and  N_3
REMARK    3  A    between atoms: N_6  and  C_7
REMARK    4  A    between atoms: C_7  and  C_8
REMARK    5  A    between atoms: C_8  and  C_9
REMARK    6  A    between atoms: C_9  and  C_10
REMARK    7  A    between atoms: N_21  and  C_22
REMARK    8  A    between atoms: C_22  and  C_23
REMARK                            x       y       z     vdW  Elec       q    Type
REMARK                         _______ _______ _______ _____ _____    ______ ____
ROOT
ATOM      1  N   UNL     1      -0.478  14.364  19.668  0.00  0.00    +0.000 N 
ATOM      2  C   UNL     1      -1.389  15.258  20.223  0.00  0.00    +0.000 C 
ATOM      3  O   UNL     1      -1.303  16.476  20.244  0.00  0.00    +0.000 OA
ATOM      4  N   UNL     1      -2.411  14.538  20.775  0.00  0.00    +0.000 N 
ATOM      5  C   UNL     1      -2.259  13.204  20.538  0.00  0.00    +0.000 C 
ATOM      6  O   UNL     1      -3.059  12.332  20.854  0.00  0.00    +0.000 OA
ATOM      7  C   UNL     1      -0.858  12.966  19.947  0.00  0.00    +0.000 C 
ATOM      8  C   UNL     1      -0.916  12.084  18.699  0.00  0.00    +0.000 C 
ATOM      9  C   UNL     1      -1.078  10.605  19.053  0.00  0.00    +0.000 C 
ATOM     10  N   UNL     1      -0.090  10.124  20.029  0.00  0.00    +0.000 NA
ATOM     11  C   UNL     1      -0.205  10.885  21.276  0.00  0.00    +0.000 C 
ATOM     12  C   UNL     1       0.009  12.387  21.084  0.00  0.00    +0.000 C 
ENDROOT
BRANCH   1  14
ATOM     13  C   UNL     1       1.882  15.259  19.970  0.00  0.00    +0.000 C 
ATOM     14  C   UNL     1       0.806  14.705  19.050  0.00  0.00    +0.000 C 
ENDBRANCH   1  14
BRANCH   4  15
ATOM     15  C   UNL     1      -3.392  15.085  21.693  0.00  0.00    +0.000 C 
BRANCH  15  16
ATOM     16  C   UNL     1      -4.546  15.702  20.887  0.00  0.00    +0.000 C 
BRANCH  16  17
ATOM     17  C   UNL     1      -5.668  14.708  20.601  0.00  0.00    +0.000 C 
BRANCH  17  18
ATOM     18  C   UNL     1      -6.274  14.183  21.878  0.00  0.00    +0.000 A 
ATOM     19  C   UNL     1      -6.928  15.025  22.779  0.00  0.00    +0.000 A 
ATOM     20  C   UNL     1      -7.492  14.495  23.938  0.00  0.00    +0.000 A 
ATOM     21  C   UNL     1      -7.392  13.130  24.151  0.00  0.00    +0.000 A 
ATOM     22  N   UNL     1      -6.782  12.282  23.297  0.00  0.00    +0.000 NA
ATOM     23  C   UNL     1      -6.240  12.826  22.182  0.00  0.00    +0.000 A 
ENDBRANCH  17  18
ENDBRANCH  16  17
ENDBRANCH  15  16
ENDBRANCH   4  15
BRANCH  10  24
ATOM     24  C   UNL     1       1.297  10.092  19.531  0.00  0.00    +0.000 C 
BRANCH  24  25
ATOM     25  C   UNL     1       1.801   8.693  19.247  0.00  0.00    +0.000 A 
ATOM     26  C   UNL     1       2.317   8.379  17.970  0.00  0.00    +0.000 A 
ATOM     27  C   UNL     1       2.696   7.075  17.642  0.00  0.00    +0.000 A 
ATOM     28  C   UNL     1       2.570   6.094  18.609  0.00  0.00    +0.000 A 
ATOM     29  C   UNL     1       2.106   6.413  19.903  0.00  0.00    +0.000 A 
ATOM     30  C   UNL     1       1.713   7.698  20.233  0.00  0.00    +0.000 A 
ATOM     31  C   UNL     1       2.107   5.177  20.779  0.00  0.00    +0.000 C 
ATOM     32  C   UNL     1       2.601   4.113  19.820  0.00  0.00    +0.000 A 
ATOM     33  C   UNL     1       2.799   2.764  20.058  0.00  0.00    +0.000 A 
ATOM     34  C   UNL     1       3.227   1.967  18.995  0.00  0.00    +0.000 A 
ATOM     35  C   UNL     1       3.442   2.519  17.720  0.00  0.00    +0.000 A 
ATOM     36  C   UNL     1       3.252   3.884  17.490  0.00  0.00    +0.000 A 
ATOM     37  C   UNL     1       2.844   4.677  18.549  0.00  0.00    +0.000 A 
ENDBRANCH  24  25
ENDBRANCH  10  24
TORSDOF 7
ENDMDL
MODEL 4
REMARK VINA RESULT:      -8.6      5.711     12.593
REMARK  Name = 
REMARK  8 active torsions:
REMARK  status: ('A' for Active; 'I' for Inactive)
REMARK    1  A    between atoms: C_1  and  C_2
REMARK    2  A    between atoms: C_2  and  N_3
REMARK    3  A    between atoms: N_6  and  C_7
REMARK    4  A    between atoms: C_7  and  C_8
REMARK    5  A    between atoms: C_8  and  C_9
REMARK    6  A    between atoms: C_9  and  C_10
REMARK    7  A    between atoms: N_21  and  C_22
REMARK    8  A    between atoms: C_22  and  C_23
REMARK                            x       y       z     vdW  Elec       q    Type
REMARK                         _______ _______ _______ _____ _____    ______ ____
ROOT
ATOM      1  N   UNL     1      -0.181  14.414  19.642  0.00  0.00    +0.000 N 
ATOM      2  C   UNL     1      -1.091  15.391  20.037  0.00  0.00    +0.000 C 
ATOM      3  O   UNL     1      -0.931  16.600  20.003  0.00  0.00    +0.000 OA
ATOM      4  N   UNL     1      -2.213  14.765  20.502  0.00  0.00    +0.000 N 
ATOM      5  C   UNL     1      -2.120  13.412  20.355  0.00  0.00    +0.000 C 
ATOM      6  O   UNL     1      -3.004  12.608  20.620  0.00  0.00    +0.000 OA
ATOM      7  C   UNL     1      -0.679  13.060  19.948  0.00  0.00    +0.000 C 
ATOM      8  C   UNL     1      -0.649  12.109  18.750  0.00  0.00    +0.000 C 
ATOM      9  C   UNL     1      -0.945  10.665  19.160  0.00  0.00    +0.000 C 
ATOM     10  N   UNL     1      -0.108  10.188  20.269  0.00  0.00    +0.000 NA
ATOM     11  C   UNL     1      -0.316  11.028  21.452  0.00  0.00    +0.000 C 
ATOM     12  C   UNL     1       0.014  12.501  21.208  0.00  0.00    +0.000 C 
ENDROOT
BRANCH   1  14
ATOM     13  C   UNL     1       2.245  14.911  20.218  0.00  0.00    +0.000 C 
ATOM     14  C   UNL     1       1.184  14.644  19.162  0.00  0.00    +0.000 C 
ENDBRANCH   1  14
BRANCH   4  15
ATOM     15  C   UNL     1      -3.256  15.421  21.267  0.00  0.00    +0.000 C 
BRANCH  15  16
ATOM     16  C   UNL     1      -2.729  15.728  22.677  0.00  0.00    +0.000 C 
BRANCH  16  17
ATOM     17  C   UNL     1      -2.960  14.583  23.659  0.00  0.00    +0.000 C 
BRANCH  17  18
ATOM     18  C   UNL     1      -4.420  14.211  23.733  0.00  0.00    +0.000 A 
ATOM     19  C   UNL     1      -5.419  15.179  23.847  0.00  0.00    +0.000 A 
ATOM     20  C   UNL     1      -6.757  14.792  23.890  0.00  0.00    +0.000 A 
ATOM     21  C   UNL     1      -7.052  13.442  23.807  0.00  0.00    +0.000 A 
ATOM     22  N   UNL     1      -6.117  12.477  23.682  0.00  0.00    +0.000 NA
ATOM     23  C   UNL     1      -4.826  12.882  23.646  0.00  0.00    +0.000 A 
ENDBRANCH  17  18
ENDBRANCH  16  17
ENDBRANCH  15  16
ENDBRANCH   4  15
BRANCH  10  24
ATOM     24  C   UNL     1       1.322  10.047  19.940  0.00  0.00    +0.000 C 
BRANCH  24  25
ATOM     25  C   UNL     1       1.713   8.638  19.552  0.00  0.00    +0.000 A 
ATOM     26  C   UNL     1       2.083   8.354  18.218  0.00  0.00    +0.000 A 
ATOM     27  C   UNL     1       2.351   7.048  17.801  0.00  0.00    +0.000 A 
ATOM     28  C   UNL     1       2.261   6.033  18.736  0.00  0.00    +0.000 A 
ATOM     29  C   UNL     1       1.945   6.317  20.081  0.00  0.00    +0.000 A 
ATOM     30  C   UNL     1       1.662   7.605  20.500  0.00  0.00    +0.000 A 
ATOM     31  C   UNL     1       1.957   5.044  20.903  0.00  0.00    +0.000 C 
ATOM     32  C   UNL     1       2.293   3.999  19.856  0.00  0.00    +0.000 A 
ATOM     33  C   UNL     1       2.433   2.632  20.019  0.00  0.00    +0.000 A 
ATOM     34  C   UNL     1       2.708   1.862  18.887  0.00  0.00    +0.000 A 
ATOM     35  C   UNL     1       2.831   2.460  17.620  0.00  0.00    +0.000 A 
ATOM     36  C   UNL     1       2.700   3.843  17.467  0.00  0.00    +0.000 A 
ATOM     37  C   UNL     1       2.445   4.607  18.592  0.00  0.00    +0.000 A 
ENDBRANCH  24  25
ENDBRANCH  10  24
TORSDOF 7
ENDMDL
MODEL 5
REMARK VINA RESULT:      -8.5      0.918      1.844
REMARK  Name = 
REMARK  8 active torsions:
REMARK  status: ('A' for Active; 'I' for Inactive)
REMARK    1  A    between atoms: C_1  and  C_2
REMARK    2  A    between atoms: C_2  and  N_3
REMARK    3  A    between atoms: N_6  and  C_7
REMARK    4  A    between atoms: C_7  and  C_8
REMARK    5  A    between atoms: C_8  and  C_9
REMARK    6  A    between atoms: C_9  and  C_10
REMARK    7  A    between atoms: N_21  and  C_22
REMARK    8  A    between atoms: C_22  and  C_23
REMARK                            x       y       z     vdW  Elec       q    Type
REMARK                         _______ _______ _______ _____ _____    ______ ____
ROOT
ATOM      1  N   UNL     1       6.258   4.817  18.332  0.00  0.00    +0.000 N 
ATOM      2  C   UNL     1       6.870   4.366  17.166  0.00  0.00    +0.000 C 
ATOM      3  O   UNL     1       8.064   4.380  16.910  0.00  0.00    +0.000 OA
ATOM      4  N   UNL     1       5.896   3.915  16.320  0.00  0.00    +0.000 N 
ATOM      5  C   UNL     1       4.667   3.970  16.909  0.00  0.00    +0.000 C 
ATOM      6  O   UNL     1       3.624   3.566  16.412  0.00  0.00    +0.000 OA
ATOM      7  C   UNL     1       4.789   4.756  18.226  0.00  0.00    +0.000 C 
ATOM      8  C   UNL     1       4.119   4.016  19.386  0.00  0.00    +0.000 C 
ATOM      9  C   UNL     1       2.598   4.179  19.365  0.00  0.00    +0.000 C 
ATOM     10  N   UNL     1       2.160   5.578  19.271  0.00  0.00    +0.000 NA
ATOM     11  C   UNL     1       2.680   6.186  18.043  0.00  0.00    +0.000 C 
ATOM     12  C   UNL     1       4.207   6.160  17.960  0.00  0.00    +0.000 C 
ENDROOT
BRANCH   1  14
ATOM     13  C   UNL     1       8.031   6.449  19.142  0.00  0.00    +0.000 C 
ATOM     14  C   UNL     1       6.924   5.460  19.468  0.00  0.00    +0.000 C 
ENDBRANCH   1  14
BRANCH   4  15
ATOM     15  C   UNL     1       6.100   3.644  14.910  0.00  0.00    +0.000 C 
BRANCH  15  16
ATOM     16  C   UNL     1       6.344   4.969  14.172  0.00  0.00    +0.000 C 
BRANCH  16  17
ATOM     17  C   UNL     1       7.095   4.786  12.856  0.00  0.00    +0.000 C 
BRANCH  17  18
ATOM     18  C   UNL     1       6.636   3.546  12.131  0.00  0.00    +0.000 A 
ATOM     19  C   UNL     1       7.542   2.594  11.660  0.00  0.00    +0.000 A 
ATOM     20  C   UNL     1       7.072   1.452  11.014  0.00  0.00    +0.000 A 
ATOM     21  C   UNL     1       5.704   1.296  10.869  0.00  0.00    +0.000 A 
ATOM     22  N   UNL     1       4.797   2.186  11.322  0.00  0.00    +0.000 NA
ATOM     23  C   UNL     1       5.282   3.287  11.942  0.00  0.00    +0.000 A 
ENDBRANCH  17  18
ENDBRANCH  16  17
ENDBRANCH  15  16
ENDBRANCH   4  15
BRANCH  10  24
ATOM     24  C   UNL     1       2.464   6.396  20.459  0.00  0.00    +0.000 C 
BRANCH  24  25
ATOM     25  C   UNL     1       1.689   7.696  20.507  0.00  0.00    +0.000 A 
ATOM     26  C   UNL     1       0.762   7.922  21.550  0.00  0.00    +0.000 A 
ATOM     27  C   UNL     1      -0.042   9.064  21.570  0.00  0.00    +0.000 A 
ATOM     28  C   UNL     1       0.102   9.983  20.547  0.00  0.00    +0.000 A 
ATOM     29  C   UNL     1       1.063   9.788  19.533  0.00  0.00    +0.000 A 
ATOM     30  C   UNL     1       1.854   8.653  19.495  0.00  0.00    +0.000 A 
ATOM     31  C   UNL     1       1.050  10.956  18.568  0.00  0.00    +0.000 C 
ATOM     32  C   UNL     1      -0.053  11.824  19.141  0.00  0.00    +0.000 A 
ATOM     33  C   UNL     1      -0.528  13.035  18.668  0.00  0.00    +0.000 A 
ATOM     34  C   UNL     1      -1.589  13.633  19.350  0.00  0.00    +0.000 A 
ATOM     35  C   UNL     1      -2.161  13.017  20.478  0.00  0.00    +0.000 A 
ATOM     36  C   UNL     1      -1.667  11.801  20.955  0.00  0.00    +0.000 A 
ATOM     37  C   UNL     1      -0.603  11.217  20.289  0.00  0.00    +0.000 A 
ENDBRANCH  24  25
ENDBRANCH  10  24
TORSDOF 7
ENDMDL
MODEL 6
REMARK VINA RESULT:      -8.3      5.151     12.912
REMARK  Name = 
REMARK  8 active torsions:
REMARK  status: ('A' for Active; 'I' for Inactive)
REMARK    1  A    between atoms: C_1  and  C_2
REMARK    2  A    between atoms: C_2  and  N_3
REMARK    3  A    between atoms: N_6  and  C_7
REMARK    4  A    between atoms: C_7  and  C_8
REMARK    5  A    between atoms: C_8  and  C_9
REMARK    6  A    between atoms: C_9  and  C_10
REMARK    7  A    between atoms: N_21  and  C_22
REMARK    8  A    between atoms: C_22  and  C_23
REMARK                            x       y       z     vdW  Elec       q    Type
REMARK                         _______ _______ _______ _____ _____    ______ ____
ROOT
ATOM      1  N   UNL     1      -2.579  13.118  20.730  0.00  0.00    +0.000 N 
ATOM      2  C   UNL     1      -2.741  14.434  21.155  0.00  0.00    +0.000 C 
ATOM      3  O   UNL     1      -3.597  15.223  20.789  0.00  0.00    +0.000 OA
ATOM      4  N   UNL     1      -1.752  14.716  22.054  0.00  0.00    +0.000 N 
ATOM      5  C   UNL     1      -0.986  13.616  22.307  0.00  0.00    +0.000 C 
ATOM      6  O   UNL     1      -0.075  13.559  23.123  0.00  0.00    +0.000 OA
ATOM      7  C   UNL     1      -1.359  12.516  21.299  0.00  0.00    +0.000 C 
ATOM      8  C   UNL     1      -1.602  11.175  21.993  0.00  0.00    +0.000 C 
ATOM      9  C   UNL     1      -0.292  10.474  22.358  0.00  0.00    +0.000 C 
ATOM     10  N   UNL     1       0.641  10.355  21.229  0.00  0.00    +0.000 NA
ATOM     11  C   UNL     1       0.986  11.685  20.719  0.00  0.00    +0.000 C 
ATOM     12  C   UNL     1      -0.232  12.480  20.246  0.00  0.00    +0.000 C 
ENDROOT
BRANCH   1  14
ATOM     13  C   UNL     1      -4.871  12.359  19.933  0.00  0.00    +0.000 C 
ATOM     14  C   UNL     1      -3.370  12.434  19.703  0.00  0.00    +0.000 C 
ENDBRANCH   1  14
BRANCH   4  15
ATOM     15  C   UNL     1      -1.408  16.054  22.495  0.00  0.00    +0.000 C 
BRANCH  15  16
ATOM     16  C   UNL     1      -2.464  16.541  23.499  0.00  0.00    +0.000 C 
BRANCH  16  17
ATOM     17  C   UNL     1      -2.693  15.557  24.643  0.00  0.00    +0.000 C 
BRANCH  17  18
ATOM     18  C   UNL     1      -3.904  14.695  24.390  0.00  0.00    +0.000 A 
ATOM     19  C   UNL     1      -5.104  15.234  23.926  0.00  0.00    +0.000 A 
ATOM     20  C   UNL     1      -6.192  14.397  23.685  0.00  0.00    +0.000 A 
ATOM     21  C   UNL     1      -6.038  13.039  23.908  0.00  0.00    +0.000 A 
ATOM     22  N   UNL     1      -4.890  12.478  24.342  0.00  0.00    +0.000 NA
ATOM     23  C   UNL     1      -3.852  13.316  24.571  0.00  0.00    +0.000 A 
ENDBRANCH  17  18
ENDBRANCH  16  17
ENDBRANCH  15  16
ENDBRANCH   4  15
BRANCH  10  24
ATOM     24  C   UNL     1       0.189   9.454  20.153  0.00  0.00    +0.000 C 
BRANCH  24  25
ATOM     25  C   UNL     1       1.325   8.754  19.439  0.00  0.00    +0.000 A 
ATOM     26  C   UNL     1       1.814   9.275  18.219  0.00  0.00    +0.000 A 
ATOM     27  C   UNL     1       2.790   8.600  17.482  0.00  0.00    +0.000 A 
ATOM     28  C   UNL     1       3.283   7.410  17.986  0.00  0.00    +0.000 A 
ATOM     29  C   UNL     1       2.837   6.913  19.229  0.00  0.00    +0.000 A 
ATOM     30  C   UNL     1       1.859   7.566  19.959  0.00  0.00    +0.000 A 
ATOM     31  C   UNL     1       3.564   5.629  19.571  0.00  0.00    +0.000 C 
ATOM     32  C   UNL     1       4.457   5.442  18.360  0.00  0.00    +0.000 A 
ATOM     33  C   UNL     1       5.354   4.420  18.101  0.00  0.00    +0.000 A 
ATOM     34  C   UNL     1       6.040   4.443  16.886  0.00  0.00    +0.000 A 
ATOM     35  C   UNL     1       5.820   5.471  15.952  0.00  0.00    +0.000 A 
ATOM     36  C   UNL     1       4.922   6.506  16.226  0.00  0.00    +0.000 A 
ATOM     37  C   UNL     1       4.254   6.491  17.438  0.00  0.00    +0.000 A 
ENDBRANCH  24  25
ENDBRANCH  10  24
TORSDOF 7
ENDMDL
MODEL 7
REMARK VINA RESULT:      -8.3      5.462     11.615
REMARK  Name = 
REMARK  8 active torsions:
REMARK  status: ('A' for Active; 'I' for Inactive)
REMARK    1  A    between atoms: C_1  and  C_2
REMARK    2  A    between atoms: C_2  and  N_3
REMARK    3  A    between atoms: N_6  and  C_7
REMARK    4  A    between atoms: C_7  and  C_8
REMARK    5  A    between atoms: C_8  and  C_9
REMARK    6  A    between atoms: C_9  and  C_10
REMARK    7  A    between atoms: N_21  and  C_22
REMARK    8  A    between atoms: C_22  and  C_23
REMARK                            x       y       z     vdW  Elec       q    Type
REMARK                         _______ _______ _______ _____ _____    ______ ____
ROOT
ATOM      1  N   UNL     1       1.837  14.222  20.419  0.00  0.00    +0.000 N 
ATOM      2  C   UNL     1       1.306  15.491  20.208  0.00  0.00    +0.000 C 
ATOM      3  O   UNL     1       1.754  16.552  20.615  0.00  0.00    +0.000 OA
ATOM      4  N   UNL     1       0.163  15.357  19.471  0.00  0.00    +0.000 N 
ATOM      5  C   UNL     1      -0.044  14.058  19.113  0.00  0.00    +0.000 C 
ATOM      6  O   UNL     1      -0.950  13.657  18.394  0.00  0.00    +0.000 OA
ATOM      7  C   UNL     1       0.953  13.172  19.880  0.00  0.00    +0.000 C 
ATOM      8  C   UNL     1       1.663  12.188  18.950  0.00  0.00    +0.000 C 
ATOM      9  C   UNL     1       0.778  10.989  18.604  0.00  0.00    +0.000 C 
ATOM     10  N   UNL     1       0.205  10.325  19.783  0.00  0.00    +0.000 NA
ATOM     11  C   UNL     1      -0.619  11.270  20.541  0.00  0.00    +0.000 C 
ATOM     12  C   UNL     1       0.160  12.496  21.018  0.00  0.00    +0.000 C 
ENDROOT
BRANCH   1  14
ATOM     13  C   UNL     1       4.339  14.488  20.785  0.00  0.00    +0.000 C 
ATOM     14  C   UNL     1       3.012  13.897  21.233  0.00  0.00    +0.000 C 
ENDBRANCH   1  14
BRANCH   4  15
ATOM     15  C   UNL     1      -0.823  16.407  19.297  0.00  0.00    +0.000 C 
BRANCH  15  16
ATOM     16  C   UNL     1      -1.510  16.680  20.643  0.00  0.00    +0.000 C 
BRANCH  16  17
ATOM     17  C   UNL     1      -2.904  16.064  20.734  0.00  0.00    +0.000 C 
BRANCH  17  18
ATOM     18  C   UNL     1      -2.900  14.823  21.590  0.00  0.00    +0.000 A 
ATOM     19  C   UNL     1      -2.218  14.773  22.806  0.00  0.00    +0.000 A 
ATOM     20  C   UNL     1      -2.258  13.612  23.576  0.00  0.00    +0.000 A 
ATOM     21  C   UNL     1      -2.992  12.537  23.104  0.00  0.00    +0.000 A 
ATOM     22  N   UNL     1      -3.676  12.551  21.941  0.00  0.00    +0.000 NA
ATOM     23  C   UNL     1      -3.616  13.690  21.213  0.00  0.00    +0.000 A 
ENDBRANCH  17  18
ENDBRANCH  16  17
ENDBRANCH  15  16
ENDBRANCH   4  15
BRANCH  10  24
ATOM     24  C   UNL     1       1.192   9.645  20.642  0.00  0.00    +0.000 C 
BRANCH  24  25
ATOM     25  C   UNL     1       1.648   8.310  20.092  0.00  0.00    +0.000 A 
ATOM     26  C   UNL     1       2.136   8.227  18.768  0.00  0.00    +0.000 A 
ATOM     27  C   UNL     1       2.469   6.997  18.195  0.00  0.00    +0.000 A 
ATOM     28  C   UNL     1       2.325   5.857  18.964  0.00  0.00    +0.000 A 
ATOM     29  C   UNL     1       1.890   5.940  20.303  0.00  0.00    +0.000 A 
ATOM     30  C   UNL     1       1.542   7.151  20.876  0.00  0.00    +0.000 A 
ATOM     31  C   UNL     1       1.864   4.562  20.933  0.00  0.00    +0.000 C 
ATOM     32  C   UNL     1       2.311   3.684  19.781  0.00  0.00    +0.000 A 
ATOM     33  C   UNL     1       2.470   2.309  19.760  0.00  0.00    +0.000 A 
ATOM     34  C   UNL     1       2.858   1.713  18.558  0.00  0.00    +0.000 A 
ATOM     35  C   UNL     1       3.073   2.489  17.405  0.00  0.00    +0.000 A 
ATOM     36  C   UNL     1       2.923   3.878  17.439  0.00  0.00    +0.000 A 
ATOM     37  C   UNL     1       2.555   4.469  18.635  0.00  0.00    +0.000 A 
ENDBRANCH  24  25
ENDBRANCH  10  24
TORSDOF 7
ENDMDL
MODEL 8
REMARK VINA RESULT:      -8.2      5.560     12.608
REMARK  Name = 
REMARK  8 active torsions:
REMARK  status: ('A' for Active; 'I' for Inactive)
REMARK    1  A    between atoms: C_1  and  C_2
REMARK    2  A    between atoms: C_2  and  N_3
REMARK    3  A    between atoms: N_6  and  C_7
REMARK    4  A    between atoms: C_7  and  C_8
REMARK    5  A    between atoms: C_8  and  C_9
REMARK    6  A    between atoms: C_9  and  C_10
REMARK    7  A    between atoms: N_21  and  C_22
REMARK    8  A    between atoms: C_22  and  C_23
REMARK                            x       y       z     vdW  Elec       q    Type
REMARK                         _______ _______ _______ _____ _____    ______ ____
ROOT
ATOM      1  N   UNL     1      -0.678  14.436  19.850  0.00  0.00    +0.000 N 
ATOM      2  C   UNL     1      -1.656  15.265  20.393  0.00  0.00    +0.000 C 
ATOM      3  O   UNL     1      -1.588  16.473  20.557  0.00  0.00    +0.000 OA
ATOM      4  N   UNL     1      -2.727  14.489  20.742  0.00  0.00    +0.000 N 
ATOM      5  C   UNL     1      -2.533  13.189  20.378  0.00  0.00    +0.000 C 
ATOM      6  O   UNL     1      -3.353  12.289  20.503  0.00  0.00    +0.000 OA
ATOM      7  C   UNL     1      -1.072  13.017  19.929  0.00  0.00    +0.000 C 
ATOM      8  C   UNL     1      -0.977  12.278  18.593  0.00  0.00    +0.000 C 
ATOM      9  C   UNL     1      -1.162  10.769  18.761  0.00  0.00    +0.000 C 
ATOM     10  N   UNL     1      -0.286  10.182  19.784  0.00  0.00    +0.000 NA
ATOM     11  C   UNL     1      -0.550  10.800  21.086  0.00  0.00    +0.000 C 
ATOM     12  C   UNL     1      -0.333  12.314  21.086  0.00  0.00    +0.000 C 
ENDROOT
BRANCH   1  14
ATOM     13  C   UNL     1       1.620  15.296  20.515  0.00  0.00    +0.000 C 
ATOM     14  C   UNL     1       0.664  14.842  19.425  0.00  0.00    +0.000 C 
ENDBRANCH   1  14
BRANCH   4  15
ATOM     15  C   UNL     1      -3.812  14.933  21.596  0.00  0.00    +0.000 C 
BRANCH  15  16
ATOM     16  C   UNL     1      -3.678  14.260  22.970  0.00  0.00    +0.000 C 
BRANCH  16  17
ATOM     17  C   UNL     1      -3.482  15.262  24.105  0.00  0.00    +0.000 C 
BRANCH  17  18
ATOM     18  C   UNL     1      -2.156  15.969  23.988  0.00  0.00    +0.000 A 
ATOM     19  C   UNL     1      -2.069  17.361  23.926  0.00  0.00    +0.000 A 
ATOM     20  C   UNL     1      -0.821  17.974  23.839  0.00  0.00    +0.000 A 
ATOM     21  C   UNL     1       0.306  17.169  23.829  0.00  0.00    +0.000 A 
ATOM     22  N   UNL     1       0.265  15.823  23.901  0.00  0.00    +0.000 NA
ATOM     23  C   UNL     1      -0.961  15.255  23.981  0.00  0.00    +0.000 A 
ENDBRANCH  17  18
ENDBRANCH  16  17
ENDBRANCH  15  16
ENDBRANCH   4  15
BRANCH  10  24
ATOM     24  C   UNL     1       1.149  10.204  19.447  0.00  0.00    +0.000 C 
BRANCH  24  25
ATOM     25  C   UNL     1       1.729   8.827  19.202  0.00  0.00    +0.000 A 
ATOM     26  C   UNL     1       2.374   8.546  17.976  0.00  0.00    +0.000 A 
ATOM     27  C   UNL     1       2.830   7.260  17.675  0.00  0.00    +0.000 A 
ATOM     28  C   UNL     1       2.650   6.265  18.619  0.00  0.00    +0.000 A 
ATOM     29  C   UNL     1       2.056   6.553  19.866  0.00  0.00    +0.000 A 
ATOM     30  C   UNL     1       1.586   7.819  20.167  0.00  0.00    +0.000 A 
ATOM     31  C   UNL     1       2.021   5.309  20.729  0.00  0.00    +0.000 C 
ATOM     32  C   UNL     1       2.642   4.274  19.812  0.00  0.00    +0.000 A 
ATOM     33  C   UNL     1       2.867   2.930  20.059  0.00  0.00    +0.000 A 
ATOM     34  C   UNL     1       3.422   2.161  19.034  0.00  0.00    +0.000 A 
ATOM     35  C   UNL     1       3.735   2.734  17.789  0.00  0.00    +0.000 A 
ATOM     36  C   UNL     1       3.516   4.094  17.553  0.00  0.00    +0.000 A 
ATOM     37  C   UNL     1       2.982   4.860  18.575  0.00  0.00    +0.000 A 
ENDBRANCH  24  25
ENDBRANCH  10  24
TORSDOF 7
ENDMDL
MODEL 9
REMARK VINA RESULT:      -8.2      5.658     12.620
REMARK  Name = 
REMARK  8 active torsions:
REMARK  status: ('A' for Active; 'I' for Inactive)
REMARK    1  A    between atoms: C_1  and  C_2
REMARK    2  A    between atoms: C_2  and  N_3
REMARK    3  A    between atoms: N_6  and  C_7
REMARK    4  A    between atoms: C_7  and  C_8
REMARK    5  A    between atoms: C_8  and  C_9
REMARK    6  A    between atoms: C_9  and  C_10
REMARK    7  A    between atoms: N_21  and  C_22
REMARK    8  A    between atoms: C_22  and  C_23
REMARK                            x       y       z     vdW  Elec       q    Type
REMARK                         _______ _______ _______ _____ _____    ______ ____
ROOT
ATOM      1  N   UNL     1       0.240  14.821  20.143  0.00  0.00    +0.000 N 
ATOM      2  C   UNL     1      -0.590  15.809  20.663  0.00  0.00    +0.000 C 
ATOM      3  O   UNL     1      -0.282  16.959  20.936  0.00  0.00    +0.000 OA
ATOM      4  N   UNL     1      -1.833  15.270  20.845  0.00  0.00    +0.000 N 
ATOM      5  C   UNL     1      -1.885  13.986  20.390  0.00  0.00    +0.000 C 
ATOM      6  O   UNL     1      -2.888  13.284  20.361  0.00  0.00    +0.000 OA
ATOM      7  C   UNL     1      -0.455  13.522  20.063  0.00  0.00    +0.000 C 
ATOM      8  C   UNL     1      -0.377  12.868  18.682  0.00  0.00    +0.000 C 
ATOM      9  C   UNL     1      -0.899  11.430  18.702  0.00  0.00    +0.000 C 
ATOM     10  N   UNL     1      -0.284  10.599  19.746  0.00  0.00    +0.000 NA
ATOM     11  C   UNL     1      -0.549  11.176  21.067  0.00  0.00    +0.000 C 
ATOM     12  C   UNL     1      -0.013  12.600  21.218  0.00  0.00    +0.000 C 
ENDROOT
BRANCH   1  14
ATOM     13  C   UNL     1       2.077  15.668  18.603  0.00  0.00    +0.000 C 
ATOM     14  C   UNL     1       1.676  14.944  19.878  0.00  0.00    +0.000 C 
ENDBRANCH   1  14
BRANCH   4  15
ATOM     15  C   UNL     1      -2.883  15.888  21.632  0.00  0.00    +0.000 C 
BRANCH  15  16
ATOM     16  C   UNL     1      -2.491  15.847  23.116  0.00  0.00    +0.000 C 
BRANCH  16  17
ATOM     17  C   UNL     1      -2.496  14.434  23.693  0.00  0.00    +0.000 C 
BRANCH  17  18
ATOM     18  C   UNL     1      -3.902  13.918  23.865  0.00  0.00    +0.000 A 
ATOM     19  C   UNL     1      -5.014  14.721  23.610  0.00  0.00    +0.000 A 
ATOM     20  C   UNL     1      -6.296  14.197  23.763  0.00  0.00    +0.000 A 
ATOM     21  C   UNL     1      -6.423  12.876  24.158  0.00  0.00    +0.000 A 
ATOM     22  N   UNL     1      -5.373  12.064  24.400  0.00  0.00    +0.000 NA
ATOM     23  C   UNL     1      -4.140  12.601  24.247  0.00  0.00    +0.000 A 
ENDBRANCH  17  18
ENDBRANCH  16  17
ENDBRANCH  15  16
ENDBRANCH   4  15
BRANCH  10  24
ATOM     24  C   UNL     1       1.149  10.322  19.545  0.00  0.00    +0.000 C 
BRANCH  24  25
ATOM     25  C   UNL     1       1.488   8.848  19.584  0.00  0.00    +0.000 A 
ATOM     26  C   UNL     1       1.185   8.089  20.737  0.00  0.00    +0.000 A 
ATOM     27  C   UNL     1       1.574   6.752  20.849  0.00  0.00    +0.000 A 
ATOM     28  C   UNL     1       2.253   6.179  19.789  0.00  0.00    +0.000 A 
ATOM     29  C   UNL     1       2.512   6.916  18.614  0.00  0.00    +0.000 A 
ATOM     30  C   UNL     1       2.145   8.245  18.500  0.00  0.00    +0.000 A 
ATOM     31  C   UNL     1       3.222   6.048  17.596  0.00  0.00    +0.000 C 
ATOM     32  C   UNL     1       3.360   4.737  18.345  0.00  0.00    +0.000 A 
ATOM     33  C   UNL     1       3.946   3.558  17.915  0.00  0.00    +0.000 A 
ATOM     34  C   UNL     1       3.989   2.485  18.808  0.00  0.00    +0.000 A 
ATOM     35  C   UNL     1       3.460   2.604  20.105  0.00  0.00    +0.000 A 
ATOM     36  C   UNL     1       2.859   3.793  20.526  0.00  0.00    +0.000 A 
ATOM     37  C   UNL     1       2.801   4.851  19.635  0.00  0.00    +0.000 A 
ENDBRANCH  24  25
ENDBRANCH  10  24
TORSDOF 7
ENDMDL
