MODEL 1
REMARK VINA RESULT:      -7.2      0.000      0.000
REMARK  Name = 
REMARK  4 active torsions:
REMARK  status: ('A' for Active; 'I' for Inactive)
REMARK    1  A    between atoms: C_1  and  C_2
REMARK    2  A    between atoms: C_14  and  N_15
REMARK    3  A    between atoms: C_18  and  O_19
REMARK    4  A    between atoms: C_20  and  C_21
REMARK                            x       y       z     vdW  Elec       q    Type
REMARK                         _______ _______ _______ _____ _____    ______ ____
ROOT
ATOM      1  C   UNL     1       1.032  13.503  20.484  0.00  0.00    +0.000 C 
ATOM      2  C   UNL     1       0.577  14.049  21.815  0.00  0.00    +0.000 C 
ATOM      3  O   UNL     1       1.390  14.782  22.389  0.00  0.00    +0.000 OA
ATOM      4  N   UNL     1      -0.722  13.738  22.297  0.00  0.00    +0.000 N 
ATOM      5  C   UNL     1      -1.262  14.568  23.391  0.00  0.00    +0.000 A 
ATOM      6  C   UNL     1      -0.735  15.842  23.687  0.00  0.00    +0.000 A 
ATOM      7  C   UNL     1      -1.126  16.586  24.809  0.00  0.00    +0.000 A 
ATOM      8  C   UNL     1      -2.077  16.081  25.670  0.00  0.00    +0.000 A 
ATOM      9  C   UNL     1      -2.667  14.862  25.371  0.00  0.00    +0.000 A 
ATOM     10  C   UNL     1      -2.332  14.133  24.201  0.00  0.00    +0.000 A 
ATOM     11  C   UNL     1      -3.126  12.879  23.926  0.00  0.00    +0.000 C 
ATOM     12  C   UNL     1      -2.761  12.236  22.585  0.00  0.00    +0.000 C 
ATOM     13  C   UNL     1      -3.686  12.937  21.578  0.00  0.00    +0.000 C 
ATOM     14  C   UNL     1      -4.985  13.215  22.311  0.00  0.00    +0.000 C 
ATOM     15  C   UNL     1      -4.672  13.041  23.799  0.00  0.00    +0.000 C 
ATOM     16  C   UNL     1      -1.247  12.325  22.278  0.00  0.00    +0.000 C 
ENDROOT
BRANCH  16  17
ATOM     17  C   UNL     1      -0.908  11.449  21.061  0.00  0.00    +0.000 A 
ATOM     18  C   UNL     1      -1.469  11.658  19.789  0.00  0.00    +0.000 A 
ATOM     19  C   UNL     1      -1.071  10.906  18.681  0.00  0.00    +0.000 A 
ATOM     20  C   UNL     1      -0.085   9.938  18.818  0.00  0.00    +0.000 A 
ATOM     21  C   UNL     1       0.475   9.695  20.070  0.00  0.00    +0.000 A 
ATOM     22  C   UNL     1       0.053  10.427  21.186  0.00  0.00    +0.000 A 
ENDBRANCH  16  17
BRANCH  14  23
ATOM     23  N   UNL     1      -5.972  12.197  21.888  0.00  0.00    +0.000 NA
ATOM     24  N   UNL     1      -6.840  11.917  22.732  0.00  0.00    +0.000 NA
ATOM     25  N   UNL     1      -7.647  11.666  23.500  0.00  0.00    +0.000 NA
ENDBRANCH  14  23
BRANCH  15  26
ATOM     26  O   UNL     1      -5.279  14.084  24.552  0.00  0.00    +0.000 OA
ATOM     27  H   UNL     1      -6.238  14.073  24.363  0.00  0.00    +0.000 HD
ENDBRANCH  15  26
TORSDOF 3
ENDMDL
MODEL 2
REMARK VINA RESULT:      -7.0      0.916      1.378
REMARK  Name = 
REMARK  4 active torsions:
REMARK  status: ('A' for Active; 'I' for Inactive)
REMARK    1  A    between atoms: C_1  and  C_2
REMARK    2  A    between atoms: C_14  and  N_15
REMARK    3  A    between atoms: C_18  and  O_19
REMARK    4  A    between atoms: C_20  and  C_21
REMARK                            x       y       z     vdW  Elec       q    Type
REMARK                         _______ _______ _______ _____ _____    ______ ____
ROOT
ATOM      1  C   UNL     1       0.924  13.579  21.297  0.00  0.00    +0.000 C 
ATOM      2  C   UNL     1       0.234  14.405  22.354  0.00  0.00    +0.000 C 
ATOM      3  O   UNL     1       0.904  15.337  22.814  0.00  0.00    +0.000 OA
ATOM      4  N   UNL     1      -1.105  14.105  22.719  0.00  0.00    +0.000 N 
ATOM      5  C   UNL     1      -1.857  15.134  23.462  0.00  0.00    +0.000 A 
ATOM      6  C   UNL     1      -1.456  16.487  23.471  0.00  0.00    +0.000 A 
ATOM      7  C   UNL     1      -2.062  17.455  24.285  0.00  0.00    +0.000 A 
ATOM      8  C   UNL     1      -3.107  17.101  25.111  0.00  0.00    +0.000 A 
ATOM      9  C   UNL     1      -3.572  15.795  25.076  0.00  0.00    +0.000 A 
ATOM     10  C   UNL     1      -3.016  14.823  24.205  0.00  0.00    +0.000 A 
ATOM     11  C   UNL     1      -3.684  13.470  24.173  0.00  0.00    +0.000 C 
ATOM     12  C   UNL     1      -3.075  12.540  23.120  0.00  0.00    +0.000 C 
ATOM     13  C   UNL     1      -3.867  12.862  21.843  0.00  0.00    +0.000 C 
ATOM     14  C   UNL     1      -5.280  13.194  22.288  0.00  0.00    +0.000 C 
ATOM     15  C   UNL     1      -5.197  13.443  23.796  0.00  0.00    +0.000 C 
ATOM     16  C   UNL     1      -1.540  12.692  23.011  0.00  0.00    +0.000 C 
ENDROOT
BRANCH  16  17
ATOM     17  C   UNL     1      -0.963  11.567  22.137  0.00  0.00    +0.000 A 
ATOM     18  C   UNL     1      -0.274  10.463  22.668  0.00  0.00    +0.000 A 
ATOM     19  C   UNL     1       0.157   9.409  21.858  0.00  0.00    +0.000 A 
ATOM     20  C   UNL     1      -0.111   9.428  20.496  0.00  0.00    +0.000 A 
ATOM     21  C   UNL     1      -0.776  10.517  19.938  0.00  0.00    +0.000 A 
ATOM     22  C   UNL     1      -1.179  11.587  20.745  0.00  0.00    +0.000 A 
ENDBRANCH  16  17
BRANCH  14  23
ATOM     23  N   UNL     1      -6.128  12.010  22.025  0.00  0.00    +0.000 NA
ATOM     24  N   UNL     1      -6.995  11.777  22.885  0.00  0.00    +0.000 NA
ATOM     25  N   UNL     1      -7.800  11.567  23.666  0.00  0.00    +0.000 NA
ENDBRANCH  14  23
BRANCH  15  26
ATOM     26  O   UNL     1      -5.973  14.582  24.147  0.00  0.00    +0.000 OA
ATOM     27  H   UNL     1      -6.507  14.835  23.367  0.00  0.00    +0.000 HD
ENDBRANCH  15  26
TORSDOF 3
ENDMDL
MODEL 3
REMARK VINA RESULT:      -6.9      1.148      1.713
REMARK  Name = 
REMARK  4 active torsions:
REMARK  status: ('A' for Active; 'I' for Inactive)
REMARK    1  A    between atoms: C_1  and  C_2
REMARK    2  A    between atoms: C_14  and  N_15
REMARK    3  A    between atoms: C_18  and  O_19
REMARK    4  A    between atoms: C_20  and  C_21
REMARK                            x       y       z     vdW  Elec       q    Type
REMARK                         _______ _______ _______ _____ _____    ______ ____
ROOT
ATOM      1  C   UNL     1       0.142  13.762  18.569  0.00  0.00    +0.000 C 
ATOM      2  C   UNL     1       0.148  14.178  20.019  0.00  0.00    +0.000 C 
ATOM      3  O   UNL     1       1.106  14.881  20.360  0.00  0.00    +0.000 OA
ATOM      4  N   UNL     1      -0.922  13.791  20.868  0.00  0.00    +0.000 N 
ATOM      5  C   UNL     1      -1.072  14.508  22.148  0.00  0.00    +0.000 A 
ATOM      6  C   UNL     1      -0.474  15.766  22.370  0.00  0.00    +0.000 A 
ATOM      7  C   UNL     1      -0.475  16.399  23.621  0.00  0.00    +0.000 A 
ATOM      8  C   UNL     1      -1.093  15.796  24.695  0.00  0.00    +0.000 A 
ATOM      9  C   UNL     1      -1.752  14.591  24.496  0.00  0.00    +0.000 A 
ATOM     10  C   UNL     1      -1.820  13.976  23.220  0.00  0.00    +0.000 A 
ATOM     11  C   UNL     1      -2.663  12.729  23.106  0.00  0.00    +0.000 C 
ATOM     12  C   UNL     1      -2.758  12.215  21.666  0.00  0.00    +0.000 C 
ATOM     13  C   UNL     1      -3.960  12.974  21.084  0.00  0.00    +0.000 C 
ATOM     14  C   UNL     1      -4.947  13.153  22.223  0.00  0.00    +0.000 C 
ATOM     15  C   UNL     1      -4.165  12.859  23.505  0.00  0.00    +0.000 C 
ATOM     16  C   UNL     1      -1.428  12.371  20.892  0.00  0.00    +0.000 C 
ENDROOT
BRANCH  16  17
ATOM     17  C   UNL     1      -1.507  11.614  19.557  0.00  0.00    +0.000 A 
ATOM     18  C   UNL     1      -0.583  10.621  19.186  0.00  0.00    +0.000 A 
ATOM     19  C   UNL     1      -0.734   9.883  18.010  0.00  0.00    +0.000 A 
ATOM     20  C   UNL     1      -1.828  10.109  17.185  0.00  0.00    +0.000 A 
ATOM     21  C   UNL     1      -2.750  11.098  17.518  0.00  0.00    +0.000 A 
ATOM     22  C   UNL     1      -2.582  11.859  18.680  0.00  0.00    +0.000 A 
ENDBRANCH  16  17
BRANCH  14  23
ATOM     23  N   UNL     1      -6.021  12.148  22.054  0.00  0.00    +0.000 NA
ATOM     24  N   UNL     1      -6.749  11.977  23.047  0.00  0.00    +0.000 NA
ATOM     25  N   UNL     1      -7.427  11.827  23.953  0.00  0.00    +0.000 NA
ENDBRANCH  14  23
BRANCH  15  26
ATOM     26  O   UNL     1      -4.489  13.816  24.506  0.00  0.00    +0.000 OA
ATOM     27  H   UNL     1      -4.996  13.359  25.207  0.00  0.00    +0.000 HD
ENDBRANCH  15  26
TORSDOF 3
ENDMDL
MODEL 4
REMARK VINA RESULT:      -6.7      2.628      7.075
REMARK  Name = 
REMARK  4 active torsions:
REMARK  status: ('A' for Active; 'I' for Inactive)
REMARK    1  A    between atoms: C_1  and  C_2
REMARK    2  A    between atoms: C_14  and  N_15
REMARK    3  A    between atoms: C_18  and  O_19
REMARK    4  A    between atoms: C_20  and  C_21
REMARK                            x       y       z     vdW  Elec       q    Type
REMARK                         _______ _______ _______ _____ _____    ______ ____
ROOT
ATOM      1  C   UNL     1      -5.230  13.748  20.807  0.00  0.00    +0.000 C 
ATOM      2  C   UNL     1      -4.756  12.699  19.832  0.00  0.00    +0.000 C 
ATOM      3  O   UNL     1      -5.621  12.267  19.062  0.00  0.00    +0.000 OA
ATOM      4  N   UNL     1      -3.390  12.310  19.825  0.00  0.00    +0.000 N 
ATOM      5  C   UNL     1      -2.895  11.578  18.643  0.00  0.00    +0.000 A 
ATOM      6  C   UNL     1      -3.582  11.603  17.412  0.00  0.00    +0.000 A 
ATOM      7  C   UNL     1      -3.218  10.801  16.321  0.00  0.00    +0.000 A 
ATOM      8  C   UNL     1      -2.135   9.953  16.423  0.00  0.00    +0.000 A 
ATOM      9  C   UNL     1      -1.394   9.956  17.596  0.00  0.00    +0.000 A 
ATOM     10  C   UNL     1      -1.709  10.814  18.680  0.00  0.00    +0.000 A 
ATOM     11  C   UNL     1      -0.761  10.810  19.854  0.00  0.00    +0.000 C 
ATOM     12  C   UNL     1      -1.132  11.852  20.913  0.00  0.00    +0.000 C 
ATOM     13  C   UNL     1      -0.408  13.124  20.447  0.00  0.00    +0.000 C 
ATOM     14  C   UNL     1       0.889  12.667  19.805  0.00  0.00    +0.000 C 
ATOM     15  C   UNL     1       0.727  11.166  19.556  0.00  0.00    +0.000 C 
ATOM     16  C   UNL     1      -2.662  11.984  21.103  0.00  0.00    +0.000 C 
ENDROOT
BRANCH  16  17
ATOM     17  C   UNL     1      -2.963  12.843  22.341  0.00  0.00    +0.000 A 
ATOM     18  C   UNL     1      -3.664  12.354  23.458  0.00  0.00    +0.000 A 
ATOM     19  C   UNL     1      -3.841  13.128  24.608  0.00  0.00    +0.000 A 
ATOM     20  C   UNL     1      -3.301  14.406  24.673  0.00  0.00    +0.000 A 
ATOM     21  C   UNL     1      -2.618  14.923  23.576  0.00  0.00    +0.000 A 
ATOM     22  C   UNL     1      -2.468  14.159  22.412  0.00  0.00    +0.000 A 
ENDBRANCH  16  17
BRANCH  14  23
ATOM     23  N   UNL     1       1.981  12.895  20.779  0.00  0.00    +0.000 NA
ATOM     24  N   UNL     1       1.831  13.879  21.524  0.00  0.00    +0.000 NA
ATOM     25  N   UNL     1       1.690  14.774  22.218  0.00  0.00    +0.000 NA
ENDBRANCH  14  23
BRANCH  15  26
ATOM     26  O   UNL     1       1.229  10.828  18.268  0.00  0.00    +0.000 OA
ATOM     27  H   UNL     1       0.514  10.380  17.774  0.00  0.00    +0.000 HD
ENDBRANCH  15  26
TORSDOF 3
ENDMDL
MODEL 5
REMARK VINA RESULT:      -6.6      1.066      1.361
REMARK  Name = 
REMARK  4 active torsions:
REMARK  status: ('A' for Active; 'I' for Inactive)
REMARK    1  A    between atoms: C_1  and  C_2
REMARK    2  A    between atoms: C_14  and  N_15
REMARK    3  A    between atoms: C_18  and  O_19
REMARK    4  A    between atoms: C_20  and  C_21
REMARK                            x       y       z     vdW  Elec       q    Type
REMARK                         _______ _______ _______ _____ _____    ______ ____
ROOT
ATOM      1  C   UNL     1       0.812  13.373  21.239  0.00  0.00    +0.000 C 
ATOM      2  C   UNL     1       0.168  14.256  22.278  0.00  0.00    +0.000 C 
ATOM      3  O   UNL     1       0.870  15.189  22.685  0.00  0.00    +0.000 OA
ATOM      4  N   UNL     1      -1.169  14.004  22.686  0.00  0.00    +0.000 N 
ATOM      5  C   UNL     1      -1.878  15.080  23.405  0.00  0.00    +0.000 A 
ATOM      6  C   UNL     1      -1.445  16.421  23.350  0.00  0.00    +0.000 A 
ATOM      7  C   UNL     1      -2.008  17.435  24.139  0.00  0.00    +0.000 A 
ATOM      8  C   UNL     1      -3.041  17.139  25.003  0.00  0.00    +0.000 A 
ATOM      9  C   UNL     1      -3.538  15.845  25.031  0.00  0.00    +0.000 A 
ATOM     10  C   UNL     1      -3.026  14.827  24.186  0.00  0.00    +0.000 A 
ATOM     11  C   UNL     1      -3.726  13.490  24.224  0.00  0.00    +0.000 C 
ATOM     12  C   UNL     1      -3.165  12.505  23.194  0.00  0.00    +0.000 C 
ATOM     13  C   UNL     1      -3.980  12.796  21.925  0.00  0.00    +0.000 C 
ATOM     14  C   UNL     1      -5.373  13.180  22.389  0.00  0.00    +0.000 C 
ATOM     15  C   UNL     1      -5.248  13.485  23.883  0.00  0.00    +0.000 C 
ATOM     16  C   UNL     1      -1.630  12.615  23.044  0.00  0.00    +0.000 C 
ENDROOT
BRANCH  16  17
ATOM     17  C   UNL     1      -1.101  11.443  22.202  0.00  0.00    +0.000 A 
ATOM     18  C   UNL     1      -1.226  11.391  20.802  0.00  0.00    +0.000 A 
ATOM     19  C   UNL     1      -0.653  10.360  20.054  0.00  0.00    +0.000 A 
ATOM     20  C   UNL     1       0.077   9.364  20.690  0.00  0.00    +0.000 A 
ATOM     21  C   UNL     1       0.201   9.379  22.077  0.00  0.00    +0.000 A 
ATOM     22  C   UNL     1      -0.399  10.395  22.829  0.00  0.00    +0.000 A 
ENDBRANCH  16  17
BRANCH  14  23
ATOM     23  N   UNL     1      -6.256  12.008  22.193  0.00  0.00    +0.000 NA
ATOM     24  N   UNL     1      -6.432  11.669  21.010  0.00  0.00    +0.000 NA
ATOM     25  N   UNL     1      -6.586  11.346  19.926  0.00  0.00    +0.000 NA
ENDBRANCH  14  23
BRANCH  15  26
ATOM     26  O   UNL     1      -5.988  14.656  24.207  0.00  0.00    +0.000 OA
ATOM     27  H   UNL     1      -5.580  15.410  23.736  0.00  0.00    +0.000 HD
ENDBRANCH  15  26
TORSDOF 3
ENDMDL
MODEL 6
REMARK VINA RESULT:      -6.6      3.345      6.528
REMARK  Name = 
REMARK  4 active torsions:
REMARK  status: ('A' for Active; 'I' for Inactive)
REMARK    1  A    between atoms: C_1  and  C_2
REMARK    2  A    between atoms: C_14  and  N_15
REMARK    3  A    between atoms: C_18  and  O_19
REMARK    4  A    between atoms: C_20  and  C_21
REMARK                            x       y       z     vdW  Elec       q    Type
REMARK                         _______ _______ _______ _____ _____    ______ ____
ROOT
ATOM      1  C   UNL     1      -2.580  12.314  23.440  0.00  0.00    +0.000 C 
ATOM      2  C   UNL     1      -1.447  11.637  22.708  0.00  0.00    +0.000 C 
ATOM      3  O   UNL     1      -0.519  11.244  23.424  0.00  0.00    +0.000 OA
ATOM      4  N   UNL     1      -1.524  11.460  21.302  0.00  0.00    +0.000 N 
ATOM      5  C   UNL     1      -0.600  10.488  20.684  0.00  0.00    +0.000 A 
ATOM      6  C   UNL     1       0.042   9.488  21.444  0.00  0.00    +0.000 A 
ATOM      7  C   UNL     1       1.034   8.650  20.914  0.00  0.00    +0.000 A 
ATOM      8  C   UNL     1       1.407   8.778  19.593  0.00  0.00    +0.000 A 
ATOM      9  C   UNL     1       0.746   9.704  18.799  0.00  0.00    +0.000 A 
ATOM     10  C   UNL     1      -0.308  10.508  19.304  0.00  0.00    +0.000 A 
ATOM     11  C   UNL     1      -1.027  11.393  18.315  0.00  0.00    +0.000 C 
ATOM     12  C   UNL     1      -2.216  12.128  18.942  0.00  0.00    +0.000 C 
ATOM     13  C   UNL     1      -3.384  11.144  18.775  0.00  0.00    +0.000 C 
ATOM     14  C   UNL     1      -3.148  10.415  17.465  0.00  0.00    +0.000 C 
ATOM     15  C   UNL     1      -1.689  10.687  17.093  0.00  0.00    +0.000 C 
ATOM     16  C   UNL     1      -1.931  12.589  20.390  0.00  0.00    +0.000 C 
ENDROOT
BRANCH  16  17
ATOM     17  C   UNL     1      -3.046  13.532  20.868  0.00  0.00    +0.000 A 
ATOM     18  C   UNL     1      -4.385  13.124  21.004  0.00  0.00    +0.000 A 
ATOM     19  C   UNL     1      -5.360  13.975  21.530  0.00  0.00    +0.000 A 
ATOM     20  C   UNL     1      -5.012  15.251  21.952  0.00  0.00    +0.000 A 
ATOM     21  C   UNL     1      -3.698  15.689  21.813  0.00  0.00    +0.000 A 
ATOM     22  C   UNL     1      -2.728  14.848  21.257  0.00  0.00    +0.000 A 
ENDBRANCH  16  17
BRANCH  14  23
ATOM     23  N   UNL     1      -4.041  11.012  16.447  0.00  0.00    +0.000 NA
ATOM     24  N   UNL     1      -3.794  10.692  15.272  0.00  0.00    +0.000 NA
ATOM     25  N   UNL     1      -3.577  10.390  14.192  0.00  0.00    +0.000 NA
ENDBRANCH  14  23
BRANCH  15  26
ATOM     26  O   UNL     1      -1.074   9.493  16.622  0.00  0.00    +0.000 OA
ATOM     27  H   UNL     1      -1.437   9.297  15.736  0.00  0.00    +0.000 HD
ENDBRANCH  15  26
TORSDOF 3
ENDMDL
MODEL 7
REMARK VINA RESULT:      -6.6      2.694      7.267
REMARK  Name = 
REMARK  4 active torsions:
REMARK  status: ('A' for Active; 'I' for Inactive)
REMARK    1  A    between atoms: C_1  and  C_2
REMARK    2  A    between atoms: C_14  and  N_15
REMARK    3  A    between atoms: C_18  and  O_19
REMARK    4  A    between atoms: C_20  and  C_21
REMARK                            x       y       z     vdW  Elec       q    Type
REMARK                         _______ _______ _______ _____ _____    ______ ____
ROOT
ATOM      1  C   UNL     1      -5.003  13.825  20.932  0.00  0.00    +0.000 C 
ATOM      2  C   UNL     1      -4.622  12.747  19.949  0.00  0.00    +0.000 C 
ATOM      3  O   UNL     1      -5.554  12.300  19.270  0.00  0.00    +0.000 OA
ATOM      4  N   UNL     1      -3.264  12.349  19.831  0.00  0.00    +0.000 N 
ATOM      5  C   UNL     1      -2.878  11.582  18.631  0.00  0.00    +0.000 A 
ATOM      6  C   UNL     1      -3.672  11.578  17.465  0.00  0.00    +0.000 A 
ATOM      7  C   UNL     1      -3.409  10.744  16.368  0.00  0.00    +0.000 A 
ATOM      8  C   UNL     1      -2.325   9.893  16.397  0.00  0.00    +0.000 A 
ATOM      9  C   UNL     1      -1.483   9.922  17.499  0.00  0.00    +0.000 A 
ATOM     10  C   UNL     1      -1.697  10.812  18.583  0.00  0.00    +0.000 A 
ATOM     11  C   UNL     1      -0.648  10.832  19.668  0.00  0.00    +0.000 C 
ATOM     12  C   UNL     1      -0.920  11.905  20.727  0.00  0.00    +0.000 C 
ATOM     13  C   UNL     1      -0.235  13.159  20.163  0.00  0.00    +0.000 C 
ATOM     14  C   UNL     1       0.999  12.677  19.422  0.00  0.00    +0.000 C 
ATOM     15  C   UNL     1       0.809  11.171  19.229  0.00  0.00    +0.000 C 
ATOM     16  C   UNL     1      -2.426  12.052  21.048  0.00  0.00    +0.000 C 
ENDROOT
BRANCH  16  17
ATOM     17  C   UNL     1      -2.612  12.946  22.284  0.00  0.00    +0.000 A 
ATOM     18  C   UNL     1      -2.173  14.281  22.335  0.00  0.00    +0.000 A 
ATOM     19  C   UNL     1      -2.440  15.098  23.436  0.00  0.00    +0.000 A 
ATOM     20  C   UNL     1      -3.172  14.602  24.506  0.00  0.00    +0.000 A 
ATOM     21  C   UNL     1      -3.604  13.279  24.492  0.00  0.00    +0.000 A 
ATOM     22  C   UNL     1      -3.309  12.451  23.403  0.00  0.00    +0.000 A 
ENDBRANCH  16  17
BRANCH  14  23
ATOM     23  N   UNL     1       2.174  12.924  20.289  0.00  0.00    +0.000 NA
ATOM     24  N   UNL     1       2.758  14.003  20.095  0.00  0.00    +0.000 NA
ATOM     25  N   UNL     1       3.290  14.999  19.928  0.00  0.00    +0.000 NA
ENDBRANCH  14  23
BRANCH  15  26
ATOM     26  O   UNL     1       1.193  10.795  17.912  0.00  0.00    +0.000 OA
ATOM     27  H   UNL     1       0.730   9.962  17.689  0.00  0.00    +0.000 HD
ENDBRANCH  15  26
TORSDOF 3
ENDMDL
MODEL 8
REMARK VINA RESULT:      -6.5      3.391      6.492
REMARK  Name = 
REMARK  4 active torsions:
REMARK  status: ('A' for Active; 'I' for Inactive)
REMARK    1  A    between atoms: C_1  and  C_2
REMARK    2  A    between atoms: C_14  and  N_15
REMARK    3  A    between atoms: C_18  and  O_19
REMARK    4  A    between atoms: C_20  and  C_21
REMARK                            x       y       z     vdW  Elec       q    Type
REMARK                         _______ _______ _______ _____ _____    ______ ____
ROOT
ATOM      1  C   UNL     1      -2.975  12.635  23.399  0.00  0.00    +0.000 C 
ATOM      2  C   UNL     1      -1.803  11.922  22.771  0.00  0.00    +0.000 C 
ATOM      3  O   UNL     1      -0.931  11.546  23.563  0.00  0.00    +0.000 OA
ATOM      4  N   UNL     1      -1.786  11.694  21.370  0.00  0.00    +0.000 N 
ATOM      5  C   UNL     1      -0.834  10.692  20.852  0.00  0.00    +0.000 A 
ATOM      6  C   UNL     1      -0.257   9.714  21.689  0.00  0.00    +0.000 A 
ATOM      7  C   UNL     1       0.759   8.849  21.259  0.00  0.00    +0.000 A 
ATOM      8  C   UNL     1       1.222   8.924  19.963  0.00  0.00    +0.000 A 
ATOM      9  C   UNL     1       0.628   9.827  19.093  0.00  0.00    +0.000 A 
ATOM     10  C   UNL     1      -0.449  10.659  19.496  0.00  0.00    +0.000 A 
ATOM     11  C   UNL     1      -1.088  11.514  18.429  0.00  0.00    +0.000 C 
ATOM     12  C   UNL     1      -2.308  12.282  18.946  0.00  0.00    +0.000 C 
ATOM     13  C   UNL     1      -3.474  11.304  18.735  0.00  0.00    +0.000 C 
ATOM     14  C   UNL     1      -3.157  10.526  17.471  0.00  0.00    +0.000 C 
ATOM     15  C   UNL     1      -1.673  10.770  17.190  0.00  0.00    +0.000 C 
ATOM     16  C   UNL     1      -2.116  12.794  20.393  0.00  0.00    +0.000 C 
ENDROOT
BRANCH  16  17
ATOM     17  C   UNL     1      -3.251  13.763  20.760  0.00  0.00    +0.000 A 
ATOM     18  C   UNL     1      -3.031  15.120  21.055  0.00  0.00    +0.000 A 
ATOM     19  C   UNL     1      -4.090  15.999  21.292  0.00  0.00    +0.000 A 
ATOM     20  C   UNL     1      -5.399  15.543  21.220  0.00  0.00    +0.000 A 
ATOM     21  C   UNL     1      -5.648  14.200  20.948  0.00  0.00    +0.000 A 
ATOM     22  C   UNL     1      -4.585  13.312  20.742  0.00  0.00    +0.000 A 
ENDBRANCH  16  17
BRANCH  14  23
ATOM     23  N   UNL     1      -3.972  11.094  16.373  0.00  0.00    +0.000 NA
ATOM     24  N   UNL     1      -3.647  10.731  15.230  0.00  0.00    +0.000 NA
ATOM     25  N   UNL     1      -3.360  10.390  14.179  0.00  0.00    +0.000 NA
ENDBRANCH  14  23
BRANCH  15  26
ATOM     26  O   UNL     1      -1.041   9.555  16.806  0.00  0.00    +0.000 OA
ATOM     27  H   UNL     1      -0.874   9.033  17.616  0.00  0.00    +0.000 HD
ENDBRANCH  15  26
TORSDOF 3
ENDMDL
MODEL 9
REMARK VINA RESULT:      -6.5      2.920      6.144
REMARK  Name = 
REMARK  4 active torsions:
REMARK  status: ('A' for Active; 'I' for Inactive)
REMARK    1  A    between atoms: C_1  and  C_2
REMARK    2  A    between atoms: C_14  and  N_15
REMARK    3  A    between atoms: C_18  and  O_19
REMARK    4  A    between atoms: C_20  and  C_21
REMARK                            x       y       z     vdW  Elec       q    Type
REMARK                         _______ _______ _______ _____ _____    ______ ____
ROOT
ATOM      1  C   UNL     1      -2.479  12.087  23.672  0.00  0.00    +0.000 C 
ATOM      2  C   UNL     1      -1.416  11.587  22.726  0.00  0.00    +0.000 C 
ATOM      3  O   UNL     1      -0.387  11.165  23.266  0.00  0.00    +0.000 OA
ATOM      4  N   UNL     1      -1.660  11.588  21.327  0.00  0.00    +0.000 N 
ATOM      5  C   UNL     1      -0.776  10.768  20.478  0.00  0.00    +0.000 A 
ATOM      6  C   UNL     1       0.005   9.721  21.012  0.00  0.00    +0.000 A 
ATOM      7  C   UNL     1       0.962   9.025  20.259  0.00  0.00    +0.000 A 
ATOM      8  C   UNL     1       1.159   9.347  18.933  0.00  0.00    +0.000 A 
ATOM      9  C   UNL     1       0.359  10.323  18.357  0.00  0.00    +0.000 A 
ATOM     10  C   UNL     1      -0.661  10.984  19.089  0.00  0.00    +0.000 A 
ATOM     11  C   UNL     1      -1.541  11.942  18.322  0.00  0.00    +0.000 C 
ATOM     12  C   UNL     1      -2.676  12.510  19.180  0.00  0.00    +0.000 C 
ATOM     13  C   UNL     1      -3.807  11.482  19.020  0.00  0.00    +0.000 C 
ATOM     14  C   UNL     1      -3.702  10.946  17.604  0.00  0.00    +0.000 C 
ATOM     15  C   UNL     1      -2.317  11.359  17.102  0.00  0.00    +0.000 C 
ATOM     16  C   UNL     1      -2.233  12.798  20.634  0.00  0.00    +0.000 C 
ENDROOT
BRANCH  16  17
ATOM     17  C   UNL     1      -3.324  13.596  21.365  0.00  0.00    +0.000 A 
ATOM     18  C   UNL     1      -4.609  13.081  21.615  0.00  0.00    +0.000 A 
ATOM     19  C   UNL     1      -5.549  13.792  22.364  0.00  0.00    +0.000 A 
ATOM     20  C   UNL     1      -5.217  15.030  22.898  0.00  0.00    +0.000 A 
ATOM     21  C   UNL     1      -3.959  15.573  22.652  0.00  0.00    +0.000 A 
ATOM     22  C   UNL     1      -3.028  14.875  21.874  0.00  0.00    +0.000 A 
ENDBRANCH  16  17
BRANCH  14  23
ATOM     23  N   UNL     1      -4.745  11.611  16.790  0.00  0.00    +0.000 NA
ATOM     24  N   UNL     1      -5.862  11.697  17.327  0.00  0.00    +0.000 NA
ATOM     25  N   UNL     1      -6.887  11.788  17.822  0.00  0.00    +0.000 NA
ENDBRANCH  14  23
BRANCH  15  26
ATOM     26  O   UNL     1      -1.709  10.279  16.403  0.00  0.00    +0.000 OA
ATOM     27  H   UNL     1      -2.302  10.024  15.668  0.00  0.00    +0.000 HD
ENDBRANCH  15  26
TORSDOF 3
ENDMDL
