MODEL 1
REMARK VINA RESULT:      -6.0      0.000      0.000
REMARK  Name = 
REMARK  14 active torsions:
REMARK  status: ('A' for Active; 'I' for Inactive)
REMARK    1  A    between atoms: C_1  and  C_2
REMARK    2  A    between atoms: C_2  and  C_3
REMARK    3  A    between atoms: C_2  and  C_4
REMARK    4  A    between atoms: C_6  and  C_7
REMARK    5  A    between atoms: C_7  and  C_8
REMARK    6  A    between atoms: C_7  and  C_9
REMARK    7  A    between atoms: C_10  and  S_11
REMARK    8  A    between atoms: S_11  and  N_14
REMARK    9  A    between atoms: N_14  and  C_15
REMARK   10  A    between atoms: C_15  and  C_16
REMARK   11  A    between atoms: C_15  and  C_22
REMARK   12  A    between atoms: C_26  and  C_27
REMARK   13  A    between atoms: C_27  and  C_28
REMARK   14  A    between atoms: C_27  and  C_29
REMARK                            x       y       z     vdW  Elec       q    Type
REMARK                         _______ _______ _______ _____ _____    ______ ____
ROOT
ATOM      1  S   UNL     1       0.291  11.778  21.661  0.00  0.00    +0.000 S 
ATOM      2  O   UNL     1      -0.582  11.905  22.801  0.00  0.00    +0.000 OA
ATOM      3  O   UNL     1       1.439  10.898  21.730  0.00  0.00    +0.000 OA
ENDROOT
BRANCH   1   7
ATOM      4  C   UNL     1      -2.488  10.950  18.025  0.00  0.00    +0.000 A 
ATOM      5  C   UNL     1      -1.210  10.386  18.091  0.00  0.00    +0.000 A 
ATOM      6  C   UNL     1      -0.344  10.555  19.196  0.00  0.00    +0.000 A 
ATOM      7  C   UNL     1      -0.766  11.450  20.231  0.00  0.00    +0.000 A 
ATOM      8  C   UNL     1      -2.068  12.067  20.173  0.00  0.00    +0.000 A 
ATOM      9  C   UNL     1      -2.897  11.771  19.069  0.00  0.00    +0.000 A 
BRANCH   4  11
ATOM     10  C   UNL     1      -4.679  11.436  16.954  0.00  0.00    +0.000 C 
ATOM     11  C   UNL     1      -3.428  10.551  16.898  0.00  0.00    +0.000 C 
ATOM     12  C   UNL     1      -2.800  10.601  15.502  0.00  0.00    +0.000 C 
ENDBRANCH   4  11
BRANCH   6  13
ATOM     13  C   UNL     1       0.932   9.694  19.239  0.00  0.00    +0.000 C 
ATOM     14  C   UNL     1       0.826   8.413  20.099  0.00  0.00    +0.000 C 
ATOM     15  C   UNL     1       1.449   9.270  17.859  0.00  0.00    +0.000 C 
ENDBRANCH   6  13
BRANCH   8  16
ATOM     16  C   UNL     1      -2.673  13.045  21.194  0.00  0.00    +0.000 C 
ATOM     17  C   UNL     1      -2.664  14.493  20.667  0.00  0.00    +0.000 C 
ATOM     18  C   UNL     1      -4.124  12.695  21.577  0.00  0.00    +0.000 C 
ENDBRANCH   8  16
ENDBRANCH   1   7
BRANCH   1  19
ATOM     19  N   UNL     1       0.903  13.324  21.393  0.00  0.00    +0.000 NA
ATOM     20  H   UNL     1       1.808  13.375  21.872  0.00  0.00    +0.000 HD
BRANCH  19  21
ATOM     21  C   UNL     1       0.977  13.903  20.018  0.00  0.00    +0.000 C 
BRANCH  21  22
ATOM     22  C   UNL     1       0.650  15.386  19.846  0.00  0.00    +0.000 A 
ATOM     23  C   UNL     1       0.890  16.323  20.845  0.00  0.00    +0.000 A 
ATOM     24  C   UNL     1       0.569  17.663  20.643  0.00  0.00    +0.000 A 
ATOM     25  C   UNL     1       0.045  18.057  19.422  0.00  0.00    +0.000 A 
ATOM     26  C   UNL     1      -0.135  17.083  18.457  0.00  0.00    +0.000 A 
ATOM     27  N   UNL     1       0.141  15.771  18.644  0.00  0.00    +0.000 NA
ENDBRANCH  21  22
BRANCH  21  28
ATOM     28  C   UNL     1       2.392  13.556  19.528  0.00  0.00    +0.000 C 
ATOM     29  C   UNL     1       3.538  14.511  19.883  0.00  0.00    +0.000 C 
ATOM     30  C   UNL     1       3.200  14.161  18.444  0.00  0.00    +0.000 C 
ATOM     31  C   UNL     1       2.540  12.817  18.196  0.00  0.00    +0.000 C 
ENDBRANCH  21  28
ENDBRANCH  19  21
ENDBRANCH   1  19
TORSDOF 8
ENDMDL
MODEL 2
REMARK VINA RESULT:      -5.9      6.462     10.298
REMARK  Name = 
REMARK  14 active torsions:
REMARK  status: ('A' for Active; 'I' for Inactive)
REMARK    1  A    between atoms: C_1  and  C_2
REMARK    2  A    between atoms: C_2  and  C_3
REMARK    3  A    between atoms: C_2  and  C_4
REMARK    4  A    between atoms: C_6  and  C_7
REMARK    5  A    between atoms: C_7  and  C_8
REMARK    6  A    between atoms: C_7  and  C_9
REMARK    7  A    between atoms: C_10  and  S_11
REMARK    8  A    between atoms: S_11  and  N_14
REMARK    9  A    between atoms: N_14  and  C_15
REMARK   10  A    between atoms: C_15  and  C_16
REMARK   11  A    between atoms: C_15  and  C_22
REMARK   12  A    between atoms: C_26  and  C_27
REMARK   13  A    between atoms: C_27  and  C_28
REMARK   14  A    between atoms: C_27  and  C_29
REMARK                            x       y       z     vdW  Elec       q    Type
REMARK                         _______ _______ _______ _____ _____    ______ ____
ROOT
ATOM      1  S   UNL     1       4.982   4.402  19.259  0.00  0.00    +0.000 S 
ATOM      2  O   UNL     1       5.057   3.019  19.658  0.00  0.00    +0.000 OA
ATOM      3  O   UNL     1       5.606   5.420  20.078  0.00  0.00    +0.000 OA
ENDROOT
BRANCH   1   7
ATOM      4  C   UNL     1       6.324   4.653  14.814  0.00  0.00    +0.000 A 
ATOM      5  C   UNL     1       5.398   3.692  15.227  0.00  0.00    +0.000 A 
ATOM      6  C   UNL     1       4.910   3.603  16.552  0.00  0.00    +0.000 A 
ATOM      7  C   UNL     1       5.496   4.472  17.528  0.00  0.00    +0.000 A 
ATOM      8  C   UNL     1       6.475   5.455  17.132  0.00  0.00    +0.000 A 
ATOM      9  C   UNL     1       6.838   5.523  15.770  0.00  0.00    +0.000 A 
BRANCH   4  11
ATOM     10  C   UNL     1       8.076   5.321  13.179  0.00  0.00    +0.000 C 
ATOM     11  C   UNL     1       6.639   4.806  13.334  0.00  0.00    +0.000 C 
ATOM     12  C   UNL     1       6.435   3.534  12.508  0.00  0.00    +0.000 C 
ENDBRANCH   4  11
BRANCH   6  13
ATOM     13  C   UNL     1       3.727   2.651  16.813  0.00  0.00    +0.000 C 
ATOM     14  C   UNL     1       3.948   1.636  17.958  0.00  0.00    +0.000 C 
ATOM     15  C   UNL     1       2.398   3.364  17.090  0.00  0.00    +0.000 C 
ENDBRANCH   6  13
BRANCH   8  16
ATOM     16  C   UNL     1       7.197   6.458  18.047  0.00  0.00    +0.000 C 
ATOM     17  C   UNL     1       8.358   5.794  18.812  0.00  0.00    +0.000 C 
ATOM     18  C   UNL     1       7.771   7.666  17.280  0.00  0.00    +0.000 C 
ENDBRANCH   8  16
ENDBRANCH   1   7
BRANCH   1  19
ATOM     19  N   UNL     1       3.338   4.769  19.231  0.00  0.00    +0.000 NA
ATOM     20  H   UNL     1       2.841   3.899  19.014  0.00  0.00    +0.000 HD
BRANCH  19  21
ATOM     21  C   UNL     1       2.687   5.508  20.354  0.00  0.00    +0.000 C 
BRANCH  21  22
ATOM     22  C   UNL     1       2.107   6.892  20.061  0.00  0.00    +0.000 A 
ATOM     23  C   UNL     1       2.270   7.524  18.833  0.00  0.00    +0.000 A 
ATOM     24  C   UNL     1       1.728   8.788  18.617  0.00  0.00    +0.000 A 
ATOM     25  C   UNL     1       0.991   9.390  19.624  0.00  0.00    +0.000 A 
ATOM     26  C   UNL     1       0.835   8.694  20.808  0.00  0.00    +0.000 A 
ATOM     27  N   UNL     1       1.379   7.478  21.051  0.00  0.00    +0.000 NA
ENDBRANCH  21  22
BRANCH  21  28
ATOM     28  C   UNL     1       1.629   4.534  20.896  0.00  0.00    +0.000 C 
ATOM     29  C   UNL     1       2.073   3.471  21.910  0.00  0.00    +0.000 C 
ATOM     30  C   UNL     1       1.412   3.099  20.593  0.00  0.00    +0.000 C 
ATOM     31  C   UNL     1       0.477   4.124  19.975  0.00  0.00    +0.000 C 
ENDBRANCH  21  28
ENDBRANCH  19  21
ENDBRANCH   1  19
TORSDOF 8
ENDMDL
MODEL 3
REMARK VINA RESULT:      -5.9      2.337      3.738
REMARK  Name = 
REMARK  14 active torsions:
REMARK  status: ('A' for Active; 'I' for Inactive)
REMARK    1  A    between atoms: C_1  and  C_2
REMARK    2  A    between atoms: C_2  and  C_3
REMARK    3  A    between atoms: C_2  and  C_4
REMARK    4  A    between atoms: C_6  and  C_7
REMARK    5  A    between atoms: C_7  and  C_8
REMARK    6  A    between atoms: C_7  and  C_9
REMARK    7  A    between atoms: C_10  and  S_11
REMARK    8  A    between atoms: S_11  and  N_14
REMARK    9  A    between atoms: N_14  and  C_15
REMARK   10  A    between atoms: C_15  and  C_16
REMARK   11  A    between atoms: C_15  and  C_22
REMARK   12  A    between atoms: C_26  and  C_27
REMARK   13  A    between atoms: C_27  and  C_28
REMARK   14  A    between atoms: C_27  and  C_29
REMARK                            x       y       z     vdW  Elec       q    Type
REMARK                         _______ _______ _______ _____ _____    ______ ____
ROOT
ATOM      1  S   UNL     1      -1.204  12.972  19.204  0.00  0.00    +0.000 S 
ATOM      2  O   UNL     1      -0.495  12.213  20.204  0.00  0.00    +0.000 OA
ATOM      3  O   UNL     1      -0.695  13.028  17.850  0.00  0.00    +0.000 OA
ENDROOT
BRANCH   1   7
ATOM      4  C   UNL     1      -5.649  11.638  19.494  0.00  0.00    +0.000 A 
ATOM      5  C   UNL     1      -4.896  11.369  18.348  0.00  0.00    +0.000 A 
ATOM      6  C   UNL     1      -3.526  11.700  18.225  0.00  0.00    +0.000 A 
ATOM      7  C   UNL     1      -2.934  12.453  19.288  0.00  0.00    +0.000 A 
ATOM      8  C   UNL     1      -3.698  12.768  20.470  0.00  0.00    +0.000 A 
ATOM      9  C   UNL     1      -5.036  12.323  20.537  0.00  0.00    +0.000 A 
BRANCH   4  11
ATOM     10  C   UNL     1      -7.015   9.567  19.316  0.00  0.00    +0.000 C 
ATOM     11  C   UNL     1      -7.054  11.069  19.621  0.00  0.00    +0.000 C 
ATOM     12  C   UNL     1      -7.719  11.321  20.977  0.00  0.00    +0.000 C 
ENDBRANCH   4  11
BRANCH   6  13
ATOM     13  C   UNL     1      -2.766  11.141  17.007  0.00  0.00    +0.000 C 
ATOM     14  C   UNL     1      -1.986   9.832  17.269  0.00  0.00    +0.000 C 
ATOM     15  C   UNL     1      -3.646  10.904  15.774  0.00  0.00    +0.000 C 
ENDBRANCH   6  13
BRANCH   8  16
ATOM     16  C   UNL     1      -3.217  13.563  21.695  0.00  0.00    +0.000 C 
ATOM     17  C   UNL     1      -4.293  14.548  22.191  0.00  0.00    +0.000 C 
ATOM     18  C   UNL     1      -2.825  12.661  22.882  0.00  0.00    +0.000 C 
ENDBRANCH   8  16
ENDBRANCH   1   7
BRANCH   1  19
ATOM     19  N   UNL     1      -1.207  14.559  19.768  0.00  0.00    +0.000 NA
ATOM     20  H   UNL     1      -1.715  14.560  20.658  0.00  0.00    +0.000 HD
BRANCH  19  21
ATOM     21  C   UNL     1       0.054  15.356  19.855  0.00  0.00    +0.000 C 
BRANCH  21  22
ATOM     22  C   UNL     1       0.315  16.406  18.776  0.00  0.00    +0.000 A 
ATOM     23  C   UNL     1      -0.710  17.135  18.181  0.00  0.00    +0.000 A 
ATOM     24  C   UNL     1      -0.422  18.077  17.197  0.00  0.00    +0.000 A 
ATOM     25  C   UNL     1       0.899  18.308  16.847  0.00  0.00    +0.000 A 
ATOM     26  C   UNL     1       1.873  17.578  17.502  0.00  0.00    +0.000 A 
ATOM     27  N   UNL     1       1.614  16.635  18.438  0.00  0.00    +0.000 NA
ENDBRANCH  21  22
BRANCH  21  28
ATOM     28  C   UNL     1       0.031  15.961  21.268  0.00  0.00    +0.000 C 
ATOM     29  C   UNL     1      -0.955  17.103  21.552  0.00  0.00    +0.000 C 
ATOM     30  C   UNL     1       0.542  17.264  21.754  0.00  0.00    +0.000 C 
ATOM     31  C   UNL     1       1.338  16.008  22.061  0.00  0.00    +0.000 C 
ENDBRANCH  21  28
ENDBRANCH  19  21
ENDBRANCH   1  19
TORSDOF 8
ENDMDL
MODEL 4
REMARK VINA RESULT:      -5.8      0.898      3.402
REMARK  Name = 
REMARK  14 active torsions:
REMARK  status: ('A' for Active; 'I' for Inactive)
REMARK    1  A    between atoms: C_1  and  C_2
REMARK    2  A    between atoms: C_2  and  C_3
REMARK    3  A    between atoms: C_2  and  C_4
REMARK    4  A    between atoms: C_6  and  C_7
REMARK    5  A    between atoms: C_7  and  C_8
REMARK    6  A    between atoms: C_7  and  C_9
REMARK    7  A    between atoms: C_10  and  S_11
REMARK    8  A    between atoms: S_11  and  N_14
REMARK    9  A    between atoms: N_14  and  C_15
REMARK   10  A    between atoms: C_15  and  C_16
REMARK   11  A    between atoms: C_15  and  C_22
REMARK   12  A    between atoms: C_26  and  C_27
REMARK   13  A    between atoms: C_27  and  C_28
REMARK   14  A    between atoms: C_27  and  C_29
REMARK                            x       y       z     vdW  Elec       q    Type
REMARK                         _______ _______ _______ _____ _____    ______ ____
ROOT
ATOM      1  S   UNL     1       0.247  11.909  21.659  0.00  0.00    +0.000 S 
ATOM      2  O   UNL     1      -0.582  11.782  22.833  0.00  0.00    +0.000 OA
ATOM      3  O   UNL     1       1.470  11.141  21.557  0.00  0.00    +0.000 OA
ENDROOT
BRANCH   1   7
ATOM      4  C   UNL     1      -2.493  11.368  17.941  0.00  0.00    +0.000 A 
ATOM      5  C   UNL     1      -2.973  11.989  19.097  0.00  0.00    +0.000 A 
ATOM      6  C   UNL     1      -2.171  12.232  20.237  0.00  0.00    +0.000 A 
ATOM      7  C   UNL     1      -0.841  11.700  20.231  0.00  0.00    +0.000 A 
ATOM      8  C   UNL     1      -0.332  11.030  19.060  0.00  0.00    +0.000 A 
ATOM      9  C   UNL     1      -1.181  10.908  17.939  0.00  0.00    +0.000 A 
BRANCH   4  11
ATOM     10  C   UNL     1      -3.050  10.050  15.906  0.00  0.00    +0.000 C 
ATOM     11  C   UNL     1      -3.361  11.329  16.693  0.00  0.00    +0.000 C 
ATOM     12  C   UNL     1      -4.864  11.438  16.963  0.00  0.00    +0.000 C 
ENDBRANCH   4  11
BRANCH   6  13
ATOM     13  C   UNL     1      -2.760  13.127  21.344  0.00  0.00    +0.000 C 
ATOM     14  C   UNL     1      -3.031  14.590  20.924  0.00  0.00    +0.000 C 
ATOM     15  C   UNL     1      -4.054  12.587  21.963  0.00  0.00    +0.000 C 
ENDBRANCH   6  13
BRANCH   8  16
ATOM     16  C   UNL     1       1.063  10.405  18.888  0.00  0.00    +0.000 C 
ATOM     17  C   UNL     1       1.005   9.106  18.061  0.00  0.00    +0.000 C 
ATOM     18  C   UNL     1       2.067  11.353  18.203  0.00  0.00    +0.000 C 
ENDBRANCH   8  16
ENDBRANCH   1   7
BRANCH   1  19
ATOM     19  N   UNL     1       0.707  13.529  21.611  0.00  0.00    +0.000 NA
ATOM     20  H   UNL     1       1.442  13.651  22.315  0.00  0.00    +0.000 HD
BRANCH  19  21
ATOM     21  C   UNL     1       1.061  14.198  20.324  0.00  0.00    +0.000 C 
BRANCH  21  22
ATOM     22  C   UNL     1       0.340  15.498  19.970  0.00  0.00    +0.000 A 
ATOM     23  C   UNL     1      -0.058  15.800  18.671  0.00  0.00    +0.000 A 
ATOM     24  C   UNL     1      -0.707  17.002  18.398  0.00  0.00    +0.000 A 
ATOM     25  C   UNL     1      -0.986  17.873  19.439  0.00  0.00    +0.000 A 
ATOM     26  C   UNL     1      -0.598  17.497  20.711  0.00  0.00    +0.000 A 
ATOM     27  N   UNL     1       0.062  16.349  20.995  0.00  0.00    +0.000 NA
ENDBRANCH  21  22
BRANCH  21  28
ATOM     28  C   UNL     1       2.586  14.374  20.387  0.00  0.00    +0.000 C 
ATOM     29  C   UNL     1       3.187  15.072  21.615  0.00  0.00    +0.000 C 
ATOM     30  C   UNL     1       3.413  15.590  20.204  0.00  0.00    +0.000 C 
ATOM     31  C   UNL     1       3.351  14.575  19.077  0.00  0.00    +0.000 C 
ENDBRANCH  21  28
ENDBRANCH  19  21
ENDBRANCH   1  19
TORSDOF 8
ENDMDL
MODEL 5
REMARK VINA RESULT:      -5.7      1.436      1.938
REMARK  Name = 
REMARK  14 active torsions:
REMARK  status: ('A' for Active; 'I' for Inactive)
REMARK    1  A    between atoms: C_1  and  C_2
REMARK    2  A    between atoms: C_2  and  C_3
REMARK    3  A    between atoms: C_2  and  C_4
REMARK    4  A    between atoms: C_6  and  C_7
REMARK    5  A    between atoms: C_7  and  C_8
REMARK    6  A    between atoms: C_7  and  C_9
REMARK    7  A    between atoms: C_10  and  S_11
REMARK    8  A    between atoms: S_11  and  N_14
REMARK    9  A    between atoms: N_14  and  C_15
REMARK   10  A    between atoms: C_15  and  C_16
REMARK   11  A    between atoms: C_15  and  C_22
REMARK   12  A    between atoms: C_26  and  C_27
REMARK   13  A    between atoms: C_27  and  C_28
REMARK   14  A    between atoms: C_27  and  C_29
REMARK                            x       y       z     vdW  Elec       q    Type
REMARK                         _______ _______ _______ _____ _____    ______ ____
ROOT
ATOM      1  S   UNL     1       0.130  12.326  21.596  0.00  0.00    +0.000 S 
ATOM      2  O   UNL     1      -0.410  11.742  22.799  0.00  0.00    +0.000 OA
ATOM      3  O   UNL     1       1.542  12.195  21.306  0.00  0.00    +0.000 OA
ENDROOT
BRANCH   1   7
ATOM      4  C   UNL     1      -2.645  10.935  18.134  0.00  0.00    +0.000 A 
ATOM      5  C   UNL     1      -1.320  10.497  18.207  0.00  0.00    +0.000 A 
ATOM      6  C   UNL     1      -0.447  10.840  19.266  0.00  0.00    +0.000 A 
ATOM      7  C   UNL     1      -0.926  11.780  20.234  0.00  0.00    +0.000 A 
ATOM      8  C   UNL     1      -2.280  12.269  20.164  0.00  0.00    +0.000 A 
ATOM      9  C   UNL     1      -3.104  11.804  19.117  0.00  0.00    +0.000 A 
BRANCH   4  11
ATOM     10  C   UNL     1      -4.653  11.390  16.738  0.00  0.00    +0.000 C 
ATOM     11  C   UNL     1      -3.571  10.356  17.075  0.00  0.00    +0.000 C 
ATOM     12  C   UNL     1      -2.862   9.890  15.801  0.00  0.00    +0.000 C 
ENDBRANCH   4  11
BRANCH   6  13
ATOM     13  C   UNL     1       0.905  10.105  19.341  0.00  0.00    +0.000 C 
ATOM     14  C   UNL     1       0.964   8.953  20.371  0.00  0.00    +0.000 C 
ATOM     15  C   UNL     1       1.384   9.537  18.000  0.00  0.00    +0.000 C 
ENDBRANCH   6  13
BRANCH   8  16
ATOM     16  C   UNL     1      -2.949  13.274  21.118  0.00  0.00    +0.000 C 
ATOM     17  C   UNL     1      -4.078  14.055  20.418  0.00  0.00    +0.000 C 
ATOM     18  C   UNL     1      -3.547  12.607  22.372  0.00  0.00    +0.000 C 
ENDBRANCH   8  16
ENDBRANCH   1   7
BRANCH   1  19
ATOM     19  N   UNL     1      -0.168  13.978  21.731  0.00  0.00    +0.000 NA
ATOM     20  H   UNL     1      -0.084  14.217  22.724  0.00  0.00    +0.000 HD
BRANCH  19  21
ATOM     21  C   UNL     1       0.541  14.969  20.867  0.00  0.00    +0.000 C 
BRANCH  21  22
ATOM     22  C   UNL     1      -0.303  15.993  20.108  0.00  0.00    +0.000 A 
ATOM     23  C   UNL     1       0.002  16.398  18.813  0.00  0.00    +0.000 A 
ATOM     24  C   UNL     1      -0.795  17.339  18.166  0.00  0.00    +0.000 A 
ATOM     25  C   UNL     1      -1.915  17.836  18.812  0.00  0.00    +0.000 A 
ATOM     26  C   UNL     1      -2.184  17.366  20.084  0.00  0.00    +0.000 A 
ATOM     27  N   UNL     1      -1.406  16.476  20.743  0.00  0.00    +0.000 NA
ENDBRANCH  21  22
BRANCH  21  28
ATOM     28  C   UNL     1       1.566  15.632  21.800  0.00  0.00    +0.000 C 
ATOM     29  C   UNL     1       1.064  16.684  22.799  0.00  0.00    +0.000 C 
ATOM     30  C   UNL     1       2.137  16.999  21.770  0.00  0.00    +0.000 C 
ATOM     31  C   UNL     1       2.992  15.842  21.286  0.00  0.00    +0.000 C 
ENDBRANCH  21  28
ENDBRANCH  19  21
ENDBRANCH   1  19
TORSDOF 8
ENDMDL
MODEL 6
REMARK VINA RESULT:      -5.7      1.831      4.099
REMARK  Name = 
REMARK  14 active torsions:
REMARK  status: ('A' for Active; 'I' for Inactive)
REMARK    1  A    between atoms: C_1  and  C_2
REMARK    2  A    between atoms: C_2  and  C_3
REMARK    3  A    between atoms: C_2  and  C_4
REMARK    4  A    between atoms: C_6  and  C_7
REMARK    5  A    between atoms: C_7  and  C_8
REMARK    6  A    between atoms: C_7  and  C_9
REMARK    7  A    between atoms: C_10  and  S_11
REMARK    8  A    between atoms: S_11  and  N_14
REMARK    9  A    between atoms: N_14  and  C_15
REMARK   10  A    between atoms: C_15  and  C_16
REMARK   11  A    between atoms: C_15  and  C_22
REMARK   12  A    between atoms: C_26  and  C_27
REMARK   13  A    between atoms: C_27  and  C_28
REMARK   14  A    between atoms: C_27  and  C_29
REMARK                            x       y       z     vdW  Elec       q    Type
REMARK                         _______ _______ _______ _____ _____    ______ ____
ROOT
ATOM      1  S   UNL     1      -1.082  12.399  22.673  0.00  0.00    +0.000 S 
ATOM      2  O   UNL     1      -2.124  13.011  23.460  0.00  0.00    +0.000 OA
ATOM      3  O   UNL     1      -0.335  11.284  23.214  0.00  0.00    +0.000 OA
ENDROOT
BRANCH   1   7
ATOM      4  C   UNL     1      -2.850  11.495  18.467  0.00  0.00    +0.000 A 
ATOM      5  C   UNL     1      -3.565  12.259  19.394  0.00  0.00    +0.000 A 
ATOM      6  C   UNL     1      -3.055  12.614  20.665  0.00  0.00    +0.000 A 
ATOM      7  C   UNL     1      -1.796  12.052  21.048  0.00  0.00    +0.000 A 
ATOM      8  C   UNL     1      -1.051  11.236  20.121  0.00  0.00    +0.000 A 
ATOM      9  C   UNL     1      -1.604  11.006  18.843  0.00  0.00    +0.000 A 
BRANCH   4  11
ATOM     10  C   UNL     1      -3.013   9.937  16.535  0.00  0.00    +0.000 C 
ATOM     11  C   UNL     1      -3.385  11.332  17.053  0.00  0.00    +0.000 C 
ATOM     12  C   UNL     1      -4.891  11.569  16.915  0.00  0.00    +0.000 C 
ENDBRANCH   4  11
BRANCH   6  13
ATOM     13  C   UNL     1      -3.850  13.647  21.486  0.00  0.00    +0.000 C 
ATOM     14  C   UNL     1      -3.893  15.069  20.880  0.00  0.00    +0.000 C 
ATOM     15  C   UNL     1      -5.298  13.236  21.778  0.00  0.00    +0.000 C 
ENDBRANCH   6  13
BRANCH   8  16
ATOM     16  C   UNL     1       0.308  10.561  20.372  0.00  0.00    +0.000 C 
ATOM     17  C   UNL     1       0.139   9.103  20.841  0.00  0.00    +0.000 C 
ATOM     18  C   UNL     1       1.214  10.550  19.125  0.00  0.00    +0.000 C 
ENDBRANCH   8  16
ENDBRANCH   1   7
BRANCH   1  19
ATOM     19  N   UNL     1       0.041  13.623  22.392  0.00  0.00    +0.000 NA
ATOM     20  H   UNL     1       0.795  13.213  21.830  0.00  0.00    +0.000 HD
BRANCH  19  21
ATOM     21  C   UNL     1      -0.377  14.955  21.862  0.00  0.00    +0.000 C 
BRANCH  21  22
ATOM     22  C   UNL     1      -0.263  16.164  22.790  0.00  0.00    +0.000 A 
ATOM     23  C   UNL     1      -1.190  17.201  22.782  0.00  0.00    +0.000 A 
ATOM     24  C   UNL     1      -1.038  18.285  23.643  0.00  0.00    +0.000 A 
ATOM     25  C   UNL     1       0.023  18.299  24.533  0.00  0.00    +0.000 A 
ATOM     26  C   UNL     1       0.888  17.221  24.517  0.00  0.00    +0.000 A 
ATOM     27  N   UNL     1       0.778  16.172  23.668  0.00  0.00    +0.000 NA
ENDBRANCH  21  22
BRANCH  21  28
ATOM     28  C   UNL     1       0.438  15.130  20.571  0.00  0.00    +0.000 C 
ATOM     29  C   UNL     1      -0.307  15.084  19.230  0.00  0.00    +0.000 C 
ATOM     30  C   UNL     1       0.831  14.130  19.550  0.00  0.00    +0.000 C 
ATOM     31  C   UNL     1       1.877  14.610  20.541  0.00  0.00    +0.000 C 
ENDBRANCH  21  28
ENDBRANCH  19  21
ENDBRANCH   1  19
TORSDOF 8
ENDMDL
MODEL 7
REMARK VINA RESULT:      -5.7      1.011      1.420
REMARK  Name = 
REMARK  14 active torsions:
REMARK  status: ('A' for Active; 'I' for Inactive)
REMARK    1  A    between atoms: C_1  and  C_2
REMARK    2  A    between atoms: C_2  and  C_3
REMARK    3  A    between atoms: C_2  and  C_4
REMARK    4  A    between atoms: C_6  and  C_7
REMARK    5  A    between atoms: C_7  and  C_8
REMARK    6  A    between atoms: C_7  and  C_9
REMARK    7  A    between atoms: C_10  and  S_11
REMARK    8  A    between atoms: S_11  and  N_14
REMARK    9  A    between atoms: N_14  and  C_15
REMARK   10  A    between atoms: C_15  and  C_16
REMARK   11  A    between atoms: C_15  and  C_22
REMARK   12  A    between atoms: C_26  and  C_27
REMARK   13  A    between atoms: C_27  and  C_28
REMARK   14  A    between atoms: C_27  and  C_29
REMARK                            x       y       z     vdW  Elec       q    Type
REMARK                         _______ _______ _______ _____ _____    ______ ____
ROOT
ATOM      1  S   UNL     1       0.316  12.516  21.336  0.00  0.00    +0.000 S 
ATOM      2  O   UNL     1      -0.427  12.326  22.557  0.00  0.00    +0.000 OA
ATOM      3  O   UNL     1       1.649  11.964  21.214  0.00  0.00    +0.000 OA
ENDROOT
BRANCH   1   7
ATOM      4  C   UNL     1      -2.554  11.270  17.897  0.00  0.00    +0.000 A 
ATOM      5  C   UNL     1      -1.193  10.961  17.838  0.00  0.00    +0.000 A 
ATOM      6  C   UNL     1      -0.283  11.264  18.878  0.00  0.00    +0.000 A 
ATOM      7  C   UNL     1      -0.777  12.031  19.981  0.00  0.00    +0.000 A 
ATOM      8  C   UNL     1      -2.173  12.387  20.052  0.00  0.00    +0.000 A 
ATOM      9  C   UNL     1      -3.022  11.968  19.005  0.00  0.00    +0.000 A 
BRANCH   4  11
ATOM     10  C   UNL     1      -4.823  11.492  16.902  0.00  0.00    +0.000 C 
ATOM     11  C   UNL     1      -3.495  10.729  16.830  0.00  0.00    +0.000 C 
ATOM     12  C   UNL     1      -2.930  10.771  15.408  0.00  0.00    +0.000 C 
ENDBRANCH   4  11
BRANCH   6  13
ATOM     13  C   UNL     1       1.133  10.663  18.782  0.00  0.00    +0.000 C 
ATOM     14  C   UNL     1       1.194   9.223  18.224  0.00  0.00    +0.000 C 
ATOM     15  C   UNL     1       2.117  11.507  17.965  0.00  0.00    +0.000 C 
ENDBRANCH   6  13
BRANCH   8  16
ATOM     16  C   UNL     1      -2.863  13.201  21.159  0.00  0.00    +0.000 C 
ATOM     17  C   UNL     1      -3.014  14.682  20.763  0.00  0.00    +0.000 C 
ATOM     18  C   UNL     1      -4.263  12.666  21.516  0.00  0.00    +0.000 C 
ENDBRANCH   8  16
ENDBRANCH   1   7
BRANCH   1  19
ATOM     19  N   UNL     1       0.485  14.184  21.172  0.00  0.00    +0.000 NA
ATOM     20  H   UNL     1       1.191  14.482  21.852  0.00  0.00    +0.000 HD
BRANCH  19  21
ATOM     21  C   UNL     1       0.709  14.815  19.836  0.00  0.00    +0.000 C 
BRANCH  21  22
ATOM     22  C   UNL     1       0.050  16.167  19.562  0.00  0.00    +0.000 A 
ATOM     23  C   UNL     1      -0.356  16.554  18.289  0.00  0.00    +0.000 A 
ATOM     24  C   UNL     1      -0.945  17.800  18.089  0.00  0.00    +0.000 A 
ATOM     25  C   UNL     1      -1.158  18.631  19.178  0.00  0.00    +0.000 A 
ATOM     26  C   UNL     1      -0.766  18.172  20.421  0.00  0.00    +0.000 A 
ATOM     27  N   UNL     1      -0.163  16.978  20.634  0.00  0.00    +0.000 NA
ENDBRANCH  21  22
BRANCH  21  28
ATOM     28  C   UNL     1       2.237  14.867  19.685  0.00  0.00    +0.000 C 
ATOM     29  C   UNL     1       3.047  15.617  20.751  0.00  0.00    +0.000 C 
ATOM     30  C   UNL     1       3.116  15.989  19.279  0.00  0.00    +0.000 C 
ATOM     31  C   UNL     1       2.829  14.888  18.274  0.00  0.00    +0.000 C 
ENDBRANCH  21  28
ENDBRANCH  19  21
ENDBRANCH   1  19
TORSDOF 8
ENDMDL
MODEL 8
REMARK VINA RESULT:      -5.6      1.501      4.270
REMARK  Name = 
REMARK  14 active torsions:
REMARK  status: ('A' for Active; 'I' for Inactive)
REMARK    1  A    between atoms: C_1  and  C_2
REMARK    2  A    between atoms: C_2  and  C_3
REMARK    3  A    between atoms: C_2  and  C_4
REMARK    4  A    between atoms: C_6  and  C_7
REMARK    5  A    between atoms: C_7  and  C_8
REMARK    6  A    between atoms: C_7  and  C_9
REMARK    7  A    between atoms: C_10  and  S_11
REMARK    8  A    between atoms: S_11  and  N_14
REMARK    9  A    between atoms: N_14  and  C_15
REMARK   10  A    between atoms: C_15  and  C_16
REMARK   11  A    between atoms: C_15  and  C_22
REMARK   12  A    between atoms: C_26  and  C_27
REMARK   13  A    between atoms: C_27  and  C_28
REMARK   14  A    between atoms: C_27  and  C_29
REMARK                            x       y       z     vdW  Elec       q    Type
REMARK                         _______ _______ _______ _____ _____    ______ ____
ROOT
ATOM      1  S   UNL     1      -0.330  12.637  22.008  0.00  0.00    +0.000 S 
ATOM      2  O   UNL     1      -0.718  13.893  22.600  0.00  0.00    +0.000 OA
ATOM      3  O   UNL     1      -0.050  11.499  22.858  0.00  0.00    +0.000 OA
ENDROOT
BRANCH   1   7
ATOM      4  C   UNL     1      -3.398  11.682  18.646  0.00  0.00    +0.000 A 
ATOM      5  C   UNL     1      -3.702  12.608  19.648  0.00  0.00    +0.000 A 
ATOM      6  C   UNL     1      -2.789  12.980  20.662  0.00  0.00    +0.000 A 
ATOM      7  C   UNL     1      -1.544  12.274  20.718  0.00  0.00    +0.000 A 
ATOM      8  C   UNL     1      -1.219  11.294  19.712  0.00  0.00    +0.000 A 
ATOM      9  C   UNL     1      -2.161  11.049  18.690  0.00  0.00    +0.000 A 
BRANCH   4  11
ATOM     10  C   UNL     1      -3.769  10.463  16.510  0.00  0.00    +0.000 C 
ATOM     11  C   UNL     1      -4.359  11.492  17.482  0.00  0.00    +0.000 C 
ATOM     12  C   UNL     1      -5.778  11.089  17.891  0.00  0.00    +0.000 C 
ENDBRANCH   4  11
BRANCH   6  13
ATOM     13  C   UNL     1      -3.169  14.175  21.558  0.00  0.00    +0.000 C 
ATOM     14  C   UNL     1      -3.287  15.530  20.823  0.00  0.00    +0.000 C 
ATOM     15  C   UNL     1      -4.465  13.975  22.351  0.00  0.00    +0.000 C 
ENDBRANCH   6  13
BRANCH   8  16
ATOM     16  C   UNL     1       0.065  10.452  19.625  0.00  0.00    +0.000 C 
ATOM     17  C   UNL     1      -0.011   9.206  20.529  0.00  0.00    +0.000 C 
ATOM     18  C   UNL     1       0.375   9.973  18.193  0.00  0.00    +0.000 C 
ENDBRANCH   8  16
ENDBRANCH   1   7
BRANCH   1  19
ATOM     19  N   UNL     1       1.096  12.959  21.172  0.00  0.00    +0.000 NA
ATOM     20  H   UNL     1       1.022  12.493  20.262  0.00  0.00    +0.000 HD
BRANCH  19  21
ATOM     21  C   UNL     1       1.618  14.352  21.034  0.00  0.00    +0.000 C 
BRANCH  21  22
ATOM     22  C   UNL     1       3.086  14.605  21.375  0.00  0.00    +0.000 A 
ATOM     23  C   UNL     1       4.060  14.779  20.396  0.00  0.00    +0.000 A 
ATOM     24  C   UNL     1       5.386  15.000  20.758  0.00  0.00    +0.000 A 
ATOM     25  C   UNL     1       5.717  15.085  22.101  0.00  0.00    +0.000 A 
ATOM     26  C   UNL     1       4.697  14.940  23.023  0.00  0.00    +0.000 A 
ATOM     27  N   UNL     1       3.407  14.693  22.695  0.00  0.00    +0.000 NA
ENDBRANCH  21  22
BRANCH  21  28
ATOM     28  C   UNL     1       1.276  14.751  19.589  0.00  0.00    +0.000 C 
ATOM     29  C   UNL     1       0.255  15.875  19.368  0.00  0.00    +0.000 C 
ATOM     30  C   UNL     1       0.057  14.484  18.790  0.00  0.00    +0.000 C 
ATOM     31  C   UNL     1       1.306  13.668  18.508  0.00  0.00    +0.000 C 
ENDBRANCH  21  28
ENDBRANCH  19  21
ENDBRANCH   1  19
TORSDOF 8
ENDMDL
MODEL 9
REMARK VINA RESULT:      -5.6      1.112      3.407
REMARK  Name = 
REMARK  14 active torsions:
REMARK  status: ('A' for Active; 'I' for Inactive)
REMARK    1  A    between atoms: C_1  and  C_2
REMARK    2  A    between atoms: C_2  and  C_3
REMARK    3  A    between atoms: C_2  and  C_4
REMARK    4  A    between atoms: C_6  and  C_7
REMARK    5  A    between atoms: C_7  and  C_8
REMARK    6  A    between atoms: C_7  and  C_9
REMARK    7  A    between atoms: C_10  and  S_11
REMARK    8  A    between atoms: S_11  and  N_14
REMARK    9  A    between atoms: N_14  and  C_15
REMARK   10  A    between atoms: C_15  and  C_16
REMARK   11  A    between atoms: C_15  and  C_22
REMARK   12  A    between atoms: C_26  and  C_27
REMARK   13  A    between atoms: C_27  and  C_28
REMARK   14  A    between atoms: C_27  and  C_29
REMARK                            x       y       z     vdW  Elec       q    Type
REMARK                         _______ _______ _______ _____ _____    ______ ____
ROOT
ATOM      1  S   UNL     1       0.103  12.558  21.570  0.00  0.00    +0.000 S 
ATOM      2  O   UNL     1      -0.561  12.244  22.810  0.00  0.00    +0.000 OA
ATOM      3  O   UNL     1       1.482  12.163  21.373  0.00  0.00    +0.000 OA
ENDROOT
BRANCH   1   7
ATOM      4  C   UNL     1      -2.649  11.126  18.105  0.00  0.00    +0.000 A 
ATOM      5  C   UNL     1      -3.176  11.828  19.193  0.00  0.00    +0.000 A 
ATOM      6  C   UNL     1      -2.382  12.337  20.247  0.00  0.00    +0.000 A 
ATOM      7  C   UNL     1      -0.989  12.002  20.241  0.00  0.00    +0.000 A 
ATOM      8  C   UNL     1      -0.426  11.255  19.143  0.00  0.00    +0.000 A 
ATOM      9  C   UNL     1      -1.284  10.861  18.094  0.00  0.00    +0.000 A 
BRANCH   4  11
ATOM     10  C   UNL     1      -4.724  11.772  16.894  0.00  0.00    +0.000 C 
ATOM     11  C   UNL     1      -3.543  10.793  16.921  0.00  0.00    +0.000 C 
ATOM     12  C   UNL     1      -2.826  10.785  15.568  0.00  0.00    +0.000 C 
ENDBRANCH   4  11
BRANCH   6  13
ATOM     13  C   UNL     1      -3.059  13.284  21.255  0.00  0.00    +0.000 C 
ATOM     14  C   UNL     1      -4.038  14.306  20.634  0.00  0.00    +0.000 C 
ATOM     15  C   UNL     1      -3.810  12.565  22.382  0.00  0.00    +0.000 C 
ENDBRANCH   6  13
BRANCH   8  16
ATOM     16  C   UNL     1       1.039  10.816  18.982  0.00  0.00    +0.000 C 
ATOM     17  C   UNL     1       1.150   9.477  18.229  0.00  0.00    +0.000 C 
ATOM     18  C   UNL     1       1.898  11.850  18.228  0.00  0.00    +0.000 C 
ENDBRANCH   8  16
ENDBRANCH   1   7
BRANCH   1  19
ATOM     19  N   UNL     1       0.080  14.239  21.465  0.00  0.00    +0.000 NA
ATOM     20  H   UNL     1       0.539  14.598  22.309  0.00  0.00    +0.000 HD
BRANCH  19  21
ATOM     21  C   UNL     1       0.553  14.948  20.239  0.00  0.00    +0.000 C 
BRANCH  21  22
ATOM     22  C   UNL     1      -0.320  16.070  19.676  0.00  0.00    +0.000 A 
ATOM     23  C   UNL     1      -1.318  16.685  20.426  0.00  0.00    +0.000 A 
ATOM     24  C   UNL     1      -2.092  17.698  19.866  0.00  0.00    +0.000 A 
ATOM     25  C   UNL     1      -1.829  18.114  18.571  0.00  0.00    +0.000 A 
ATOM     26  C   UNL     1      -0.800  17.488  17.892  0.00  0.00    +0.000 A 
ATOM     27  N   UNL     1      -0.056  16.480  18.406  0.00  0.00    +0.000 NA
ENDBRANCH  21  22
BRANCH  21  28
ATOM     28  C   UNL     1       1.968  15.431  20.594  0.00  0.00    +0.000 C 
ATOM     29  C   UNL     1       2.115  16.765  21.339  0.00  0.00    +0.000 C 
ATOM     30  C   UNL     1       2.783  16.515  19.997  0.00  0.00    +0.000 C 
ATOM     31  C   UNL     1       3.118  15.076  19.648  0.00  0.00    +0.000 C 
ENDBRANCH  21  28
ENDBRANCH  19  21
ENDBRANCH   1  19
TORSDOF 8
ENDMDL
