MODEL 1
REMARK VINA RESULT:      -8.6      0.000      0.000
REMARK  Name = 
REMARK  10 active torsions:
REMARK  status: ('A' for Active; 'I' for Inactive)
REMARK    1  A    between atoms: C_1  and  C_2
REMARK    2  A    between atoms: C_2  and  C_3
REMARK    3  A    between atoms: C_3  and  C_4
REMARK    4  A    between atoms: C_4  and  N_5
REMARK    5  A    between atoms: N_5  and  C_6
REMARK    6  A    between atoms: N_5  and  S_15
REMARK    7  A    between atoms: C_9  and  C_10
REMARK    8  A    between atoms: C_10  and  O_12
REMARK    9  A    between atoms: S_15  and  C_18
REMARK   10  A    between atoms: C_21  and  C_22
REMARK                            x       y       z     vdW  Elec       q    Type
REMARK                         _______ _______ _______ _____ _____    ______ ____
ROOT
ATOM      1  N   UNL     1       5.503   5.074  16.661  0.00  0.00    +0.000 N 
ENDROOT
BRANCH   1   2
ATOM      2  C   UNL     1       4.302   4.610  17.309  0.00  0.00    +0.000 A 
ATOM      3  C   UNL     1       3.990   3.250  17.219  0.00  0.00    +0.000 A 
ATOM      4  C   UNL     1       2.823   2.726  17.787  0.00  0.00    +0.000 A 
ATOM      5  C   UNL     1       1.968   3.541  18.523  0.00  0.00    +0.000 A 
ATOM      6  C   UNL     1       2.292   4.900  18.677  0.00  0.00    +0.000 A 
ATOM      7  C   UNL     1       3.431   5.439  18.033  0.00  0.00    +0.000 A 
BRANCH   5   8
ATOM      8  C   UNL     1       0.753   2.948  19.178  0.00  0.00    +0.000 C 
ATOM      9  O   UNL     1       0.122   2.034  18.707  0.00  0.00    +0.000 OA
BRANCH   8  10
ATOM     10  O   UNL     1       0.427   3.546  20.351  0.00  0.00    +0.000 OA
ATOM     11  H   UNL     1       0.590   3.038  21.167  0.00  0.00    +0.000 HD
ENDBRANCH   8  10
ENDBRANCH   5   8
ENDBRANCH   1   2
BRANCH   1  12
ATOM     12  S   UNL     1       7.005   4.892  17.483  0.00  0.00    +0.000 S 
ATOM     13  O   UNL     1       6.744   4.232  18.752  0.00  0.00    +0.000 OA
ATOM     14  O   UNL     1       7.975   4.348  16.564  0.00  0.00    +0.000 OA
BRANCH  12  15
ATOM     15  C   UNL     1       7.505   6.560  17.874  0.00  0.00    +0.000 A 
ATOM     16  C   UNL     1       7.052   7.611  17.081  0.00  0.00    +0.000 A 
ATOM     17  C   UNL     1       7.529   8.894  17.308  0.00  0.00    +0.000 A 
ATOM     18  C   UNL     1       8.429   9.179  18.360  0.00  0.00    +0.000 A 
ATOM     19  C   UNL     1       8.799   8.117  19.203  0.00  0.00    +0.000 A 
ATOM     20  C   UNL     1       8.325   6.813  18.978  0.00  0.00    +0.000 A 
BRANCH  18  21
ATOM     21  C   UNL     1       8.955  10.549  18.523  0.00  0.00    +0.000 A 
ATOM     22  C   UNL     1       8.440  11.604  17.745  0.00  0.00    +0.000 A 
ATOM     23  C   UNL     1       8.974  12.886  17.805  0.00  0.00    +0.000 A 
ATOM     24  C   UNL     1      10.028  13.155  18.665  0.00  0.00    +0.000 A 
ATOM     25  C   UNL     1      10.544  12.141  19.471  0.00  0.00    +0.000 A 
ATOM     26  C   UNL     1      10.011  10.849  19.400  0.00  0.00    +0.000 A 
ENDBRANCH  18  21
ENDBRANCH  12  15
ENDBRANCH   1  12
BRANCH   1  27
ATOM     27  C   UNL     1       5.563   5.300  15.190  0.00  0.00    +0.000 C 
BRANCH  27  28
ATOM     28  C   UNL     1       5.750   3.987  14.422  0.00  0.00    +0.000 C 
BRANCH  28  30
ATOM     29  C   UNL     1       6.432   3.230  12.139  0.00  0.00    +0.000 C 
ATOM     30  C   UNL     1       5.456   4.103  12.922  0.00  0.00    +0.000 C 
ENDBRANCH  28  30
ENDBRANCH  27  28
ENDBRANCH   1  27
TORSDOF 9
ENDMDL
MODEL 2
REMARK VINA RESULT:      -8.4      4.098      6.966
REMARK  Name = 
REMARK  10 active torsions:
REMARK  status: ('A' for Active; 'I' for Inactive)
REMARK    1  A    between atoms: C_1  and  C_2
REMARK    2  A    between atoms: C_2  and  C_3
REMARK    3  A    between atoms: C_3  and  C_4
REMARK    4  A    between atoms: C_4  and  N_5
REMARK    5  A    between atoms: N_5  and  C_6
REMARK    6  A    between atoms: N_5  and  S_15
REMARK    7  A    between atoms: C_9  and  C_10
REMARK    8  A    between atoms: C_10  and  O_12
REMARK    9  A    between atoms: S_15  and  C_18
REMARK   10  A    between atoms: C_21  and  C_22
REMARK                            x       y       z     vdW  Elec       q    Type
REMARK                         _______ _______ _______ _____ _____    ______ ____
ROOT
ATOM      1  N   UNL     1       4.998   5.388  18.153  0.00  0.00    +0.000 N 
ENDROOT
BRANCH   1   2
ATOM      2  C   UNL     1       5.351   5.065  16.794  0.00  0.00    +0.000 A 
ATOM      3  C   UNL     1       5.759   3.756  16.515  0.00  0.00    +0.000 A 
ATOM      4  C   UNL     1       6.156   3.371  15.228  0.00  0.00    +0.000 A 
ATOM      5  C   UNL     1       6.088   4.270  14.169  0.00  0.00    +0.000 A 
ATOM      6  C   UNL     1       5.624   5.575  14.415  0.00  0.00    +0.000 A 
ATOM      7  C   UNL     1       5.302   5.980  15.732  0.00  0.00    +0.000 A 
BRANCH   5   8
ATOM      8  C   UNL     1       6.457   3.820  12.784  0.00  0.00    +0.000 C 
ATOM      9  O   UNL     1       7.188   4.444  12.054  0.00  0.00    +0.000 OA
BRANCH   8  10
ATOM     10  O   UNL     1       5.883   2.644  12.428  0.00  0.00    +0.000 OA
ATOM     11  H   UNL     1       5.945   2.389  11.489  0.00  0.00    +0.000 HD
ENDBRANCH   8  10
ENDBRANCH   5   8
ENDBRANCH   1   2
BRANCH   1  12
ATOM     12  S   UNL     1       3.389   5.081  18.682  0.00  0.00    +0.000 S 
ATOM     13  O   UNL     1       2.676   4.431  17.594  0.00  0.00    +0.000 OA
ATOM     14  O   UNL     1       3.436   4.473  19.989  0.00  0.00    +0.000 OA
BRANCH  12  15
ATOM     15  C   UNL     1       2.663   6.702  18.864  0.00  0.00    +0.000 A 
ATOM     16  C   UNL     1       2.128   7.075  20.094  0.00  0.00    +0.000 A 
ATOM     17  C   UNL     1       1.460   8.285  20.211  0.00  0.00    +0.000 A 
ATOM     18  C   UNL     1       1.346   9.181  19.124  0.00  0.00    +0.000 A 
ATOM     19  C   UNL     1       1.974   8.823  17.919  0.00  0.00    +0.000 A 
ATOM     20  C   UNL     1       2.650   7.596  17.790  0.00  0.00    +0.000 A 
BRANCH  18  21
ATOM     21  C   UNL     1       0.573  10.429  19.281  0.00  0.00    +0.000 A 
ATOM     22  C   UNL     1       0.920  11.358  20.282  0.00  0.00    +0.000 A 
ATOM     23  C   UNL     1       0.158  12.497  20.519  0.00  0.00    +0.000 A 
ATOM     24  C   UNL     1      -0.964  12.750  19.744  0.00  0.00    +0.000 A 
ATOM     25  C   UNL     1      -1.320  11.868  18.726  0.00  0.00    +0.000 A 
ATOM     26  C   UNL     1      -0.557  10.716  18.496  0.00  0.00    +0.000 A 
ENDBRANCH  18  21
ENDBRANCH  12  15
ENDBRANCH   1  12
BRANCH   1  27
ATOM     27  C   UNL     1       6.033   5.564  19.211  0.00  0.00    +0.000 C 
BRANCH  27  28
ATOM     28  C   UNL     1       7.446   5.602  18.620  0.00  0.00    +0.000 C 
BRANCH  28  30
ATOM     29  C   UNL     1       7.730   7.840  17.543  0.00  0.00    +0.000 C 
ATOM     30  C   UNL     1       8.125   6.973  18.734  0.00  0.00    +0.000 C 
ENDBRANCH  28  30
ENDBRANCH  27  28
ENDBRANCH   1  27
TORSDOF 9
ENDMDL
MODEL 3
REMARK VINA RESULT:      -8.4      0.424      1.333
REMARK  Name = 
REMARK  10 active torsions:
REMARK  status: ('A' for Active; 'I' for Inactive)
REMARK    1  A    between atoms: C_1  and  C_2
REMARK    2  A    between atoms: C_2  and  C_3
REMARK    3  A    between atoms: C_3  and  C_4
REMARK    4  A    between atoms: C_4  and  N_5
REMARK    5  A    between atoms: N_5  and  C_6
REMARK    6  A    between atoms: N_5  and  S_15
REMARK    7  A    between atoms: C_9  and  C_10
REMARK    8  A    between atoms: C_10  and  O_12
REMARK    9  A    between atoms: S_15  and  C_18
REMARK   10  A    between atoms: C_21  and  C_22
REMARK                            x       y       z     vdW  Elec       q    Type
REMARK                         _______ _______ _______ _____ _____    ______ ____
ROOT
ATOM      1  N   UNL     1       5.544   5.164  16.850  0.00  0.00    +0.000 N 
ENDROOT
BRANCH   1   2
ATOM      2  C   UNL     1       4.366   4.522  17.378  0.00  0.00    +0.000 A 
ATOM      3  C   UNL     1       3.346   5.335  17.883  0.00  0.00    +0.000 A 
ATOM      4  C   UNL     1       2.186   4.789  18.448  0.00  0.00    +0.000 A 
ATOM      5  C   UNL     1       1.987   3.413  18.460  0.00  0.00    +0.000 A 
ATOM      6  C   UNL     1       2.973   2.578  17.904  0.00  0.00    +0.000 A 
ATOM      7  C   UNL     1       4.177   3.132  17.407  0.00  0.00    +0.000 A 
BRANCH   5   8
ATOM      8  C   UNL     1       0.709   2.849  19.014  0.00  0.00    +0.000 C 
ATOM      9  O   UNL     1       0.062   1.995  18.459  0.00  0.00    +0.000 OA
BRANCH   8  10
ATOM     10  O   UNL     1       0.346   3.400  20.199  0.00  0.00    +0.000 OA
ATOM     11  H   UNL     1       0.586   4.334  20.345  0.00  0.00    +0.000 HD
ENDBRANCH   8  10
ENDBRANCH   5   8
ENDBRANCH   1   2
BRANCH   1  12
ATOM     12  S   UNL     1       7.037   4.960  17.682  0.00  0.00    +0.000 S 
ATOM     13  O   UNL     1       6.742   4.448  19.012  0.00  0.00    +0.000 OA
ATOM     14  O   UNL     1       7.959   4.261  16.820  0.00  0.00    +0.000 OA
BRANCH  12  15
ATOM     15  C   UNL     1       7.654   6.619  17.905  0.00  0.00    +0.000 A 
ATOM     16  C   UNL     1       8.448   6.909  19.011  0.00  0.00    +0.000 A 
ATOM     17  C   UNL     1       8.833   8.220  19.253  0.00  0.00    +0.000 A 
ATOM     18  C   UNL     1       8.484   9.272  18.377  0.00  0.00    +0.000 A 
ATOM     19  C   UNL     1       7.760   8.940  17.219  0.00  0.00    +0.000 A 
ATOM     20  C   UNL     1       7.362   7.615  16.968  0.00  0.00    +0.000 A 
BRANCH  18  21
ATOM     21  C   UNL     1       8.866  10.659  18.710  0.00  0.00    +0.000 A 
ATOM     22  C   UNL     1       8.642  11.698  17.787  0.00  0.00    +0.000 A 
ATOM     23  C   UNL     1       9.073  12.998  18.028  0.00  0.00    +0.000 A 
ATOM     24  C   UNL     1       9.724  13.300  19.215  0.00  0.00    +0.000 A 
ATOM     25  C   UNL     1       9.938  12.302  20.164  0.00  0.00    +0.000 A 
ATOM     26  C   UNL     1       9.511  10.992  19.913  0.00  0.00    +0.000 A 
ENDBRANCH  18  21
ENDBRANCH  12  15
ENDBRANCH   1  12
BRANCH   1  27
ATOM     27  C   UNL     1       5.619   5.622  15.434  0.00  0.00    +0.000 C 
BRANCH  27  28
ATOM     28  C   UNL     1       5.181   4.524  14.459  0.00  0.00    +0.000 C 
BRANCH  28  30
ATOM     29  C   UNL     1       5.808   3.362  12.336  0.00  0.00    +0.000 C 
ATOM     30  C   UNL     1       6.338   3.920  13.653  0.00  0.00    +0.000 C 
ENDBRANCH  28  30
ENDBRANCH  27  28
ENDBRANCH   1  27
TORSDOF 9
ENDMDL
MODEL 4
REMARK VINA RESULT:      -8.3      4.000      7.241
REMARK  Name = 
REMARK  10 active torsions:
REMARK  status: ('A' for Active; 'I' for Inactive)
REMARK    1  A    between atoms: C_1  and  C_2
REMARK    2  A    between atoms: C_2  and  C_3
REMARK    3  A    between atoms: C_3  and  C_4
REMARK    4  A    between atoms: C_4  and  N_5
REMARK    5  A    between atoms: N_5  and  C_6
REMARK    6  A    between atoms: N_5  and  S_15
REMARK    7  A    between atoms: C_9  and  C_10
REMARK    8  A    between atoms: C_10  and  O_12
REMARK    9  A    between atoms: S_15  and  C_18
REMARK   10  A    between atoms: C_21  and  C_22
REMARK                            x       y       z     vdW  Elec       q    Type
REMARK                         _______ _______ _______ _____ _____    ______ ____
ROOT
ATOM      1  N   UNL     1       4.711   5.287  18.095  0.00  0.00    +0.000 N 
ENDROOT
BRANCH   1   2
ATOM      2  C   UNL     1       5.117   4.988  16.744  0.00  0.00    +0.000 A 
ATOM      3  C   UNL     1       5.362   3.651  16.413  0.00  0.00    +0.000 A 
ATOM      4  C   UNL     1       5.796   3.281  15.135  0.00  0.00    +0.000 A 
ATOM      5  C   UNL     1       5.930   4.234  14.131  0.00  0.00    +0.000 A 
ATOM      6  C   UNL     1       5.632   5.577  14.425  0.00  0.00    +0.000 A 
ATOM      7  C   UNL     1       5.271   5.955  15.740  0.00  0.00    +0.000 A 
BRANCH   5   8
ATOM      8  C   UNL     1       6.337   3.809  12.748  0.00  0.00    +0.000 C 
ATOM      9  O   UNL     1       5.825   2.892  12.156  0.00  0.00    +0.000 OA
BRANCH   8  10
ATOM     10  O   UNL     1       7.345   4.554  12.230  0.00  0.00    +0.000 OA
ATOM     11  H   UNL     1       7.422   4.580  11.258  0.00  0.00    +0.000 HD
ENDBRANCH   8  10
ENDBRANCH   5   8
ENDBRANCH   1   2
BRANCH   1  12
ATOM     12  S   UNL     1       3.153   4.774  18.620  0.00  0.00    +0.000 S 
ATOM     13  O   UNL     1       2.351   4.498  17.439  0.00  0.00    +0.000 OA
ATOM     14  O   UNL     1       3.313   3.771  19.644  0.00  0.00    +0.000 OA
BRANCH  12  15
ATOM     15  C   UNL     1       2.443   6.222  19.385  0.00  0.00    +0.000 A 
ATOM     16  C   UNL     1       1.894   6.120  20.660  0.00  0.00    +0.000 A 
ATOM     17  C   UNL     1       1.237   7.210  21.212  0.00  0.00    +0.000 A 
ATOM     18  C   UNL     1       1.150   8.448  20.536  0.00  0.00    +0.000 A 
ATOM     19  C   UNL     1       1.791   8.553  19.289  0.00  0.00    +0.000 A 
ATOM     20  C   UNL     1       2.455   7.452  18.720  0.00  0.00    +0.000 A 
BRANCH  18  21
ATOM     21  C   UNL     1       0.388   9.559  21.138  0.00  0.00    +0.000 A 
ATOM     22  C   UNL     1      -0.027   9.489  22.483  0.00  0.00    +0.000 A 
ATOM     23  C   UNL     1      -0.825  10.474  23.055  0.00  0.00    +0.000 A 
ATOM     24  C   UNL     1      -1.213  11.572  22.302  0.00  0.00    +0.000 A 
ATOM     25  C   UNL     1      -0.797  11.688  20.977  0.00  0.00    +0.000 A 
ATOM     26  C   UNL     1      -0.002  10.690  20.400  0.00  0.00    +0.000 A 
ENDBRANCH  18  21
ENDBRANCH  12  15
ENDBRANCH   1  12
BRANCH   1  27
ATOM     27  C   UNL     1       5.703   5.622  19.155  0.00  0.00    +0.000 C 
BRANCH  27  28
ATOM     28  C   UNL     1       7.142   5.466  18.654  0.00  0.00    +0.000 C 
BRANCH  28  30
ATOM     29  C   UNL     1       7.688   7.677  17.622  0.00  0.00    +0.000 C 
ATOM     30  C   UNL     1       7.983   6.742  18.791  0.00  0.00    +0.000 C 
ENDBRANCH  28  30
ENDBRANCH  27  28
ENDBRANCH   1  27
TORSDOF 9
ENDMDL
MODEL 5
REMARK VINA RESULT:      -8.3      6.975     10.254
REMARK  Name = 
REMARK  10 active torsions:
REMARK  status: ('A' for Active; 'I' for Inactive)
REMARK    1  A    between atoms: C_1  and  C_2
REMARK    2  A    between atoms: C_2  and  C_3
REMARK    3  A    between atoms: C_3  and  C_4
REMARK    4  A    between atoms: C_4  and  N_5
REMARK    5  A    between atoms: N_5  and  C_6
REMARK    6  A    between atoms: N_5  and  S_15
REMARK    7  A    between atoms: C_9  and  C_10
REMARK    8  A    between atoms: C_10  and  O_12
REMARK    9  A    between atoms: S_15  and  C_18
REMARK   10  A    between atoms: C_21  and  C_22
REMARK                            x       y       z     vdW  Elec       q    Type
REMARK                         _______ _______ _______ _____ _____    ______ ____
ROOT
ATOM      1  N   UNL     1      -0.111  12.152  19.297  0.00  0.00    +0.000 N 
ENDROOT
BRANCH   1   2
ATOM      2  C   UNL     1       0.747  13.257  18.951  0.00  0.00    +0.000 A 
ATOM      3  C   UNL     1       0.318  14.548  19.275  0.00  0.00    +0.000 A 
ATOM      4  C   UNL     1       1.074  15.677  18.939  0.00  0.00    +0.000 A 
ATOM      5  C   UNL     1       2.317  15.539  18.330  0.00  0.00    +0.000 A 
ATOM      6  C   UNL     1       2.796  14.248  18.048  0.00  0.00    +0.000 A 
ATOM      7  C   UNL     1       1.990  13.115  18.317  0.00  0.00    +0.000 A 
BRANCH   5   8
ATOM      8  C   UNL     1       3.142  16.760  18.034  0.00  0.00    +0.000 C 
ATOM      9  O   UNL     1       4.108  17.083  18.679  0.00  0.00    +0.000 OA
BRANCH   8  10
ATOM     10  O   UNL     1       2.691  17.471  16.970  0.00  0.00    +0.000 OA
ATOM     11  H   UNL     1       3.358  17.940  16.436  0.00  0.00    +0.000 HD
ENDBRANCH   8  10
ENDBRANCH   5   8
ENDBRANCH   1   2
BRANCH   1  12
ATOM     12  S   UNL     1       0.359  11.117  20.590  0.00  0.00    +0.000 S 
ATOM     13  O   UNL     1       1.448  11.761  21.306  0.00  0.00    +0.000 OA
ATOM     14  O   UNL     1      -0.824  10.686  21.295  0.00  0.00    +0.000 OA
BRANCH  12  15
ATOM     15  C   UNL     1       1.060   9.687  19.785  0.00  0.00    +0.000 A 
ATOM     16  C   UNL     1       1.388   8.568  20.546  0.00  0.00    +0.000 A 
ATOM     17  C   UNL     1       2.040   7.500  19.946  0.00  0.00    +0.000 A 
ATOM     18  C   UNL     1       2.341   7.491  18.565  0.00  0.00    +0.000 A 
ATOM     19  C   UNL     1       1.918   8.592  17.801  0.00  0.00    +0.000 A 
ATOM     20  C   UNL     1       1.260   9.681  18.401  0.00  0.00    +0.000 A 
BRANCH  18  21
ATOM     21  C   UNL     1       3.090   6.358  17.987  0.00  0.00    +0.000 A 
ATOM     22  C   UNL     1       4.295   6.583  17.293  0.00  0.00    +0.000 A 
ATOM     23  C   UNL     1       4.977   5.553  16.656  0.00  0.00    +0.000 A 
ATOM     24  C   UNL     1       4.482   4.258  16.715  0.00  0.00    +0.000 A 
ATOM     25  C   UNL     1       3.308   3.994  17.417  0.00  0.00    +0.000 A 
ATOM     26  C   UNL     1       2.618   5.035  18.048  0.00  0.00    +0.000 A 
ENDBRANCH  18  21
ENDBRANCH  12  15
ENDBRANCH   1  12
BRANCH   1  27
ATOM     27  C   UNL     1      -1.545  12.116  18.892  0.00  0.00    +0.000 C 
BRANCH  27  28
ATOM     28  C   UNL     1      -1.723  11.527  17.489  0.00  0.00    +0.000 C 
BRANCH  28  30
ATOM     29  C   UNL     1      -2.850   9.869  15.995  0.00  0.00    +0.000 C 
ATOM     30  C   UNL     1      -2.767  10.405  17.420  0.00  0.00    +0.000 C 
ENDBRANCH  28  30
ENDBRANCH  27  28
ENDBRANCH   1  27
TORSDOF 9
ENDMDL
MODEL 6
REMARK VINA RESULT:      -8.2      4.138      6.882
REMARK  Name = 
REMARK  10 active torsions:
REMARK  status: ('A' for Active; 'I' for Inactive)
REMARK    1  A    between atoms: C_1  and  C_2
REMARK    2  A    between atoms: C_2  and  C_3
REMARK    3  A    between atoms: C_3  and  C_4
REMARK    4  A    between atoms: C_4  and  N_5
REMARK    5  A    between atoms: N_5  and  C_6
REMARK    6  A    between atoms: N_5  and  S_15
REMARK    7  A    between atoms: C_9  and  C_10
REMARK    8  A    between atoms: C_10  and  O_12
REMARK    9  A    between atoms: S_15  and  C_18
REMARK   10  A    between atoms: C_21  and  C_22
REMARK                            x       y       z     vdW  Elec       q    Type
REMARK                         _______ _______ _______ _____ _____    ______ ____
ROOT
ATOM      1  N   UNL     1       4.965   5.378  18.172  0.00  0.00    +0.000 N 
ENDROOT
BRANCH   1   2
ATOM      2  C   UNL     1       5.272   4.942  16.833  0.00  0.00    +0.000 A 
ATOM      3  C   UNL     1       5.234   5.892  15.807  0.00  0.00    +0.000 A 
ATOM      4  C   UNL     1       5.482   5.542  14.474  0.00  0.00    +0.000 A 
ATOM      5  C   UNL     1       5.844   4.241  14.141  0.00  0.00    +0.000 A 
ATOM      6  C   UNL     1       5.946   3.282  15.164  0.00  0.00    +0.000 A 
ATOM      7  C   UNL     1       5.616   3.624  16.497  0.00  0.00    +0.000 A 
BRANCH   5   8
ATOM      8  C   UNL     1       6.167   3.899  12.714  0.00  0.00    +0.000 C 
ATOM      9  O   UNL     1       7.226   4.147  12.194  0.00  0.00    +0.000 OA
BRANCH   8  10
ATOM     10  O   UNL     1       5.146   3.288  12.062  0.00  0.00    +0.000 OA
ATOM     11  H   UNL     1       5.372   2.514  11.514  0.00  0.00    +0.000 HD
ENDBRANCH   8  10
ENDBRANCH   5   8
ENDBRANCH   1   2
BRANCH   1  12
ATOM     12  S   UNL     1       3.372   5.129  18.774  0.00  0.00    +0.000 S 
ATOM     13  O   UNL     1       2.614   4.418  17.757  0.00  0.00    +0.000 OA
ATOM     14  O   UNL     1       3.458   4.607  20.117  0.00  0.00    +0.000 OA
BRANCH  12  15
ATOM     15  C   UNL     1       2.671   6.767  18.873  0.00  0.00    +0.000 A 
ATOM     16  C   UNL     1       2.109   7.197  20.073  0.00  0.00    +0.000 A 
ATOM     17  C   UNL     1       1.460   8.423  20.124  0.00  0.00    +0.000 A 
ATOM     18  C   UNL     1       1.393   9.277  19.000  0.00  0.00    +0.000 A 
ATOM     19  C   UNL     1       2.047   8.861  17.828  0.00  0.00    +0.000 A 
ATOM     20  C   UNL     1       2.703   7.619  17.766  0.00  0.00    +0.000 A 
BRANCH  18  21
ATOM     21  C   UNL     1       0.638  10.543  19.087  0.00  0.00    +0.000 A 
ATOM     22  C   UNL     1      -0.555  10.710  18.358  0.00  0.00    +0.000 A 
ATOM     23  C   UNL     1      -1.241  11.920  18.343  0.00  0.00    +0.000 A 
ATOM     24  C   UNL     1      -0.762  12.994  19.079  0.00  0.00    +0.000 A 
ATOM     25  C   UNL     1       0.400  12.855  19.836  0.00  0.00    +0.000 A 
ATOM     26  C   UNL     1       1.094  11.639  19.840  0.00  0.00    +0.000 A 
ENDBRANCH  18  21
ENDBRANCH  12  15
ENDBRANCH   1  12
BRANCH   1  27
ATOM     27  C   UNL     1       6.034   5.633  19.178  0.00  0.00    +0.000 C 
BRANCH  27  28
ATOM     28  C   UNL     1       7.423   5.672  18.532  0.00  0.00    +0.000 C 
BRANCH  28  30
ATOM     29  C   UNL     1       7.695   7.956  17.553  0.00  0.00    +0.000 C 
ATOM     30  C   UNL     1       8.132   7.023  18.678  0.00  0.00    +0.000 C 
ENDBRANCH  28  30
ENDBRANCH  27  28
ENDBRANCH   1  27
TORSDOF 9
ENDMDL
MODEL 7
REMARK VINA RESULT:      -8.2      6.932     10.151
REMARK  Name = 
REMARK  10 active torsions:
REMARK  status: ('A' for Active; 'I' for Inactive)
REMARK    1  A    between atoms: C_1  and  C_2
REMARK    2  A    between atoms: C_2  and  C_3
REMARK    3  A    between atoms: C_3  and  C_4
REMARK    4  A    between atoms: C_4  and  N_5
REMARK    5  A    between atoms: N_5  and  C_6
REMARK    6  A    between atoms: N_5  and  S_15
REMARK    7  A    between atoms: C_9  and  C_10
REMARK    8  A    between atoms: C_10  and  O_12
REMARK    9  A    between atoms: S_15  and  C_18
REMARK   10  A    between atoms: C_21  and  C_22
REMARK                            x       y       z     vdW  Elec       q    Type
REMARK                         _______ _______ _______ _____ _____    ______ ____
ROOT
ATOM      1  N   UNL     1      -0.248  12.070  19.459  0.00  0.00    +0.000 N 
ENDROOT
BRANCH   1   2
ATOM      2  C   UNL     1       0.541  13.226  19.111  0.00  0.00    +0.000 A 
ATOM      3  C   UNL     1       1.741  13.018  18.424  0.00  0.00    +0.000 A 
ATOM      4  C   UNL     1       2.584  14.083  18.082  0.00  0.00    +0.000 A 
ATOM      5  C   UNL     1       2.213  15.394  18.360  0.00  0.00    +0.000 A 
ATOM      6  C   UNL     1       0.982  15.631  18.998  0.00  0.00    +0.000 A 
ATOM      7  C   UNL     1       0.173  14.546  19.412  0.00  0.00    +0.000 A 
BRANCH   5   8
ATOM      8  C   UNL     1       3.101  16.527  17.931  0.00  0.00    +0.000 C 
ATOM      9  O   UNL     1       2.688  17.540  17.422  0.00  0.00    +0.000 OA
BRANCH   8  10
ATOM     10  O   UNL     1       4.417  16.299  18.165  0.00  0.00    +0.000 OA
ATOM     11  H   UNL     1       4.739  15.389  18.029  0.00  0.00    +0.000 HD
ENDBRANCH   8  10
ENDBRANCH   5   8
ENDBRANCH   1   2
BRANCH   1  12
ATOM     12  S   UNL     1       0.319  11.031  20.709  0.00  0.00    +0.000 S 
ATOM     13  O   UNL     1       1.420  11.701  21.383  0.00  0.00    +0.000 OA
ATOM     14  O   UNL     1      -0.812  10.549  21.463  0.00  0.00    +0.000 OA
BRANCH  12  15
ATOM     15  C   UNL     1       1.028   9.640  19.844  0.00  0.00    +0.000 A 
ATOM     16  C   UNL     1       1.388   8.502  20.562  0.00  0.00    +0.000 A 
ATOM     17  C   UNL     1       2.045   7.465  19.916  0.00  0.00    +0.000 A 
ATOM     18  C   UNL     1       2.319   7.506  18.530  0.00  0.00    +0.000 A 
ATOM     19  C   UNL     1       1.864   8.624  17.810  0.00  0.00    +0.000 A 
ATOM     20  C   UNL     1       1.201   9.682  18.458  0.00  0.00    +0.000 A 
BRANCH  18  21
ATOM     21  C   UNL     1       3.075   6.405  17.901  0.00  0.00    +0.000 A 
ATOM     22  C   UNL     1       2.582   5.086  17.950  0.00  0.00    +0.000 A 
ATOM     23  C   UNL     1       3.311   4.012  17.451  0.00  0.00    +0.000 A 
ATOM     24  C   UNL     1       4.549   4.232  16.866  0.00  0.00    +0.000 A 
ATOM     25  C   UNL     1       5.055   5.527  16.774  0.00  0.00    +0.000 A 
ATOM     26  C   UNL     1       4.323   6.605  17.286  0.00  0.00    +0.000 A 
ENDBRANCH  18  21
ENDBRANCH  12  15
ENDBRANCH   1  12
BRANCH   1  27
ATOM     27  C   UNL     1      -1.692  11.971  19.104  0.00  0.00    +0.000 C 
BRANCH  27  28
ATOM     28  C   UNL     1      -1.889  11.582  17.635  0.00  0.00    +0.000 C 
BRANCH  28  30
ATOM     29  C   UNL     1      -2.674   9.888  15.972  0.00  0.00    +0.000 C 
ATOM     30  C   UNL     1      -2.318  10.123  17.436  0.00  0.00    +0.000 C 
ENDBRANCH  28  30
ENDBRANCH  27  28
ENDBRANCH   1  27
TORSDOF 9
ENDMDL
MODEL 8
REMARK VINA RESULT:      -8.2      4.429      7.193
REMARK  Name = 
REMARK  10 active torsions:
REMARK  status: ('A' for Active; 'I' for Inactive)
REMARK    1  A    between atoms: C_1  and  C_2
REMARK    2  A    between atoms: C_2  and  C_3
REMARK    3  A    between atoms: C_3  and  C_4
REMARK    4  A    between atoms: C_4  and  N_5
REMARK    5  A    between atoms: N_5  and  C_6
REMARK    6  A    between atoms: N_5  and  S_15
REMARK    7  A    between atoms: C_9  and  C_10
REMARK    8  A    between atoms: C_10  and  O_12
REMARK    9  A    between atoms: S_15  and  C_18
REMARK   10  A    between atoms: C_21  and  C_22
REMARK                            x       y       z     vdW  Elec       q    Type
REMARK                         _______ _______ _______ _____ _____    ______ ____
ROOT
ATOM      1  N   UNL     1       3.493   4.617  17.930  0.00  0.00    +0.000 N 
ENDROOT
BRANCH   1   2
ATOM      2  C   UNL     1       4.437   4.766  16.851  0.00  0.00    +0.000 A 
ATOM      3  C   UNL     1       5.065   3.615  16.365  0.00  0.00    +0.000 A 
ATOM      4  C   UNL     1       6.023   3.678  15.345  0.00  0.00    +0.000 A 
ATOM      5  C   UNL     1       6.327   4.891  14.736  0.00  0.00    +0.000 A 
ATOM      6  C   UNL     1       5.664   6.053  15.168  0.00  0.00    +0.000 A 
ATOM      7  C   UNL     1       4.757   5.994  16.253  0.00  0.00    +0.000 A 
BRANCH   5   8
ATOM      8  C   UNL     1       7.310   4.930  13.601  0.00  0.00    +0.000 C 
ATOM      9  O   UNL     1       8.285   5.640  13.588  0.00  0.00    +0.000 OA
BRANCH   8  10
ATOM     10  O   UNL     1       6.992   4.091  12.583  0.00  0.00    +0.000 OA
ATOM     11  H   UNL     1       6.328   3.402  12.768  0.00  0.00    +0.000 HD
ENDBRANCH   8  10
ENDBRANCH   5   8
ENDBRANCH   1   2
BRANCH   1  12
ATOM     12  S   UNL     1       3.769   5.484  19.392  0.00  0.00    +0.000 S 
ATOM     13  O   UNL     1       3.132   4.752  20.475  0.00  0.00    +0.000 OA
ATOM     14  O   UNL     1       5.167   5.831  19.471  0.00  0.00    +0.000 OA
BRANCH  12  15
ATOM     15  C   UNL     1       2.845   6.998  19.194  0.00  0.00    +0.000 A 
ATOM     16  C   UNL     1       2.059   7.459  20.246  0.00  0.00    +0.000 A 
ATOM     17  C   UNL     1       1.248   8.570  20.058  0.00  0.00    +0.000 A 
ATOM     18  C   UNL     1       1.232   9.283  18.838  0.00  0.00    +0.000 A 
ATOM     19  C   UNL     1       2.103   8.852  17.823  0.00  0.00    +0.000 A 
ATOM     20  C   UNL     1       2.925   7.725  18.003  0.00  0.00    +0.000 A 
BRANCH  18  21
ATOM     21  C   UNL     1       0.308  10.421  18.668  0.00  0.00    +0.000 A 
ATOM     22  C   UNL     1       0.700  11.719  19.050  0.00  0.00    +0.000 A 
ATOM     23  C   UNL     1      -0.176  12.796  18.991  0.00  0.00    +0.000 A 
ATOM     24  C   UNL     1      -1.469  12.610  18.524  0.00  0.00    +0.000 A 
ATOM     25  C   UNL     1      -1.883  11.345  18.110  0.00  0.00    +0.000 A 
ATOM     26  C   UNL     1      -1.001  10.260  18.181  0.00  0.00    +0.000 A 
ENDBRANCH  18  21
ENDBRANCH  12  15
ENDBRANCH   1  12
BRANCH   1  27
ATOM     27  C   UNL     1       2.112   4.109  17.699  0.00  0.00    +0.000 C 
BRANCH  27  28
ATOM     28  C   UNL     1       2.012   2.602  17.958  0.00  0.00    +0.000 C 
BRANCH  28  30
ATOM     29  C   UNL     1       0.633   3.179  19.962  0.00  0.00    +0.000 C 
ATOM     30  C   UNL     1       0.795   2.201  18.802  0.00  0.00    +0.000 C 
ENDBRANCH  28  30
ENDBRANCH  27  28
ENDBRANCH   1  27
TORSDOF 9
ENDMDL
MODEL 9
REMARK VINA RESULT:      -8.1      4.434      7.102
REMARK  Name = 
REMARK  10 active torsions:
REMARK  status: ('A' for Active; 'I' for Inactive)
REMARK    1  A    between atoms: C_1  and  C_2
REMARK    2  A    between atoms: C_2  and  C_3
REMARK    3  A    between atoms: C_3  and  C_4
REMARK    4  A    between atoms: C_4  and  N_5
REMARK    5  A    between atoms: N_5  and  C_6
REMARK    6  A    between atoms: N_5  and  S_15
REMARK    7  A    between atoms: C_9  and  C_10
REMARK    8  A    between atoms: C_10  and  O_12
REMARK    9  A    between atoms: S_15  and  C_18
REMARK   10  A    between atoms: C_21  and  C_22
REMARK                            x       y       z     vdW  Elec       q    Type
REMARK                         _______ _______ _______ _____ _____    ______ ____
ROOT
ATOM      1  N   UNL     1       3.601   4.506  17.879  0.00  0.00    +0.000 N 
ENDROOT
BRANCH   1   2
ATOM      2  C   UNL     1       4.526   4.700  16.790  0.00  0.00    +0.000 A 
ATOM      3  C   UNL     1       5.148   3.570  16.249  0.00  0.00    +0.000 A 
ATOM      4  C   UNL     1       6.088   3.675  15.216  0.00  0.00    +0.000 A 
ATOM      5  C   UNL     1       6.379   4.912  14.650  0.00  0.00    +0.000 A 
ATOM      6  C   UNL     1       5.721   6.055  15.138  0.00  0.00    +0.000 A 
ATOM      7  C   UNL     1       4.833   5.951  16.236  0.00  0.00    +0.000 A 
BRANCH   5   8
ATOM      8  C   UNL     1       7.343   4.998  13.501  0.00  0.00    +0.000 C 
ATOM      9  O   UNL     1       8.295   5.739  13.485  0.00  0.00    +0.000 OA
BRANCH   8  10
ATOM     10  O   UNL     1       7.035   4.165  12.475  0.00  0.00    +0.000 OA
ATOM     11  H   UNL     1       6.103   3.895  12.390  0.00  0.00    +0.000 HD
ENDBRANCH   8  10
ENDBRANCH   5   8
ENDBRANCH   1   2
BRANCH   1  12
ATOM     12  S   UNL     1       3.936   5.260  19.390  0.00  0.00    +0.000 S 
ATOM     13  O   UNL     1       3.540   4.342  20.446  0.00  0.00    +0.000 OA
ATOM     14  O   UNL     1       5.274   5.797  19.355  0.00  0.00    +0.000 OA
BRANCH  12  15
ATOM     15  C   UNL     1       2.801   6.635  19.463  0.00  0.00    +0.000 A 
ATOM     16  C   UNL     1       2.700   7.495  18.373  0.00  0.00    +0.000 A 
ATOM     17  C   UNL     1       1.908   8.630  18.468  0.00  0.00    +0.000 A 
ATOM     18  C   UNL     1       1.154   8.917  19.629  0.00  0.00    +0.000 A 
ATOM     19  C   UNL     1       1.201   7.986  20.681  0.00  0.00    +0.000 A 
ATOM     20  C   UNL     1       2.005   6.836  20.595  0.00  0.00    +0.000 A 
BRANCH  18  21
ATOM     21  C   UNL     1       0.375  10.169  19.704  0.00  0.00    +0.000 A 
ATOM     22  C   UNL     1      -0.295  10.658  18.566  0.00  0.00    +0.000 A 
ATOM     23  C   UNL     1      -0.960  11.879  18.576  0.00  0.00    +0.000 A 
ATOM     24  C   UNL     1      -0.993  12.638  19.736  0.00  0.00    +0.000 A 
ATOM     25  C   UNL     1      -0.366  12.171  20.890  0.00  0.00    +0.000 A 
ATOM     26  C   UNL     1       0.312  10.946  20.874  0.00  0.00    +0.000 A 
ENDBRANCH  18  21
ENDBRANCH  12  15
ENDBRANCH   1  12
BRANCH   1  27
ATOM     27  C   UNL     1       2.199   4.059  17.645  0.00  0.00    +0.000 C 
BRANCH  27  28
ATOM     28  C   UNL     1       2.011   2.577  17.990  0.00  0.00    +0.000 C 
BRANCH  28  30
ATOM     29  C   UNL     1       0.677   3.208  20.008  0.00  0.00    +0.000 C 
ATOM     30  C   UNL     1       0.737   2.288  18.793  0.00  0.00    +0.000 C 
ENDBRANCH  28  30
ENDBRANCH  27  28
ENDBRANCH   1  27
TORSDOF 9
ENDMDL
