MODEL 1
REMARK VINA RESULT:      -7.9      0.000      0.000
REMARK  Name = 
REMARK  8 active torsions:
REMARK  status: ('A' for Active; 'I' for Inactive)
REMARK    1  A    between atoms: C_1  and  C_2
REMARK    2  A    between atoms: C_2  and  C_3
REMARK    3  A    between atoms: C_2  and  C_4
REMARK    4  A    between atoms: C_2  and  N_5
REMARK    5  A    between atoms: C_6  and  C_8
REMARK    6  A    between atoms: N_12  and  C_13
REMARK    7  A    between atoms: C_13  and  C_14
REMARK    8  A    between atoms: C_14  and  C_15
REMARK                            x       y       z     vdW  Elec       q    Type
REMARK                         _______ _______ _______ _____ _____    ______ ____
ROOT
ATOM      1  C   UNL     1       3.882   2.504  18.633  0.00  0.00    +0.000 C 
ATOM      2  C   UNL     1       2.808   2.429  17.559  0.00  0.00    +0.000 C 
ATOM      3  C   UNL     1       1.759   3.371  18.085  0.00  0.00    +0.000 C 
ATOM      4  O   UNL     1       0.921   3.917  17.387  0.00  0.00    +0.000 OA
ATOM      5  N   UNL     1       1.939   3.503  19.455  0.00  0.00    +0.000 N 
ATOM      6  C   UNL     1       3.126   2.817  19.906  0.00  0.00    +0.000 C 
ENDROOT
BRANCH   1   8
ATOM      7  N   UNL     1       5.339   3.810  17.084  0.00  0.00    +0.000 N 
ATOM      8  C   UNL     1       4.986   3.518  18.385  0.00  0.00    +0.000 C 
ATOM      9  O   UNL     1       5.484   4.095  19.356  0.00  0.00    +0.000 OA
ATOM     10  H   UNL     1       4.826   3.385  16.322  0.00  0.00    +0.000 HD
BRANCH   7  12
ATOM     11  C   UNL     1       5.915   6.223  16.960  0.00  0.00    +0.000 C 
ATOM     12  C   UNL     1       6.393   4.780  16.719  0.00  0.00    +0.000 C 
ATOM     13  C   UNL     1       6.816   4.602  15.250  0.00  0.00    +0.000 C 
ATOM     14  C   UNL     1       7.633   4.545  17.604  0.00  0.00    +0.000 C 
ENDBRANCH   7  12
ENDBRANCH   1   8
BRANCH   5  15
ATOM     15  C   UNL     1       1.205   4.401  20.346  0.00  0.00    +0.000 C 
BRANCH  15  16
ATOM     16  C   UNL     1       2.043   5.555  20.901  0.00  0.00    +0.000 C 
BRANCH  16  17
ATOM     17  C   UNL     1       2.093   6.788  20.029  0.00  0.00    +0.000 A 
ATOM     18  C   UNL     1       2.717   6.763  18.771  0.00  0.00    +0.000 A 
ATOM     19  C   UNL     1       2.658   7.877  17.932  0.00  0.00    +0.000 A 
ATOM     20  C   UNL     1       1.972   9.012  18.346  0.00  0.00    +0.000 A 
ATOM     21  F   UNL     1       1.898  10.072  17.530  0.00  0.00    +0.000 F 
ATOM     22  C   UNL     1       1.350   9.059  19.585  0.00  0.00    +0.000 A 
ATOM     23  C   UNL     1       1.409   7.948  20.427  0.00  0.00    +0.000 A 
ENDBRANCH  16  17
ENDBRANCH  15  16
ENDBRANCH   5  15
TORSDOF 5
ENDMDL
MODEL 2
REMARK VINA RESULT:      -7.8      0.264      1.416
REMARK  Name = 
REMARK  8 active torsions:
REMARK  status: ('A' for Active; 'I' for Inactive)
REMARK    1  A    between atoms: C_1  and  C_2
REMARK    2  A    between atoms: C_2  and  C_3
REMARK    3  A    between atoms: C_2  and  C_4
REMARK    4  A    between atoms: C_2  and  N_5
REMARK    5  A    between atoms: C_6  and  C_8
REMARK    6  A    between atoms: N_12  and  C_13
REMARK    7  A    between atoms: C_13  and  C_14
REMARK    8  A    between atoms: C_14  and  C_15
REMARK                            x       y       z     vdW  Elec       q    Type
REMARK                         _______ _______ _______ _____ _____    ______ ____
ROOT
ATOM      1  C   UNL     1       3.921   2.531  18.849  0.00  0.00    +0.000 C 
ATOM      2  C   UNL     1       2.792   2.251  17.870  0.00  0.00    +0.000 C 
ATOM      3  C   UNL     1       1.707   3.175  18.355  0.00  0.00    +0.000 C 
ATOM      4  O   UNL     1       0.789   3.572  17.660  0.00  0.00    +0.000 OA
ATOM      5  N   UNL     1       1.961   3.484  19.684  0.00  0.00    +0.000 N 
ATOM      6  C   UNL     1       3.223   2.942  20.128  0.00  0.00    +0.000 C 
ENDROOT
BRANCH   1   8
ATOM      7  N   UNL     1       5.310   3.617  17.084  0.00  0.00    +0.000 N 
ATOM      8  C   UNL     1       4.926   3.582  18.408  0.00  0.00    +0.000 C 
ATOM      9  O   UNL     1       5.313   4.410  19.236  0.00  0.00    +0.000 OA
ATOM     10  H   UNL     1       4.882   2.980  16.424  0.00  0.00    +0.000 HD
BRANCH   7  12
ATOM     11  C   UNL     1       6.565   4.302  15.052  0.00  0.00    +0.000 C 
ATOM     12  C   UNL     1       6.275   4.593  16.536  0.00  0.00    +0.000 C 
ATOM     13  C   UNL     1       7.586   4.580  17.343  0.00  0.00    +0.000 C 
ATOM     14  C   UNL     1       5.676   6.011  16.625  0.00  0.00    +0.000 C 
ENDBRANCH   7  12
ENDBRANCH   1   8
BRANCH   5  15
ATOM     15  C   UNL     1       1.216   4.430  20.515  0.00  0.00    +0.000 C 
BRANCH  15  16
ATOM     16  C   UNL     1       2.022   5.659  20.942  0.00  0.00    +0.000 C 
BRANCH  16  17
ATOM     17  C   UNL     1       1.946   6.835  19.997  0.00  0.00    +0.000 A 
ATOM     18  C   UNL     1       1.335   8.039  20.383  0.00  0.00    +0.000 A 
ATOM     19  C   UNL     1       1.371   9.151  19.539  0.00  0.00    +0.000 A 
ATOM     20  C   UNL     1       2.018   9.061  18.314  0.00  0.00    +0.000 A 
ATOM     21  F   UNL     1       2.071  10.136  17.515  0.00  0.00    +0.000 F 
ATOM     22  C   UNL     1       2.626   7.881  17.911  0.00  0.00    +0.000 A 
ATOM     23  C   UNL     1       2.591   6.767  18.751  0.00  0.00    +0.000 A 
ENDBRANCH  16  17
ENDBRANCH  15  16
ENDBRANCH   5  15
TORSDOF 5
ENDMDL
MODEL 3
REMARK VINA RESULT:      -7.8      0.622      1.498
REMARK  Name = 
REMARK  8 active torsions:
REMARK  status: ('A' for Active; 'I' for Inactive)
REMARK    1  A    between atoms: C_1  and  C_2
REMARK    2  A    between atoms: C_2  and  C_3
REMARK    3  A    between atoms: C_2  and  C_4
REMARK    4  A    between atoms: C_2  and  N_5
REMARK    5  A    between atoms: C_6  and  C_8
REMARK    6  A    between atoms: N_12  and  C_13
REMARK    7  A    between atoms: C_13  and  C_14
REMARK    8  A    between atoms: C_14  and  C_15
REMARK                            x       y       z     vdW  Elec       q    Type
REMARK                         _______ _______ _______ _____ _____    ______ ____
ROOT
ATOM      1  C   UNL     1       4.169   2.418  19.303  0.00  0.00    +0.000 C 
ATOM      2  C   UNL     1       3.097   1.790  18.428  0.00  0.00    +0.000 C 
ATOM      3  C   UNL     1       1.895   2.646  18.725  0.00  0.00    +0.000 C 
ATOM      4  O   UNL     1       0.939   2.762  17.979  0.00  0.00    +0.000 OA
ATOM      5  N   UNL     1       2.094   3.264  19.953  0.00  0.00    +0.000 N 
ATOM      6  C   UNL     1       3.412   2.998  20.478  0.00  0.00    +0.000 C 
ENDROOT
BRANCH   1   8
ATOM      7  N   UNL     1       5.144   3.457  17.254  0.00  0.00    +0.000 N 
ATOM      8  C   UNL     1       5.031   3.473  18.629  0.00  0.00    +0.000 C 
ATOM      9  O   UNL     1       5.546   4.348  19.329  0.00  0.00    +0.000 OA
ATOM     10  H   UNL     1       4.616   2.779  16.719  0.00  0.00    +0.000 HD
BRANCH   7  12
ATOM     11  C   UNL     1       7.372   4.540  17.064  0.00  0.00    +0.000 C 
ATOM     12  C   UNL     1       5.949   4.431  16.487  0.00  0.00    +0.000 C 
ATOM     13  C   UNL     1       5.275   5.814  16.480  0.00  0.00    +0.000 C 
ATOM     14  C   UNL     1       6.073   3.955  15.026  0.00  0.00    +0.000 C 
ENDBRANCH   7  12
ENDBRANCH   1   8
BRANCH   5  15
ATOM     15  C   UNL     1       1.223   4.259  20.577  0.00  0.00    +0.000 C 
BRANCH  15  16
ATOM     16  C   UNL     1       1.951   5.517  21.057  0.00  0.00    +0.000 C 
BRANCH  16  17
ATOM     17  C   UNL     1       1.863   6.702  20.125  0.00  0.00    +0.000 A 
ATOM     18  C   UNL     1       1.317   7.923  20.552  0.00  0.00    +0.000 A 
ATOM     19  C   UNL     1       1.344   9.040  19.714  0.00  0.00    +0.000 A 
ATOM     20  C   UNL     1       1.920   8.938  18.454  0.00  0.00    +0.000 A 
ATOM     21  F   UNL     1       1.965  10.017  17.660  0.00  0.00    +0.000 F 
ATOM     22  C   UNL     1       2.464   7.741  18.011  0.00  0.00    +0.000 A 
ATOM     23  C   UNL     1       2.437   6.623  18.845  0.00  0.00    +0.000 A 
ENDBRANCH  16  17
ENDBRANCH  15  16
ENDBRANCH   5  15
TORSDOF 5
ENDMDL
MODEL 4
REMARK VINA RESULT:      -7.8      0.586      1.109
REMARK  Name = 
REMARK  8 active torsions:
REMARK  status: ('A' for Active; 'I' for Inactive)
REMARK    1  A    between atoms: C_1  and  C_2
REMARK    2  A    between atoms: C_2  and  C_3
REMARK    3  A    between atoms: C_2  and  C_4
REMARK    4  A    between atoms: C_2  and  N_5
REMARK    5  A    between atoms: C_6  and  C_8
REMARK    6  A    between atoms: N_12  and  C_13
REMARK    7  A    between atoms: C_13  and  C_14
REMARK    8  A    between atoms: C_14  and  C_15
REMARK                            x       y       z     vdW  Elec       q    Type
REMARK                         _______ _______ _______ _____ _____    ______ ____
ROOT
ATOM      1  C   UNL     1       4.041   2.501  18.846  0.00  0.00    +0.000 C 
ATOM      2  C   UNL     1       2.873   1.981  18.023  0.00  0.00    +0.000 C 
ATOM      3  C   UNL     1       1.740   2.862  18.477  0.00  0.00    +0.000 C 
ATOM      4  O   UNL     1       0.733   3.069  17.823  0.00  0.00    +0.000 OA
ATOM      5  N   UNL     1       2.065   3.382  19.722  0.00  0.00    +0.000 N 
ATOM      6  C   UNL     1       3.407   3.027  20.116  0.00  0.00    +0.000 C 
ENDROOT
BRANCH   1   8
ATOM      7  N   UNL     1       5.184   3.433  16.833  0.00  0.00    +0.000 N 
ATOM      8  C   UNL     1       4.893   3.565  18.175  0.00  0.00    +0.000 C 
ATOM      9  O   UNL     1       5.241   4.546  18.838  0.00  0.00    +0.000 OA
ATOM     10  H   UNL     1       4.786   2.662  16.311  0.00  0.00    +0.000 HD
BRANCH   7  12
ATOM     11  C   UNL     1       6.218   3.917  14.626  0.00  0.00    +0.000 C 
ATOM     12  C   UNL     1       5.998   4.403  16.071  0.00  0.00    +0.000 C 
ATOM     13  C   UNL     1       7.353   4.642  16.760  0.00  0.00    +0.000 C 
ATOM     14  C   UNL     1       5.255   5.752  16.001  0.00  0.00    +0.000 C 
ENDBRANCH   7  12
ENDBRANCH   1   8
BRANCH   5  15
ATOM     15  C   UNL     1       1.294   4.365  20.482  0.00  0.00    +0.000 C 
BRANCH  15  16
ATOM     16  C   UNL     1       2.111   5.570  20.958  0.00  0.00    +0.000 C 
BRANCH  16  17
ATOM     17  C   UNL     1       2.138   6.741  20.003  0.00  0.00    +0.000 A 
ATOM     18  C   UNL     1       2.665   6.610  18.708  0.00  0.00    +0.000 A 
ATOM     19  C   UNL     1       2.582   7.670  17.802  0.00  0.00    +0.000 A 
ATOM     20  C   UNL     1       1.971   8.856  18.189  0.00  0.00    +0.000 A 
ATOM     21  F   UNL     1       1.873   9.864  17.311  0.00  0.00    +0.000 F 
ATOM     22  C   UNL     1       1.446   9.007  19.464  0.00  0.00    +0.000 A 
ATOM     23  C   UNL     1       1.529   7.951  20.372  0.00  0.00    +0.000 A 
ENDBRANCH  16  17
ENDBRANCH  15  16
ENDBRANCH   5  15
TORSDOF 5
ENDMDL
MODEL 5
REMARK VINA RESULT:      -7.7      0.945      1.022
REMARK  Name = 
REMARK  8 active torsions:
REMARK  status: ('A' for Active; 'I' for Inactive)
REMARK    1  A    between atoms: C_1  and  C_2
REMARK    2  A    between atoms: C_2  and  C_3
REMARK    3  A    between atoms: C_2  and  C_4
REMARK    4  A    between atoms: C_2  and  N_5
REMARK    5  A    between atoms: C_6  and  C_8
REMARK    6  A    between atoms: N_12  and  C_13
REMARK    7  A    between atoms: C_13  and  C_14
REMARK    8  A    between atoms: C_14  and  C_15
REMARK                            x       y       z     vdW  Elec       q    Type
REMARK                         _______ _______ _______ _____ _____    ______ ____
ROOT
ATOM      1  C   UNL     1       3.977   2.488  18.867  0.00  0.00    +0.000 C 
ATOM      2  C   UNL     1       2.799   1.883  18.120  0.00  0.00    +0.000 C 
ATOM      3  C   UNL     1       1.648   2.731  18.593  0.00  0.00    +0.000 C 
ATOM      4  O   UNL     1       0.604   2.866  17.980  0.00  0.00    +0.000 OA
ATOM      5  N   UNL     1       2.004   3.314  19.801  0.00  0.00    +0.000 N 
ATOM      6  C   UNL     1       3.378   3.035  20.145  0.00  0.00    +0.000 C 
ENDROOT
BRANCH   1   8
ATOM      7  N   UNL     1       5.876   4.097  18.701  0.00  0.00    +0.000 N 
ATOM      8  C   UNL     1       4.748   3.561  18.116  0.00  0.00    +0.000 C 
ATOM      9  O   UNL     1       4.376   3.867  16.981  0.00  0.00    +0.000 OA
ATOM     10  H   UNL     1       6.197   3.734  19.590  0.00  0.00    +0.000 HD
BRANCH   7  12
ATOM     11  C   UNL     1       5.838   6.313  17.578  0.00  0.00    +0.000 C 
ATOM     12  C   UNL     1       6.709   5.142  18.068  0.00  0.00    +0.000 C 
ATOM     13  C   UNL     1       7.521   4.561  16.897  0.00  0.00    +0.000 C 
ATOM     14  C   UNL     1       7.702   5.702  19.105  0.00  0.00    +0.000 C 
ENDBRANCH   7  12
ENDBRANCH   1   8
BRANCH   5  15
ATOM     15  C   UNL     1       1.224   4.292  20.558  0.00  0.00    +0.000 C 
BRANCH  15  16
ATOM     16  C   UNL     1       2.034   5.493  21.053  0.00  0.00    +0.000 C 
BRANCH  16  17
ATOM     17  C   UNL     1       2.046   6.684  20.124  0.00  0.00    +0.000 A 
ATOM     18  C   UNL     1       2.509   6.571  18.804  0.00  0.00    +0.000 A 
ATOM     19  C   UNL     1       2.410   7.653  17.926  0.00  0.00    +0.000 A 
ATOM     20  C   UNL     1       1.845   8.843  18.365  0.00  0.00    +0.000 A 
ATOM     21  F   UNL     1       1.730   9.873  17.516  0.00  0.00    +0.000 F 
ATOM     22  C   UNL     1       1.383   8.977  19.667  0.00  0.00    +0.000 A 
ATOM     23  C   UNL     1       1.482   7.899  20.547  0.00  0.00    +0.000 A 
ENDBRANCH  16  17
ENDBRANCH  15  16
ENDBRANCH   5  15
TORSDOF 5
ENDMDL
MODEL 6
REMARK VINA RESULT:      -7.6      0.931      1.726
REMARK  Name = 
REMARK  8 active torsions:
REMARK  status: ('A' for Active; 'I' for Inactive)
REMARK    1  A    between atoms: C_1  and  C_2
REMARK    2  A    between atoms: C_2  and  C_3
REMARK    3  A    between atoms: C_2  and  C_4
REMARK    4  A    between atoms: C_2  and  N_5
REMARK    5  A    between atoms: C_6  and  C_8
REMARK    6  A    between atoms: N_12  and  C_13
REMARK    7  A    between atoms: C_13  and  C_14
REMARK    8  A    between atoms: C_14  and  C_15
REMARK                            x       y       z     vdW  Elec       q    Type
REMARK                         _______ _______ _______ _____ _____    ______ ____
ROOT
ATOM      1  C   UNL     1       3.901   2.499  18.466  0.00  0.00    +0.000 C 
ATOM      2  C   UNL     1       2.623   2.109  17.743  0.00  0.00    +0.000 C 
ATOM      3  C   UNL     1       1.587   2.949  18.442  0.00  0.00    +0.000 C 
ATOM      4  O   UNL     1       0.514   3.256  17.953  0.00  0.00    +0.000 OA
ATOM      5  N   UNL     1       2.084   3.303  19.689  0.00  0.00    +0.000 N 
ATOM      6  C   UNL     1       3.451   2.876  19.862  0.00  0.00    +0.000 C 
ENDROOT
BRANCH   1   8
ATOM      7  N   UNL     1       5.831   4.082  18.469  0.00  0.00    +0.000 N 
ATOM      8  C   UNL     1       4.701   3.622  17.825  0.00  0.00    +0.000 C 
ATOM      9  O   UNL     1       4.349   4.037  16.718  0.00  0.00    +0.000 OA
ATOM     10  H   UNL     1       6.134   3.633  19.324  0.00  0.00    +0.000 HD
BRANCH   7  12
ATOM     11  C   UNL     1       7.452   4.695  16.688  0.00  0.00    +0.000 C 
ATOM     12  C   UNL     1       6.690   5.163  17.942  0.00  0.00    +0.000 C 
ATOM     13  C   UNL     1       7.684   5.645  19.014  0.00  0.00    +0.000 C 
ATOM     14  C   UNL     1       5.812   6.362  17.534  0.00  0.00    +0.000 C 
ENDBRANCH   7  12
ENDBRANCH   1   8
BRANCH   5  15
ATOM     15  C   UNL     1       1.449   4.199  20.655  0.00  0.00    +0.000 C 
BRANCH  15  16
ATOM     16  C   UNL     1       2.272   5.447  20.987  0.00  0.00    +0.000 C 
BRANCH  16  17
ATOM     17  C   UNL     1       2.040   6.628  20.074  0.00  0.00    +0.000 A 
ATOM     18  C   UNL     1       1.482   7.822  20.558  0.00  0.00    +0.000 A 
ATOM     19  C   UNL     1       1.377   8.940  19.727  0.00  0.00    +0.000 A 
ATOM     20  C   UNL     1       1.833   8.866  18.417  0.00  0.00    +0.000 A 
ATOM     21  F   UNL     1       1.752   9.946  17.628  0.00  0.00    +0.000 F 
ATOM     22  C   UNL     1       2.386   7.695  17.918  0.00  0.00    +0.000 A 
ATOM     23  C   UNL     1       2.490   6.576  18.745  0.00  0.00    +0.000 A 
ENDBRANCH  16  17
ENDBRANCH  15  16
ENDBRANCH   5  15
TORSDOF 5
ENDMDL
MODEL 7
REMARK VINA RESULT:      -7.6      0.951      1.457
REMARK  Name = 
REMARK  8 active torsions:
REMARK  status: ('A' for Active; 'I' for Inactive)
REMARK    1  A    between atoms: C_1  and  C_2
REMARK    2  A    between atoms: C_2  and  C_3
REMARK    3  A    between atoms: C_2  and  C_4
REMARK    4  A    between atoms: C_2  and  N_5
REMARK    5  A    between atoms: C_6  and  C_8
REMARK    6  A    between atoms: N_12  and  C_13
REMARK    7  A    between atoms: C_13  and  C_14
REMARK    8  A    between atoms: C_14  and  C_15
REMARK                            x       y       z     vdW  Elec       q    Type
REMARK                         _______ _______ _______ _____ _____    ______ ____
ROOT
ATOM      1  C   UNL     1       3.844   2.498  18.379  0.00  0.00    +0.000 C 
ATOM      2  C   UNL     1       2.576   2.279  17.569  0.00  0.00    +0.000 C 
ATOM      3  C   UNL     1       1.596   3.197  18.248  0.00  0.00    +0.000 C 
ATOM      4  O   UNL     1       0.593   3.638  17.715  0.00  0.00    +0.000 OA
ATOM      5  N   UNL     1       2.051   3.444  19.536  0.00  0.00    +0.000 N 
ATOM      6  C   UNL     1       3.353   2.863  19.764  0.00  0.00    +0.000 C 
ENDROOT
BRANCH   1   8
ATOM      7  N   UNL     1       5.733   4.099  18.688  0.00  0.00    +0.000 N 
ATOM      8  C   UNL     1       4.795   3.552  17.837  0.00  0.00    +0.000 C 
ATOM      9  O   UNL     1       4.739   3.834  16.638  0.00  0.00    +0.000 OA
ATOM     10  H   UNL     1       5.804   3.755  19.637  0.00  0.00    +0.000 HD
BRANCH   7  12
ATOM     11  C   UNL     1       7.677   4.568  17.214  0.00  0.00    +0.000 C 
ATOM     12  C   UNL     1       6.712   5.127  18.276  0.00  0.00    +0.000 C 
ATOM     13  C   UNL     1       7.505   5.646  19.488  0.00  0.00    +0.000 C 
ATOM     14  C   UNL     1       5.967   6.320  17.647  0.00  0.00    +0.000 C 
ENDBRANCH   7  12
ENDBRANCH   1   8
BRANCH   5  15
ATOM     15  C   UNL     1       1.458   4.363  20.507  0.00  0.00    +0.000 C 
BRANCH  15  16
ATOM     16  C   UNL     1       2.362   5.538  20.890  0.00  0.00    +0.000 C 
BRANCH  16  17
ATOM     17  C   UNL     1       2.186   6.782  20.052  0.00  0.00    +0.000 A 
ATOM     18  C   UNL     1       2.550   6.802  18.696  0.00  0.00    +0.000 A 
ATOM     19  C   UNL     1       2.278   7.923  17.908  0.00  0.00    +0.000 A 
ATOM     20  C   UNL     1       1.640   9.019  18.473  0.00  0.00    +0.000 A 
ATOM     21  F   UNL     1       1.360  10.085  17.711  0.00  0.00    +0.000 F 
ATOM     22  C   UNL     1       1.273   9.021  19.812  0.00  0.00    +0.000 A 
ATOM     23  C   UNL     1       1.545   7.904  20.602  0.00  0.00    +0.000 A 
ENDBRANCH  16  17
ENDBRANCH  15  16
ENDBRANCH   5  15
TORSDOF 5
ENDMDL
MODEL 8
REMARK VINA RESULT:      -7.3      1.074      1.498
REMARK  Name = 
REMARK  8 active torsions:
REMARK  status: ('A' for Active; 'I' for Inactive)
REMARK    1  A    between atoms: C_1  and  C_2
REMARK    2  A    between atoms: C_2  and  C_3
REMARK    3  A    between atoms: C_2  and  C_4
REMARK    4  A    between atoms: C_2  and  N_5
REMARK    5  A    between atoms: C_6  and  C_8
REMARK    6  A    between atoms: N_12  and  C_13
REMARK    7  A    between atoms: C_13  and  C_14
REMARK    8  A    between atoms: C_14  and  C_15
REMARK                            x       y       z     vdW  Elec       q    Type
REMARK                         _______ _______ _______ _____ _____    ______ ____
ROOT
ATOM      1  C   UNL     1       4.178   2.828  18.668  0.00  0.00    +0.000 C 
ATOM      2  C   UNL     1       3.054   1.884  18.271  0.00  0.00    +0.000 C 
ATOM      3  C   UNL     1       1.831   2.624  18.744  0.00  0.00    +0.000 C 
ATOM      4  O   UNL     1       0.711   2.442  18.299  0.00  0.00    +0.000 OA
ATOM      5  N   UNL     1       2.219   3.523  19.727  0.00  0.00    +0.000 N 
ATOM      6  C   UNL     1       3.653   3.556  19.886  0.00  0.00    +0.000 C 
ENDROOT
BRANCH   1   8
ATOM      7  N   UNL     1       5.710   4.618  17.846  0.00  0.00    +0.000 N 
ATOM      8  C   UNL     1       4.625   3.804  17.593  0.00  0.00    +0.000 C 
ATOM      9  O   UNL     1       4.043   3.789  16.505  0.00  0.00    +0.000 OA
ATOM     10  H   UNL     1       6.217   4.515  18.716  0.00  0.00    +0.000 HD
BRANCH   7  12
ATOM     11  C   UNL     1       5.120   6.536  16.382  0.00  0.00    +0.000 C 
ATOM     12  C   UNL     1       6.239   5.602  16.879  0.00  0.00    +0.000 C 
ATOM     13  C   UNL     1       6.906   4.896  15.686  0.00  0.00    +0.000 C 
ATOM     14  C   UNL     1       7.304   6.478  17.569  0.00  0.00    +0.000 C 
ENDBRANCH   7  12
ENDBRANCH   1   8
BRANCH   5  15
ATOM     15  C   UNL     1       1.367   4.513  20.385  0.00  0.00    +0.000 C 
BRANCH  15  16
ATOM     16  C   UNL     1       2.113   5.759  20.870  0.00  0.00    +0.000 C 
BRANCH  16  17
ATOM     17  C   UNL     1       1.876   7.006  20.050  0.00  0.00    +0.000 A 
ATOM     18  C   UNL     1       1.262   8.137  20.610  0.00  0.00    +0.000 A 
ATOM     19  C   UNL     1       1.151   9.318  19.872  0.00  0.00    +0.000 A 
ATOM     20  C   UNL     1       1.657   9.369  18.579  0.00  0.00    +0.000 A 
ATOM     21  F   UNL     1       1.570  10.509  17.881  0.00  0.00    +0.000 F 
ATOM     22  C   UNL     1       2.267   8.261  18.006  0.00  0.00    +0.000 A 
ATOM     23  C   UNL     1       2.377   7.080  18.740  0.00  0.00    +0.000 A 
ENDBRANCH  16  17
ENDBRANCH  15  16
ENDBRANCH   5  15
TORSDOF 5
ENDMDL
MODEL 9
REMARK VINA RESULT:      -7.0      4.678      6.975
REMARK  Name = 
REMARK  8 active torsions:
REMARK  status: ('A' for Active; 'I' for Inactive)
REMARK    1  A    between atoms: C_1  and  C_2
REMARK    2  A    between atoms: C_2  and  C_3
REMARK    3  A    between atoms: C_2  and  C_4
REMARK    4  A    between atoms: C_2  and  N_5
REMARK    5  A    between atoms: C_6  and  C_8
REMARK    6  A    between atoms: N_12  and  C_13
REMARK    7  A    between atoms: C_13  and  C_14
REMARK    8  A    between atoms: C_14  and  C_15
REMARK                            x       y       z     vdW  Elec       q    Type
REMARK                         _______ _______ _______ _____ _____    ______ ____
ROOT
ATOM      1  C   UNL     1       5.894   5.807  16.614  0.00  0.00    +0.000 C 
ATOM      2  C   UNL     1       6.790   4.691  17.126  0.00  0.00    +0.000 C 
ATOM      3  C   UNL     1       7.643   5.402  18.143  0.00  0.00    +0.000 C 
ATOM      4  O   UNL     1       8.215   4.844  19.063  0.00  0.00    +0.000 OA
ATOM      5  N   UNL     1       7.632   6.758  17.848  0.00  0.00    +0.000 N 
ATOM      6  C   UNL     1       6.725   7.063  16.768  0.00  0.00    +0.000 C 
ENDROOT
BRANCH   1   8
ATOM      7  N   UNL     1       4.094   4.893  18.080  0.00  0.00    +0.000 N 
ATOM      8  C   UNL     1       4.553   5.945  17.314  0.00  0.00    +0.000 C 
ATOM      9  O   UNL     1       3.951   7.018  17.228  0.00  0.00    +0.000 OA
ATOM     10  H   UNL     1       4.677   4.075  18.202  0.00  0.00    +0.000 HD
BRANCH   7  12
ATOM     11  C   UNL     1       1.626   4.743  17.839  0.00  0.00    +0.000 C 
ATOM     12  C   UNL     1       2.809   4.910  18.811  0.00  0.00    +0.000 C 
ATOM     13  C   UNL     1       2.653   6.213  19.614  0.00  0.00    +0.000 C 
ATOM     14  C   UNL     1       2.768   3.731  19.803  0.00  0.00    +0.000 C 
ENDBRANCH   7  12
ENDBRANCH   1   8
BRANCH   5  15
ATOM     15  C   UNL     1       8.244   7.825  18.639  0.00  0.00    +0.000 C 
BRANCH  15  16
ATOM     16  C   UNL     1       8.192   9.204  17.977  0.00  0.00    +0.000 C 
BRANCH  16  17
ATOM     17  C   UNL     1       9.110  10.240  18.584  0.00  0.00    +0.000 A 
ATOM     18  C   UNL     1       9.159  10.443  19.972  0.00  0.00    +0.000 A 
ATOM     19  C   UNL     1      10.091  11.325  20.524  0.00  0.00    +0.000 A 
ATOM     20  C   UNL     1      10.974  11.999  19.691  0.00  0.00    +0.000 A 
ATOM     21  F   UNL     1      11.882  12.828  20.223  0.00  0.00    +0.000 F 
ATOM     22  C   UNL     1      10.941  11.815  18.316  0.00  0.00    +0.000 A 
ATOM     23  C   UNL     1      10.010  10.936  17.761  0.00  0.00    +0.000 A 
ENDBRANCH  16  17
ENDBRANCH  15  16
ENDBRANCH   5  15
TORSDOF 5
ENDMDL
