MODEL 1
REMARK VINA RESULT:      -9.3      0.000      0.000
REMARK  Name = 
REMARK  6 active torsions:
REMARK  status: ('A' for Active; 'I' for Inactive)
REMARK    1  A    between atoms: C_2  and  C_3
REMARK    2  A    between atoms: C_3  and  C_4
REMARK    3  A    between atoms: N_10  and  C_11
REMARK    4  A    between atoms: C_17  and  C_18
REMARK    5  A    between atoms: C_18  and  C_19
REMARK    6  A    between atoms: C_19  and  C_20
REMARK                            x       y       z     vdW  Elec       q    Type
REMARK                         _______ _______ _______ _____ _____    ______ ____
ROOT
ATOM      1  C   UNL     1       6.587   6.839  17.008  0.00  0.00    +0.000 A 
ATOM      2  C   UNL     1       7.377   5.750  16.627  0.00  0.00    +0.000 A 
ATOM      3  C   UNL     1       6.893   4.427  16.671  0.00  0.00    +0.000 A 
ATOM      4  C   UNL     1       5.591   4.238  17.147  0.00  0.00    +0.000 A 
ATOM      5  N   UNL     1       4.824   3.123  17.371  0.00  0.00    +0.000 N 
ATOM      6  N   UNL     1       3.581   3.387  17.849  0.00  0.00    +0.000 NA
ATOM      7  C   UNL     1       3.557   4.723  17.933  0.00  0.00    +0.000 A 
ATOM      8  C   UNL     1       4.778   5.302  17.501  0.00  0.00    +0.000 A 
ATOM      9  C   UNL     1       5.261   6.617  17.386  0.00  0.00    +0.000 A 
ATOM     10  H   UNL     1       5.085   2.156  17.223  0.00  0.00    +0.000 HD
ENDROOT
BRANCH   1  13
ATOM     11  O   UNL     1       8.657   8.037  18.745  0.00  0.00    +0.000 OA
ATOM     12  C   UNL     1       8.001   8.684  17.930  0.00  0.00    +0.000 C 
ATOM     13  N   UNL     1       7.034   8.179  17.078  0.00  0.00    +0.000 N 
ATOM     14  H   UNL     1       6.460   8.858  16.594  0.00  0.00    +0.000 HD
BRANCH  12  15
ATOM     15  C   UNL     1       8.178  10.193  17.799  0.00  0.00    +0.000 C 
BRANCH  15  16
ATOM     16  C   UNL     1       9.358  10.755  18.561  0.00  0.00    +0.000 A 
ATOM     17  C   UNL     1      10.516  11.173  17.891  0.00  0.00    +0.000 A 
ATOM     18  C   UNL     1      11.580  11.747  18.595  0.00  0.00    +0.000 A 
ATOM     19  C   UNL     1      11.499  11.918  19.975  0.00  0.00    +0.000 A 
ATOM     20  C   UNL     1      10.348  11.519  20.650  0.00  0.00    +0.000 A 
ATOM     21  C   UNL     1       9.282  10.945  19.950  0.00  0.00    +0.000 A 
ENDBRANCH  15  16
ENDBRANCH  12  15
ENDBRANCH   1  13
BRANCH   7  22
ATOM     22  C   UNL     1       2.367   5.522  18.342  0.00  0.00    +0.000 C 
BRANCH  22  23
ATOM     23  C   UNL     1       2.400   6.229  19.691  0.00  0.00    +0.000 C 
BRANCH  23  24
ATOM     24  C   UNL     1       2.008   7.679  19.453  0.00  0.00    +0.000 A 
ATOM     25  C   UNL     1       1.355   8.408  20.456  0.00  0.00    +0.000 A 
ATOM     26  C   UNL     1       0.867   9.690  20.196  0.00  0.00    +0.000 A 
ATOM     27  C   UNL     1       1.024  10.255  18.932  0.00  0.00    +0.000 A 
ATOM     28  C   UNL     1       1.671   9.541  17.925  0.00  0.00    +0.000 A 
ATOM     29  C   UNL     1       2.162   8.259  18.184  0.00  0.00    +0.000 A 
ENDBRANCH  23  24
ENDBRANCH  22  23
ENDBRANCH   7  22
TORSDOF 6
ENDMDL
MODEL 2
REMARK VINA RESULT:      -9.0      1.555      2.969
REMARK  Name = 
REMARK  6 active torsions:
REMARK  status: ('A' for Active; 'I' for Inactive)
REMARK    1  A    between atoms: C_2  and  C_3
REMARK    2  A    between atoms: C_3  and  C_4
REMARK    3  A    between atoms: N_10  and  C_11
REMARK    4  A    between atoms: C_17  and  C_18
REMARK    5  A    between atoms: C_18  and  C_19
REMARK    6  A    between atoms: C_19  and  C_20
REMARK                            x       y       z     vdW  Elec       q    Type
REMARK                         _______ _______ _______ _____ _____    ______ ____
ROOT
ATOM      1  C   UNL     1       6.771   7.023  17.089  0.00  0.00    +0.000 A 
ATOM      2  C   UNL     1       7.631   5.944  16.865  0.00  0.00    +0.000 A 
ATOM      3  C   UNL     1       7.174   4.611  16.884  0.00  0.00    +0.000 A 
ATOM      4  C   UNL     1       5.821   4.403  17.172  0.00  0.00    +0.000 A 
ATOM      5  N   UNL     1       5.053   3.275  17.320  0.00  0.00    +0.000 N 
ATOM      6  N   UNL     1       3.749   3.522  17.603  0.00  0.00    +0.000 NA
ATOM      7  C   UNL     1       3.684   4.859  17.636  0.00  0.00    +0.000 A 
ATOM      8  C   UNL     1       4.943   5.456  17.367  0.00  0.00    +0.000 A 
ATOM      9  C   UNL     1       5.409   6.778  17.277  0.00  0.00    +0.000 A 
ATOM     10  H   UNL     1       5.353   2.312  17.245  0.00  0.00    +0.000 HD
ENDROOT
BRANCH   1  13
ATOM     11  O   UNL     1       8.785   8.269  18.858  0.00  0.00    +0.000 OA
ATOM     12  C   UNL     1       8.116   8.903  18.043  0.00  0.00    +0.000 C 
ATOM     13  N   UNL     1       7.175   8.376  17.177  0.00  0.00    +0.000 N 
ATOM     14  H   UNL     1       6.584   9.042  16.693  0.00  0.00    +0.000 HD
BRANCH  12  15
ATOM     15  C   UNL     1       8.246  10.418  17.929  0.00  0.00    +0.000 C 
BRANCH  15  16
ATOM     16  C   UNL     1       9.472  10.995  18.603  0.00  0.00    +0.000 A 
ATOM     17  C   UNL     1       9.503  11.199  19.990  0.00  0.00    +0.000 A 
ATOM     18  C   UNL     1      10.660  11.676  20.615  0.00  0.00    +0.000 A 
ATOM     19  C   UNL     1      11.802  11.950  19.866  0.00  0.00    +0.000 A 
ATOM     20  C   UNL     1      11.787  11.738  18.489  0.00  0.00    +0.000 A 
ATOM     21  C   UNL     1      10.632  11.261  17.861  0.00  0.00    +0.000 A 
ENDBRANCH  15  16
ENDBRANCH  12  15
ENDBRANCH   1  13
BRANCH   7  22
ATOM     22  C   UNL     1       2.430   5.639  17.840  0.00  0.00    +0.000 C 
BRANCH  22  23
ATOM     23  C   UNL     1       2.091   6.106  19.249  0.00  0.00    +0.000 C 
BRANCH  23  24
ATOM     24  C   UNL     1       1.781   4.869  20.076  0.00  0.00    +0.000 A 
ATOM     25  C   UNL     1       2.486   4.616  21.261  0.00  0.00    +0.000 A 
ATOM     26  C   UNL     1       2.307   3.414  21.948  0.00  0.00    +0.000 A 
ATOM     27  C   UNL     1       1.425   2.452  21.459  0.00  0.00    +0.000 A 
ATOM     28  C   UNL     1       0.718   2.691  20.282  0.00  0.00    +0.000 A 
ATOM     29  C   UNL     1       0.894   3.893  19.593  0.00  0.00    +0.000 A 
ENDBRANCH  23  24
ENDBRANCH  22  23
ENDBRANCH   7  22
TORSDOF 6
ENDMDL
MODEL 3
REMARK VINA RESULT:      -8.9      1.578      2.892
REMARK  Name = 
REMARK  6 active torsions:
REMARK  status: ('A' for Active; 'I' for Inactive)
REMARK    1  A    between atoms: C_2  and  C_3
REMARK    2  A    between atoms: C_3  and  C_4
REMARK    3  A    between atoms: N_10  and  C_11
REMARK    4  A    between atoms: C_17  and  C_18
REMARK    5  A    between atoms: C_18  and  C_19
REMARK    6  A    between atoms: C_19  and  C_20
REMARK                            x       y       z     vdW  Elec       q    Type
REMARK                         _______ _______ _______ _____ _____    ______ ____
ROOT
ATOM      1  C   UNL     1       6.795   7.010  17.008  0.00  0.00    +0.000 A 
ATOM      2  C   UNL     1       7.632   5.921  16.743  0.00  0.00    +0.000 A 
ATOM      3  C   UNL     1       7.149   4.597  16.725  0.00  0.00    +0.000 A 
ATOM      4  C   UNL     1       5.795   4.407  17.019  0.00  0.00    +0.000 A 
ATOM      5  N   UNL     1       5.006   3.291  17.139  0.00  0.00    +0.000 N 
ATOM      6  N   UNL     1       3.709   3.554  17.441  0.00  0.00    +0.000 NA
ATOM      7  C   UNL     1       3.671   4.889  17.516  0.00  0.00    +0.000 A 
ATOM      8  C   UNL     1       4.939   5.470  17.254  0.00  0.00    +0.000 A 
ATOM      9  C   UNL     1       5.430   6.786  17.201  0.00  0.00    +0.000 A 
ATOM     10  H   UNL     1       5.287   2.324  17.031  0.00  0.00    +0.000 HD
ENDROOT
BRANCH   1  13
ATOM     11  O   UNL     1       8.741   8.186  18.897  0.00  0.00    +0.000 OA
ATOM     12  C   UNL     1       8.132   8.845  18.055  0.00  0.00    +0.000 C 
ATOM     13  N   UNL     1       7.226   8.351  17.134  0.00  0.00    +0.000 N 
ATOM     14  H   UNL     1       6.678   9.036  16.628  0.00  0.00    +0.000 HD
BRANCH  12  15
ATOM     15  C   UNL     1       8.304  10.357  17.967  0.00  0.00    +0.000 C 
BRANCH  15  16
ATOM     16  C   UNL     1       9.547  10.888  18.648  0.00  0.00    +0.000 A 
ATOM     17  C   UNL     1      10.697  11.201  17.909  0.00  0.00    +0.000 A 
ATOM     18  C   UNL     1      11.822  11.747  18.535  0.00  0.00    +0.000 A 
ATOM     19  C   UNL     1      11.811  11.996  19.906  0.00  0.00    +0.000 A 
ATOM     20  C   UNL     1      10.670  11.703  20.649  0.00  0.00    +0.000 A 
ATOM     21  C   UNL     1       9.544  11.156  20.026  0.00  0.00    +0.000 A 
ENDBRANCH  15  16
ENDBRANCH  12  15
ENDBRANCH   1  13
BRANCH   7  22
ATOM     22  C   UNL     1       2.435   5.687  17.756  0.00  0.00    +0.000 C 
BRANCH  22  23
ATOM     23  C   UNL     1       2.080   6.058  19.190  0.00  0.00    +0.000 C 
BRANCH  23  24
ATOM     24  C   UNL     1       1.897   4.762  19.963  0.00  0.00    +0.000 A 
ATOM     25  C   UNL     1       0.918   3.839  19.573  0.00  0.00    +0.000 A 
ATOM     26  C   UNL     1       0.649   2.717  20.360  0.00  0.00    +0.000 A 
ATOM     27  C   UNL     1       1.353   2.508  21.544  0.00  0.00    +0.000 A 
ATOM     28  C   UNL     1       2.329   3.419  21.944  0.00  0.00    +0.000 A 
ATOM     29  C   UNL     1       2.601   4.541  21.158  0.00  0.00    +0.000 A 
ENDBRANCH  23  24
ENDBRANCH  22  23
ENDBRANCH   7  22
TORSDOF 6
ENDMDL
MODEL 4
REMARK VINA RESULT:      -8.7      3.258      7.743
REMARK  Name = 
REMARK  6 active torsions:
REMARK  status: ('A' for Active; 'I' for Inactive)
REMARK    1  A    between atoms: C_2  and  C_3
REMARK    2  A    between atoms: C_3  and  C_4
REMARK    3  A    between atoms: N_10  and  C_11
REMARK    4  A    between atoms: C_17  and  C_18
REMARK    5  A    between atoms: C_18  and  C_19
REMARK    6  A    between atoms: C_19  and  C_20
REMARK                            x       y       z     vdW  Elec       q    Type
REMARK                         _______ _______ _______ _____ _____    ______ ____
ROOT
ATOM      1  C   UNL     1       2.380   7.007  19.060  0.00  0.00    +0.000 A 
ATOM      2  C   UNL     1       2.049   6.320  20.232  0.00  0.00    +0.000 A 
ATOM      3  C   UNL     1       2.414   4.973  20.433  0.00  0.00    +0.000 A 
ATOM      4  C   UNL     1       3.096   4.333  19.393  0.00  0.00    +0.000 A 
ATOM      5  N   UNL     1       3.554   3.052  19.217  0.00  0.00    +0.000 N 
ATOM      6  N   UNL     1       4.182   2.842  18.032  0.00  0.00    +0.000 NA
ATOM      7  C   UNL     1       4.120   4.035  17.430  0.00  0.00    +0.000 A 
ATOM      8  C   UNL     1       3.462   5.001  18.236  0.00  0.00    +0.000 A 
ATOM      9  C   UNL     1       3.145   6.361  18.087  0.00  0.00    +0.000 A 
ATOM     10  H   UNL     1       3.472   2.274  19.861  0.00  0.00    +0.000 HD
ENDROOT
BRANCH   1  13
ATOM     11  O   UNL     1       0.906   8.953  20.726  0.00  0.00    +0.000 OA
ATOM     12  C   UNL     1       1.262   9.185  19.572  0.00  0.00    +0.000 C 
ATOM     13  N   UNL     1       1.969   8.325  18.750  0.00  0.00    +0.000 N 
ATOM     14  H   UNL     1       2.035   8.586  17.774  0.00  0.00    +0.000 HD
BRANCH  12  15
ATOM     15  C   UNL     1       0.909  10.502  18.890  0.00  0.00    +0.000 C 
BRANCH  15  16
ATOM     16  C   UNL     1      -0.561  10.668  18.570  0.00  0.00    +0.000 A 
ATOM     17  C   UNL     1      -1.338  11.629  19.230  0.00  0.00    +0.000 A 
ATOM     18  C   UNL     1      -2.681  11.819  18.888  0.00  0.00    +0.000 A 
ATOM     19  C   UNL     1      -3.263  11.058  17.877  0.00  0.00    +0.000 A 
ATOM     20  C   UNL     1      -2.497  10.110  17.203  0.00  0.00    +0.000 A 
ATOM     21  C   UNL     1      -1.154   9.917  17.543  0.00  0.00    +0.000 A 
ENDBRANCH  15  16
ENDBRANCH  12  15
ENDBRANCH   1  13
BRANCH   7  22
ATOM     22  C   UNL     1       4.742   4.350  16.113  0.00  0.00    +0.000 C 
BRANCH  22  23
ATOM     23  C   UNL     1       6.238   4.121  15.945  0.00  0.00    +0.000 C 
BRANCH  23  24
ATOM     24  C   UNL     1       6.954   5.112  16.848  0.00  0.00    +0.000 A 
ATOM     25  C   UNL     1       7.528   4.685  18.052  0.00  0.00    +0.000 A 
ATOM     26  C   UNL     1       8.061   5.611  18.951  0.00  0.00    +0.000 A 
ATOM     27  C   UNL     1       8.023   6.973  18.658  0.00  0.00    +0.000 A 
ATOM     28  C   UNL     1       7.454   7.412  17.463  0.00  0.00    +0.000 A 
ATOM     29  C   UNL     1       6.922   6.487  16.562  0.00  0.00    +0.000 A 
ENDBRANCH  23  24
ENDBRANCH  22  23
ENDBRANCH   7  22
TORSDOF 6
ENDMDL
MODEL 5
REMARK VINA RESULT:      -8.6      3.298      7.656
REMARK  Name = 
REMARK  6 active torsions:
REMARK  status: ('A' for Active; 'I' for Inactive)
REMARK    1  A    between atoms: C_2  and  C_3
REMARK    2  A    between atoms: C_3  and  C_4
REMARK    3  A    between atoms: N_10  and  C_11
REMARK    4  A    between atoms: C_17  and  C_18
REMARK    5  A    between atoms: C_18  and  C_19
REMARK    6  A    between atoms: C_19  and  C_20
REMARK                            x       y       z     vdW  Elec       q    Type
REMARK                         _______ _______ _______ _____ _____    ______ ____
ROOT
ATOM      1  C   UNL     1       2.306   6.717  19.548  0.00  0.00    +0.000 A 
ATOM      2  C   UNL     1       1.890   5.923  20.621  0.00  0.00    +0.000 A 
ATOM      3  C   UNL     1       2.142   4.536  20.663  0.00  0.00    +0.000 A 
ATOM      4  C   UNL     1       2.799   3.973  19.564  0.00  0.00    +0.000 A 
ATOM      5  N   UNL     1       3.160   2.689  19.241  0.00  0.00    +0.000 N 
ATOM      6  N   UNL     1       3.801   2.573  18.050  0.00  0.00    +0.000 NA
ATOM      7  C   UNL     1       3.850   3.832  17.598  0.00  0.00    +0.000 A 
ATOM      8  C   UNL     1       3.248   4.743  18.505  0.00  0.00    +0.000 A 
ATOM      9  C   UNL     1       3.044   6.133  18.517  0.00  0.00    +0.000 A 
ATOM     10  H   UNL     1       2.999   1.849  19.783  0.00  0.00    +0.000 HD
ENDROOT
BRANCH   1  13
ATOM     11  O   UNL     1       0.483   8.429  21.124  0.00  0.00    +0.000 OA
ATOM     12  C   UNL     1       1.128   8.837  20.159  0.00  0.00    +0.000 C 
ATOM     13  N   UNL     1       2.008   8.092  19.395  0.00  0.00    +0.000 N 
ATOM     14  H   UNL     1       2.327   8.515  18.532  0.00  0.00    +0.000 HD
BRANCH  12  15
ATOM     15  C   UNL     1       0.981  10.272  19.667  0.00  0.00    +0.000 C 
BRANCH  15  16
ATOM     16  C   UNL     1      -0.334  10.570  18.981  0.00  0.00    +0.000 A 
ATOM     17  C   UNL     1      -0.728   9.860  17.838  0.00  0.00    +0.000 A 
ATOM     18  C   UNL     1      -1.972  10.098  17.243  0.00  0.00    +0.000 A 
ATOM     19  C   UNL     1      -2.841  11.041  17.786  0.00  0.00    +0.000 A 
ATOM     20  C   UNL     1      -2.467  11.743  18.930  0.00  0.00    +0.000 A 
ATOM     21  C   UNL     1      -1.224  11.508  19.527  0.00  0.00    +0.000 A 
ENDBRANCH  15  16
ENDBRANCH  12  15
ENDBRANCH   1  13
BRANCH   7  22
ATOM     22  C   UNL     1       4.529   4.251  16.340  0.00  0.00    +0.000 C 
BRANCH  22  23
ATOM     23  C   UNL     1       6.041   4.090  16.245  0.00  0.00    +0.000 C 
BRANCH  23  24
ATOM     24  C   UNL     1       6.668   5.157  17.127  0.00  0.00    +0.000 A 
ATOM     25  C   UNL     1       6.750   6.483  16.682  0.00  0.00    +0.000 A 
ATOM     26  C   UNL     1       7.450   7.437  17.424  0.00  0.00    +0.000 A 
ATOM     27  C   UNL     1       8.077   7.076  18.615  0.00  0.00    +0.000 A 
ATOM     28  C   UNL     1       8.003   5.760  19.069  0.00  0.00    +0.000 A 
ATOM     29  C   UNL     1       7.302   4.805  18.330  0.00  0.00    +0.000 A 
ENDBRANCH  23  24
ENDBRANCH  22  23
ENDBRANCH   7  22
TORSDOF 6
ENDMDL
MODEL 6
REMARK VINA RESULT:      -8.5      3.111      7.381
REMARK  Name = 
REMARK  6 active torsions:
REMARK  status: ('A' for Active; 'I' for Inactive)
REMARK    1  A    between atoms: C_2  and  C_3
REMARK    2  A    between atoms: C_3  and  C_4
REMARK    3  A    between atoms: N_10  and  C_11
REMARK    4  A    between atoms: C_17  and  C_18
REMARK    5  A    between atoms: C_18  and  C_19
REMARK    6  A    between atoms: C_19  and  C_20
REMARK                            x       y       z     vdW  Elec       q    Type
REMARK                         _______ _______ _______ _____ _____    ______ ____
ROOT
ATOM      1  C   UNL     1       2.278   6.658  19.524  0.00  0.00    +0.000 A 
ATOM      2  C   UNL     1       1.863   5.822  20.566  0.00  0.00    +0.000 A 
ATOM      3  C   UNL     1       2.140   4.440  20.567  0.00  0.00    +0.000 A 
ATOM      4  C   UNL     1       2.821   3.924  19.460  0.00  0.00    +0.000 A 
ATOM      5  N   UNL     1       3.209   2.657  19.101  0.00  0.00    +0.000 N 
ATOM      6  N   UNL     1       3.866   2.590  17.915  0.00  0.00    +0.000 NA
ATOM      7  C   UNL     1       3.897   3.863  17.503  0.00  0.00    +0.000 A 
ATOM      8  C   UNL     1       3.268   4.735  18.430  0.00  0.00    +0.000 A 
ATOM      9  C   UNL     1       3.039   6.120  18.484  0.00  0.00    +0.000 A 
ATOM     10  H   UNL     1       3.057   1.798  19.614  0.00  0.00    +0.000 HD
ENDROOT
BRANCH   1  13
ATOM     11  O   UNL     1       2.354   8.411  17.145  0.00  0.00    +0.000 OA
ATOM     12  C   UNL     1       2.030   8.804  18.265  0.00  0.00    +0.000 C 
ATOM     13  N   UNL     1       1.957   8.031  19.410  0.00  0.00    +0.000 N 
ATOM     14  H   UNL     1       1.847   8.529  20.284  0.00  0.00    +0.000 HD
BRANCH  12  15
ATOM     15  C   UNL     1       1.693  10.270  18.516  0.00  0.00    +0.000 C 
BRANCH  15  16
ATOM     16  C   UNL     1       0.211  10.575  18.556  0.00  0.00    +0.000 A 
ATOM     17  C   UNL     1      -0.289  11.619  19.346  0.00  0.00    +0.000 A 
ATOM     18  C   UNL     1      -1.652  11.935  19.334  0.00  0.00    +0.000 A 
ATOM     19  C   UNL     1      -2.531  11.218  18.525  0.00  0.00    +0.000 A 
ATOM     20  C   UNL     1      -2.044  10.188  17.724  0.00  0.00    +0.000 A 
ATOM     21  C   UNL     1      -0.682   9.869  17.735  0.00  0.00    +0.000 A 
ENDBRANCH  15  16
ENDBRANCH  12  15
ENDBRANCH   1  13
BRANCH   7  22
ATOM     22  C   UNL     1       4.584   4.334  16.267  0.00  0.00    +0.000 C 
BRANCH  22  23
ATOM     23  C   UNL     1       6.097   4.181  16.177  0.00  0.00    +0.000 C 
BRANCH  23  24
ATOM     24  C   UNL     1       6.715   5.223  17.095  0.00  0.00    +0.000 A 
ATOM     25  C   UNL     1       6.800   6.561  16.689  0.00  0.00    +0.000 A 
ATOM     26  C   UNL     1       7.492   7.494  17.464  0.00  0.00    +0.000 A 
ATOM     27  C   UNL     1       8.108   7.100  18.650  0.00  0.00    +0.000 A 
ATOM     28  C   UNL     1       8.031   5.771  19.065  0.00  0.00    +0.000 A 
ATOM     29  C   UNL     1       7.338   4.837  18.293  0.00  0.00    +0.000 A 
ENDBRANCH  23  24
ENDBRANCH  22  23
ENDBRANCH   7  22
TORSDOF 6
ENDMDL
MODEL 7
REMARK VINA RESULT:      -8.3      3.417      7.584
REMARK  Name = 
REMARK  6 active torsions:
REMARK  status: ('A' for Active; 'I' for Inactive)
REMARK    1  A    between atoms: C_2  and  C_3
REMARK    2  A    between atoms: C_3  and  C_4
REMARK    3  A    between atoms: N_10  and  C_11
REMARK    4  A    between atoms: C_17  and  C_18
REMARK    5  A    between atoms: C_18  and  C_19
REMARK    6  A    between atoms: C_19  and  C_20
REMARK                            x       y       z     vdW  Elec       q    Type
REMARK                         _______ _______ _______ _____ _____    ______ ____
ROOT
ATOM      1  C   UNL     1       2.220   6.389  20.064  0.00  0.00    +0.000 A 
ATOM      2  C   UNL     1       1.682   5.414  20.909  0.00  0.00    +0.000 A 
ATOM      3  C   UNL     1       1.826   4.037  20.645  0.00  0.00    +0.000 A 
ATOM      4  C   UNL     1       2.504   3.679  19.475  0.00  0.00    +0.000 A 
ATOM      5  N   UNL     1       2.787   2.473  18.883  0.00  0.00    +0.000 N 
ATOM      6  N   UNL     1       3.488   2.571  17.725  0.00  0.00    +0.000 NA
ATOM      7  C   UNL     1       3.659   3.890  17.574  0.00  0.00    +0.000 A 
ATOM      8  C   UNL     1       3.074   4.624  18.638  0.00  0.00    +0.000 A 
ATOM      9  C   UNL     1       2.974   5.989  18.959  0.00  0.00    +0.000 A 
ATOM     10  H   UNL     1       2.530   1.551  19.212  0.00  0.00    +0.000 HD
ENDROOT
BRANCH   1  13
ATOM     11  O   UNL     1       0.075   7.857  21.470  0.00  0.00    +0.000 OA
ATOM     12  C   UNL     1       0.996   8.413  20.875  0.00  0.00    +0.000 C 
ATOM     13  N   UNL     1       2.037   7.784  20.215  0.00  0.00    +0.000 N 
ATOM     14  H   UNL     1       2.617   8.368  19.627  0.00  0.00    +0.000 HD
BRANCH  12  15
ATOM     15  C   UNL     1       1.061   9.933  20.773  0.00  0.00    +0.000 C 
BRANCH  15  16
ATOM     16  C   UNL     1      -0.105  10.565  20.045  0.00  0.00    +0.000 A 
ATOM     17  C   UNL     1      -0.772  11.676  20.579  0.00  0.00    +0.000 A 
ATOM     18  C   UNL     1      -1.812  12.292  19.874  0.00  0.00    +0.000 A 
ATOM     19  C   UNL     1      -2.193  11.812  18.624  0.00  0.00    +0.000 A 
ATOM     20  C   UNL     1      -1.529  10.717  18.076  0.00  0.00    +0.000 A 
ATOM     21  C   UNL     1      -0.490  10.098  18.779  0.00  0.00    +0.000 A 
ENDBRANCH  15  16
ENDBRANCH  12  15
ENDBRANCH   1  13
BRANCH   7  22
ATOM     22  C   UNL     1       4.443   4.520  16.474  0.00  0.00    +0.000 C 
BRANCH  22  23
ATOM     23  C   UNL     1       5.903   4.117  16.304  0.00  0.00    +0.000 C 
BRANCH  23  24
ATOM     24  C   UNL     1       6.744   5.118  17.079  0.00  0.00    +0.000 A 
ATOM     25  C   UNL     1       7.329   4.755  18.300  0.00  0.00    +0.000 A 
ATOM     26  C   UNL     1       7.981   5.708  19.084  0.00  0.00    +0.000 A 
ATOM     27  C   UNL     1       8.054   7.034  18.659  0.00  0.00    +0.000 A 
ATOM     28  C   UNL     1       7.476   7.408  17.447  0.00  0.00    +0.000 A 
ATOM     29  C   UNL     1       6.824   6.456  16.660  0.00  0.00    +0.000 A 
ENDBRANCH  23  24
ENDBRANCH  22  23
ENDBRANCH   7  22
TORSDOF 6
ENDMDL
MODEL 8
REMARK VINA RESULT:      -8.2      3.196      7.191
REMARK  Name = 
REMARK  6 active torsions:
REMARK  status: ('A' for Active; 'I' for Inactive)
REMARK    1  A    between atoms: C_2  and  C_3
REMARK    2  A    between atoms: C_3  and  C_4
REMARK    3  A    between atoms: N_10  and  C_11
REMARK    4  A    between atoms: C_17  and  C_18
REMARK    5  A    between atoms: C_18  and  C_19
REMARK    6  A    between atoms: C_19  and  C_20
REMARK                            x       y       z     vdW  Elec       q    Type
REMARK                         _______ _______ _______ _____ _____    ______ ____
ROOT
ATOM      1  C   UNL     1       2.360   6.167  19.922  0.00  0.00    +0.000 A 
ATOM      2  C   UNL     1       1.838   5.161  20.740  0.00  0.00    +0.000 A 
ATOM      3  C   UNL     1       2.018   3.794  20.447  0.00  0.00    +0.000 A 
ATOM      4  C   UNL     1       2.715   3.478  19.275  0.00  0.00    +0.000 A 
ATOM      5  N   UNL     1       3.032   2.294  18.659  0.00  0.00    +0.000 N 
ATOM      6  N   UNL     1       3.740   2.435  17.510  0.00  0.00    +0.000 NA
ATOM      7  C   UNL     1       3.880   3.760  17.390  0.00  0.00    +0.000 A 
ATOM      8  C   UNL     1       3.268   4.456  18.465  0.00  0.00    +0.000 A 
ATOM      9  C   UNL     1       3.132   5.810  18.814  0.00  0.00    +0.000 A 
ATOM     10  H   UNL     1       2.795   1.358  18.965  0.00  0.00    +0.000 HD
ENDROOT
BRANCH   1  13
ATOM     11  O   UNL     1       1.323   8.168  18.009  0.00  0.00    +0.000 OA
ATOM     12  C   UNL     1       1.666   8.445  19.157  0.00  0.00    +0.000 C 
ATOM     13  N   UNL     1       2.141   7.553  20.103  0.00  0.00    +0.000 N 
ATOM     14  H   UNL     1       2.546   7.955  20.938  0.00  0.00    +0.000 HD
BRANCH  12  15
ATOM     15  C   UNL     1       1.632   9.883  19.662  0.00  0.00    +0.000 C 
BRANCH  15  16
ATOM     16  C   UNL     1       0.688  10.119  20.821  0.00  0.00    +0.000 A 
ATOM     17  C   UNL     1       0.559   9.176  21.850  0.00  0.00    +0.000 A 
ATOM     18  C   UNL     1      -0.270   9.426  22.948  0.00  0.00    +0.000 A 
ATOM     19  C   UNL     1      -0.975  10.624  23.038  0.00  0.00    +0.000 A 
ATOM     20  C   UNL     1      -0.844  11.575  22.029  0.00  0.00    +0.000 A 
ATOM     21  C   UNL     1      -0.017  11.328  20.929  0.00  0.00    +0.000 A 
ENDBRANCH  15  16
ENDBRANCH  12  15
ENDBRANCH   1  13
BRANCH   7  22
ATOM     22  C   UNL     1       4.657   4.433  16.311  0.00  0.00    +0.000 C 
BRANCH  22  23
ATOM     23  C   UNL     1       6.140   4.109  16.178  0.00  0.00    +0.000 C 
BRANCH  23  24
ATOM     24  C   UNL     1       6.904   5.129  17.007  0.00  0.00    +0.000 A 
ATOM     25  C   UNL     1       7.474   4.760  18.232  0.00  0.00    +0.000 A 
ATOM     26  C   UNL     1       8.052   5.722  19.063  0.00  0.00    +0.000 A 
ATOM     27  C   UNL     1       8.065   7.062  18.679  0.00  0.00    +0.000 A 
ATOM     28  C   UNL     1       7.502   7.442  17.463  0.00  0.00    +0.000 A 
ATOM     29  C   UNL     1       6.924   6.482  16.629  0.00  0.00    +0.000 A 
ENDBRANCH  23  24
ENDBRANCH  22  23
ENDBRANCH   7  22
TORSDOF 6
ENDMDL
MODEL 9
REMARK VINA RESULT:      -8.2      3.293      7.156
REMARK  Name = 
REMARK  6 active torsions:
REMARK  status: ('A' for Active; 'I' for Inactive)
REMARK    1  A    between atoms: C_2  and  C_3
REMARK    2  A    between atoms: C_3  and  C_4
REMARK    3  A    between atoms: N_10  and  C_11
REMARK    4  A    between atoms: C_17  and  C_18
REMARK    5  A    between atoms: C_18  and  C_19
REMARK    6  A    between atoms: C_19  and  C_20
REMARK                            x       y       z     vdW  Elec       q    Type
REMARK                         _______ _______ _______ _____ _____    ______ ____
ROOT
ATOM      1  C   UNL     1       1.935   5.203  20.506  0.00  0.00    +0.000 A 
ATOM      2  C   UNL     1       1.508   4.041  21.156  0.00  0.00    +0.000 A 
ATOM      3  C   UNL     1       1.776   2.757  20.640  0.00  0.00    +0.000 A 
ATOM      4  C   UNL     1       2.462   2.689  19.422  0.00  0.00    +0.000 A 
ATOM      5  N   UNL     1       2.845   1.647  18.616  0.00  0.00    +0.000 N 
ATOM      6  N   UNL     1       3.511   2.025  17.495  0.00  0.00    +0.000 NA
ATOM      7  C   UNL     1       3.553   3.359  17.592  0.00  0.00    +0.000 A 
ATOM      8  C   UNL     1       2.922   3.824  18.775  0.00  0.00    +0.000 A 
ATOM      9  C   UNL     1       2.700   5.089  19.344  0.00  0.00    +0.000 A 
ATOM     10  H   UNL     1       2.684   0.659  18.767  0.00  0.00    +0.000 HD
ENDROOT
BRANCH   1  13
ATOM     11  O   UNL     1       2.146   7.736  18.997  0.00  0.00    +0.000 OA
ATOM     12  C   UNL     1       1.761   7.674  20.163  0.00  0.00    +0.000 C 
ATOM     13  N   UNL     1       1.623   6.521  20.915  0.00  0.00    +0.000 N 
ATOM     14  H   UNL     1       1.465   6.646  21.908  0.00  0.00    +0.000 HD
BRANCH  12  15
ATOM     15  C   UNL     1       1.412   8.937  20.943  0.00  0.00    +0.000 C 
BRANCH  15  16
ATOM     16  C   UNL     1       0.642   9.971  20.151  0.00  0.00    +0.000 A 
ATOM     17  C   UNL     1       1.189  11.236  19.893  0.00  0.00    +0.000 A 
ATOM     18  C   UNL     1       0.498  12.167  19.110  0.00  0.00    +0.000 A 
ATOM     19  C   UNL     1      -0.744  11.844  18.568  0.00  0.00    +0.000 A 
ATOM     20  C   UNL     1      -1.291  10.585  18.806  0.00  0.00    +0.000 A 
ATOM     21  C   UNL     1      -0.603   9.653  19.589  0.00  0.00    +0.000 A 
ENDBRANCH  15  16
ENDBRANCH  12  15
ENDBRANCH   1  13
BRANCH   7  22
ATOM     22  C   UNL     1       4.252   4.255  16.627  0.00  0.00    +0.000 C 
BRANCH  22  23
ATOM     23  C   UNL     1       5.748   4.064  16.416  0.00  0.00    +0.000 C 
BRANCH  23  24
ATOM     24  C   UNL     1       6.462   5.131  17.230  0.00  0.00    +0.000 A 
ATOM     25  C   UNL     1       6.686   6.403  16.686  0.00  0.00    +0.000 A 
ATOM     26  C   UNL     1       7.463   7.339  17.371  0.00  0.00    +0.000 A 
ATOM     27  C   UNL     1       8.025   7.014  18.604  0.00  0.00    +0.000 A 
ATOM     28  C   UNL     1       7.809   5.753  19.157  0.00  0.00    +0.000 A 
ATOM     29  C   UNL     1       7.031   4.815  18.474  0.00  0.00    +0.000 A 
ENDBRANCH  23  24
ENDBRANCH  22  23
ENDBRANCH   7  22
TORSDOF 6
ENDMDL
