MODEL 1
REMARK VINA RESULT:      -6.0      0.000      0.000
REMARK  Name = 
REMARK  6 active torsions:
REMARK  status: ('A' for Active; 'I' for Inactive)
REMARK    1  A    between atoms: C_1  and  C_2
REMARK    2  A    between atoms: C_5  and  C_6
REMARK    3  A    between atoms: C_7  and  C_8
REMARK    4  A    between atoms: C_10  and  N_11
REMARK    5  A    between atoms: N_12  and  C_13
REMARK    6  A    between atoms: C_22  and  C_23
REMARK                            x       y       z     vdW  Elec       q    Type
REMARK                         _______ _______ _______ _____ _____    ______ ____
ROOT
ATOM      1  C   UNL     1       0.308  10.711  20.594  0.00  0.00    +0.000 A 
ATOM      2  C   UNL     1       0.785   9.568  21.327  0.00  0.00    +0.000 A 
ATOM      3  C   UNL     1       1.396   8.506  20.730  0.00  0.00    +0.000 A 
ATOM      4  N   UNL     1       1.657   8.571  19.346  0.00  0.00    +0.000 N 
ATOM      5  C   UNL     1       1.263   9.671  18.558  0.00  0.00    +0.000 A 
ATOM      6  O   UNL     1       1.478   9.788  17.356  0.00  0.00    +0.000 OA
ATOM      7  C   UNL     1       0.509  10.734  19.262  0.00  0.00    +0.000 A 
ENDROOT
BRANCH   1  12
ATOM      8  C   UNL     1      -2.508  15.085  23.176  0.00  0.00    +0.000 C 
ATOM      9  C   UNL     1      -1.770  13.953  22.520  0.00  0.00    +0.000 A 
ATOM     10  C   UNL     1      -0.401  14.047  22.250  0.00  0.00    +0.000 A 
ATOM     11  C   UNL     1       0.272  12.997  21.618  0.00  0.00    +0.000 A 
ATOM     12  C   UNL     1      -0.412  11.825  21.265  0.00  0.00    +0.000 A 
ATOM     13  C   UNL     1      -1.781  11.729  21.539  0.00  0.00    +0.000 A 
ATOM     14  C   UNL     1      -2.455  12.787  22.160  0.00  0.00    +0.000 A 
ENDBRANCH   1  12
BRANCH   4  15
ATOM     15  C   UNL     1       2.322   7.505  18.652  0.00  0.00    +0.000 A 
ATOM     16  C   UNL     1       1.742   6.230  18.595  0.00  0.00    +0.000 A 
ATOM     17  C   UNL     1       2.407   5.179  17.957  0.00  0.00    +0.000 A 
ATOM     18  C   UNL     1       3.655   5.398  17.381  0.00  0.00    +0.000 A 
ATOM     19 CL   UNL     1       4.498   4.092  16.645  0.00  0.00    +0.000 Cl
ATOM     20  C   UNL     1       4.233   6.666  17.411  0.00  0.00    +0.000 A 
ATOM     21  C   UNL     1       3.565   7.721  18.039  0.00  0.00    +0.000 A 
ENDBRANCH   4  15
BRANCH   3  22
ATOM     22  N   UNL     1       1.794   7.388  21.460  0.00  0.00    +0.000 N 
ATOM     23  H   UNL     1       1.777   7.456  22.475  0.00  0.00    +0.000 HD
ATOM     24  H   UNL     1       2.650   6.954  21.122  0.00  0.00    +0.000 HD
ENDBRANCH   3  22
BRANCH   2  25
ATOM     25  C   UNL     1       0.576   9.481  22.830  0.00  0.00    +0.000 C 
ATOM     26  N   UNL     1       0.402   9.409  24.077  0.00  0.00    +0.000 NA
ENDBRANCH   2  25
BRANCH   7  27
ATOM     27  C   UNL     1       0.008  11.926  18.465  0.00  0.00    +0.000 C 
ATOM     28  N   UNL     1      -0.408  12.916  17.804  0.00  0.00    +0.000 NA
ENDBRANCH   7  27
TORSDOF 5
ENDMDL
MODEL 2
REMARK VINA RESULT:      -5.9      2.412      4.054
REMARK  Name = 
REMARK  6 active torsions:
REMARK  status: ('A' for Active; 'I' for Inactive)
REMARK    1  A    between atoms: C_1  and  C_2
REMARK    2  A    between atoms: C_5  and  C_6
REMARK    3  A    between atoms: C_7  and  C_8
REMARK    4  A    between atoms: C_10  and  N_11
REMARK    5  A    between atoms: N_12  and  C_13
REMARK    6  A    between atoms: C_22  and  C_23
REMARK                            x       y       z     vdW  Elec       q    Type
REMARK                         _______ _______ _______ _____ _____    ______ ____
ROOT
ATOM      1  C   UNL     1      -1.939  12.210  20.352  0.00  0.00    +0.000 A 
ATOM      2  C   UNL     1      -2.065  11.447  19.137  0.00  0.00    +0.000 A 
ATOM      3  C   UNL     1      -1.115  10.570  18.710  0.00  0.00    +0.000 A 
ATOM      4  N   UNL     1      -0.001  10.328  19.539  0.00  0.00    +0.000 N 
ATOM      5  C   UNL     1       0.182  10.998  20.766  0.00  0.00    +0.000 A 
ATOM      6  O   UNL     1       1.121  10.815  21.533  0.00  0.00    +0.000 OA
ATOM      7  C   UNL     1      -0.839  12.014  21.106  0.00  0.00    +0.000 A 
ENDROOT
BRANCH   1  12
ATOM      8  C   UNL     1      -5.924  16.106  21.986  0.00  0.00    +0.000 C 
ATOM      9  C   UNL     1      -4.904  15.091  21.555  0.00  0.00    +0.000 A 
ATOM     10  C   UNL     1      -5.108  13.725  21.777  0.00  0.00    +0.000 A 
ATOM     11  C   UNL     1      -4.142  12.790  21.392  0.00  0.00    +0.000 A 
ATOM     12  C   UNL     1      -2.963  13.207  20.760  0.00  0.00    +0.000 A 
ATOM     13  C   UNL     1      -2.759  14.574  20.533  0.00  0.00    +0.000 A 
ATOM     14  C   UNL     1      -3.722  15.508  20.931  0.00  0.00    +0.000 A 
ENDBRANCH   1  12
BRANCH   4  15
ATOM     15  C   UNL     1       1.026   9.396  19.171  0.00  0.00    +0.000 A 
ATOM     16  C   UNL     1       1.755   9.580  17.988  0.00  0.00    +0.000 A 
ATOM     17  C   UNL     1       2.728   8.653  17.605  0.00  0.00    +0.000 A 
ATOM     18  C   UNL     1       2.968   7.534  18.398  0.00  0.00    +0.000 A 
ATOM     19 CL   UNL     1       4.124   6.363  17.897  0.00  0.00    +0.000 Cl
ATOM     20  C   UNL     1       2.266   7.350  19.587  0.00  0.00    +0.000 A 
ATOM     21  C   UNL     1       1.302   8.282  19.980  0.00  0.00    +0.000 A 
ENDBRANCH   4  15
BRANCH   3  22
ATOM     22  N   UNL     1      -1.241   9.890  17.500  0.00  0.00    +0.000 N 
ATOM     23  H   UNL     1      -2.176   9.780  17.115  0.00  0.00    +0.000 HD
ATOM     24  H   UNL     1      -0.706   9.026  17.451  0.00  0.00    +0.000 HD
ENDBRANCH   3  22
BRANCH   2  25
ATOM     25  C   UNL     1      -3.278  11.635  18.240  0.00  0.00    +0.000 C 
ATOM     26  N   UNL     1      -4.283  11.790  17.494  0.00  0.00    +0.000 NA
ENDBRANCH   2  25
BRANCH   7  27
ATOM     27  C   UNL     1      -0.679  12.813  22.388  0.00  0.00    +0.000 C 
ATOM     28  N   UNL     1      -0.546  13.475  23.453  0.00  0.00    +0.000 NA
ENDBRANCH   7  27
TORSDOF 5
ENDMDL
MODEL 3
REMARK VINA RESULT:      -5.9      2.573      4.200
REMARK  Name = 
REMARK  6 active torsions:
REMARK  status: ('A' for Active; 'I' for Inactive)
REMARK    1  A    between atoms: C_1  and  C_2
REMARK    2  A    between atoms: C_5  and  C_6
REMARK    3  A    between atoms: C_7  and  C_8
REMARK    4  A    between atoms: C_10  and  N_11
REMARK    5  A    between atoms: N_12  and  C_13
REMARK    6  A    between atoms: C_22  and  C_23
REMARK                            x       y       z     vdW  Elec       q    Type
REMARK                         _______ _______ _______ _____ _____    ______ ____
ROOT
ATOM      1  C   UNL     1      -2.249  12.454  20.669  0.00  0.00    +0.000 A 
ATOM      2  C   UNL     1      -2.438  11.651  19.489  0.00  0.00    +0.000 A 
ATOM      3  C   UNL     1      -1.498  10.782  19.024  0.00  0.00    +0.000 A 
ATOM      4  N   UNL     1      -0.326  10.590  19.783  0.00  0.00    +0.000 N 
ATOM      5  C   UNL     1      -0.076  11.302  20.974  0.00  0.00    +0.000 A 
ATOM      6  O   UNL     1       0.916  11.164  21.681  0.00  0.00    +0.000 OA
ATOM      7  C   UNL     1      -1.097  12.306  21.352  0.00  0.00    +0.000 A 
ENDROOT
BRANCH   1  12
ATOM      8  C   UNL     1      -6.246  16.305  22.379  0.00  0.00    +0.000 C 
ATOM      9  C   UNL     1      -5.201  15.317  21.944  0.00  0.00    +0.000 A 
ATOM     10  C   UNL     1      -4.109  15.719  21.167  0.00  0.00    +0.000 A 
ATOM     11  C   UNL     1      -3.154  14.788  20.748  0.00  0.00    +0.000 A 
ATOM     12  C   UNL     1      -3.266  13.441  21.116  0.00  0.00    +0.000 A 
ATOM     13  C   UNL     1      -4.357  13.038  21.897  0.00  0.00    +0.000 A 
ATOM     14  C   UNL     1      -5.318  13.970  22.305  0.00  0.00    +0.000 A 
ENDBRANCH   1  12
BRANCH   4  15
ATOM     15  C   UNL     1       0.697   9.670  19.373  0.00  0.00    +0.000 A 
ATOM     16  C   UNL     1       1.354   9.846  18.148  0.00  0.00    +0.000 A 
ATOM     17  C   UNL     1       2.321   8.929  17.726  0.00  0.00    +0.000 A 
ATOM     18  C   UNL     1       2.627   7.829  18.524  0.00  0.00    +0.000 A 
ATOM     19 CL   UNL     1       3.774   6.670  17.979  0.00  0.00    +0.000 Cl
ATOM     20  C   UNL     1       1.996   7.654  19.754  0.00  0.00    +0.000 A 
ATOM     21  C   UNL     1       1.038   8.576  20.184  0.00  0.00    +0.000 A 
ENDBRANCH   4  15
BRANCH   3  22
ATOM     22  N   UNL     1      -1.689  10.063  17.846  0.00  0.00    +0.000 N 
ATOM     23  H   UNL     1      -0.865   9.677  17.389  0.00  0.00    +0.000 HD
ATOM     24  H   UNL     1      -2.316  10.511  17.182  0.00  0.00    +0.000 HD
ENDBRANCH   3  22
BRANCH   2  25
ATOM     25  C   UNL     1      -3.712  11.784  18.671  0.00  0.00    +0.000 C 
ATOM     26  N   UNL     1      -4.770  11.895  17.992  0.00  0.00    +0.000 NA
ENDBRANCH   2  25
BRANCH   7  27
ATOM     27  C   UNL     1      -0.870  13.147  22.597  0.00  0.00    +0.000 C 
ATOM     28  N   UNL     1      -0.681  13.845  23.630  0.00  0.00    +0.000 NA
ENDBRANCH   7  27
TORSDOF 5
ENDMDL
MODEL 4
REMARK VINA RESULT:      -5.8      1.110      3.103
REMARK  Name = 
REMARK  6 active torsions:
REMARK  status: ('A' for Active; 'I' for Inactive)
REMARK    1  A    between atoms: C_1  and  C_2
REMARK    2  A    between atoms: C_5  and  C_6
REMARK    3  A    between atoms: C_7  and  C_8
REMARK    4  A    between atoms: C_10  and  N_11
REMARK    5  A    between atoms: N_12  and  C_13
REMARK    6  A    between atoms: C_22  and  C_23
REMARK                            x       y       z     vdW  Elec       q    Type
REMARK                         _______ _______ _______ _____ _____    ______ ____
ROOT
ATOM      1  C   UNL     1       0.180  10.594  20.898  0.00  0.00    +0.000 A 
ATOM      2  C   UNL     1       0.314  10.652  19.466  0.00  0.00    +0.000 A 
ATOM      3  C   UNL     1       0.997   9.717  18.746  0.00  0.00    +0.000 A 
ATOM      4  N   UNL     1       1.514   8.594  19.423  0.00  0.00    +0.000 N 
ATOM      5  C   UNL     1       1.391   8.434  20.818  0.00  0.00    +0.000 A 
ATOM      6  O   UNL     1       1.808   7.472  21.455  0.00  0.00    +0.000 OA
ATOM      7  C   UNL     1       0.732   9.546  21.540  0.00  0.00    +0.000 A 
ENDROOT
BRANCH   1  12
ATOM      8  C   UNL     1      -2.525  14.751  23.920  0.00  0.00    +0.000 C 
ATOM      9  C   UNL     1      -1.838  13.675  23.129  0.00  0.00    +0.000 A 
ATOM     10  C   UNL     1      -2.421  12.413  22.972  0.00  0.00    +0.000 A 
ATOM     11  C   UNL     1      -1.763  11.410  22.253  0.00  0.00    +0.000 A 
ATOM     12  C   UNL     1      -0.517  11.662  21.662  0.00  0.00    +0.000 A 
ATOM     13  C   UNL     1       0.065  12.927  21.815  0.00  0.00    +0.000 A 
ATOM     14  C   UNL     1      -0.590  13.924  22.546  0.00  0.00    +0.000 A 
ENDBRANCH   1  12
BRANCH   4  15
ATOM     15  C   UNL     1       2.219   7.554  18.730  0.00  0.00    +0.000 A 
ATOM     16  C   UNL     1       1.739   6.237  18.758  0.00  0.00    +0.000 A 
ATOM     17  C   UNL     1       2.444   5.213  18.120  0.00  0.00    +0.000 A 
ATOM     18  C   UNL     1       3.636   5.500  17.460  0.00  0.00    +0.000 A 
ATOM     19 CL   UNL     1       4.534   4.232  16.724  0.00  0.00    +0.000 Cl
ATOM     20  C   UNL     1       4.113   6.809  17.406  0.00  0.00    +0.000 A 
ATOM     21  C   UNL     1       3.403   7.837  18.032  0.00  0.00    +0.000 A 
ENDBRANCH   4  15
BRANCH   3  22
ATOM     22  N   UNL     1       1.158   9.833  17.368  0.00  0.00    +0.000 N 
ATOM     23  H   UNL     1       0.811   9.074  16.785  0.00  0.00    +0.000 HD
ATOM     24  H   UNL     1       2.087  10.137  17.082  0.00  0.00    +0.000 HD
ENDBRANCH   3  22
BRANCH   2  25
ATOM     25  C   UNL     1      -0.277  11.816  18.689  0.00  0.00    +0.000 C 
ATOM     26  N   UNL     1      -0.769  12.782  18.044  0.00  0.00    +0.000 NA
ENDBRANCH   2  25
BRANCH   7  27
ATOM     27  C   UNL     1       0.610   9.466  23.052  0.00  0.00    +0.000 C 
ATOM     28  N   UNL     1       0.509   9.400  24.308  0.00  0.00    +0.000 NA
ENDBRANCH   7  27
TORSDOF 5
ENDMDL
MODEL 5
REMARK VINA RESULT:      -5.8      2.520      4.050
REMARK  Name = 
REMARK  6 active torsions:
REMARK  status: ('A' for Active; 'I' for Inactive)
REMARK    1  A    between atoms: C_1  and  C_2
REMARK    2  A    between atoms: C_5  and  C_6
REMARK    3  A    between atoms: C_7  and  C_8
REMARK    4  A    between atoms: C_10  and  N_11
REMARK    5  A    between atoms: N_12  and  C_13
REMARK    6  A    between atoms: C_22  and  C_23
REMARK                            x       y       z     vdW  Elec       q    Type
REMARK                         _______ _______ _______ _____ _____    ______ ____
ROOT
ATOM      1  C   UNL     1      -1.620  13.142  20.656  0.00  0.00    +0.000 A 
ATOM      2  C   UNL     1      -2.127  12.103  19.798  0.00  0.00    +0.000 A 
ATOM      3  C   UNL     1      -1.358  11.073  19.346  0.00  0.00    +0.000 A 
ATOM      4  N   UNL     1      -0.032  10.968  19.814  0.00  0.00    +0.000 N 
ATOM      5  C   UNL     1       0.533  11.917  20.690  0.00  0.00    +0.000 A 
ATOM      6  O   UNL     1       1.673  11.866  21.141  0.00  0.00    +0.000 OA
ATOM      7  C   UNL     1      -0.333  13.063  21.048  0.00  0.00    +0.000 A 
ENDROOT
BRANCH   1  12
ATOM      8  C   UNL     1      -4.955  17.608  22.289  0.00  0.00    +0.000 C 
ATOM      9  C   UNL     1      -4.080  16.461  21.869  0.00  0.00    +0.000 A 
ATOM     10  C   UNL     1      -3.179  16.594  20.808  0.00  0.00    +0.000 A 
ATOM     11  C   UNL     1      -2.385  15.515  20.409  0.00  0.00    +0.000 A 
ATOM     12  C   UNL     1      -2.467  14.288  21.082  0.00  0.00    +0.000 A 
ATOM     13  C   UNL     1      -3.365  14.155  22.148  0.00  0.00    +0.000 A 
ATOM     14  C   UNL     1      -4.168  15.233  22.536  0.00  0.00    +0.000 A 
ENDBRANCH   1  12
BRANCH   4  15
ATOM     15  C   UNL     1       0.830   9.896  19.406  0.00  0.00    +0.000 A 
ATOM     16  C   UNL     1       1.406   9.902  18.129  0.00  0.00    +0.000 A 
ATOM     17  C   UNL     1       2.213   8.838  17.712  0.00  0.00    +0.000 A 
ATOM     18  C   UNL     1       2.437   7.763  18.568  0.00  0.00    +0.000 A 
ATOM     19 CL   UNL     1       3.382   6.429  18.035  0.00  0.00    +0.000 Cl
ATOM     20  C   UNL     1       1.888   7.755  19.848  0.00  0.00    +0.000 A 
ATOM     21  C   UNL     1       1.091   8.823  20.272  0.00  0.00    +0.000 A 
ENDBRANCH   4  15
BRANCH   3  22
ATOM     22  N   UNL     1      -1.863  10.116  18.469  0.00  0.00    +0.000 N 
ATOM     23  H   UNL     1      -2.458  10.438  17.709  0.00  0.00    +0.000 HD
ATOM     24  H   UNL     1      -2.246   9.292  18.928  0.00  0.00    +0.000 HD
ENDBRANCH   3  22
BRANCH   2  25
ATOM     25  C   UNL     1      -3.567  12.146  19.314  0.00  0.00    +0.000 C 
ATOM     26  N   UNL     1      -4.762  12.181  18.912  0.00  0.00    +0.000 NA
ENDBRANCH   2  25
BRANCH   7  27
ATOM     27  C   UNL     1       0.227  14.151  21.948  0.00  0.00    +0.000 C 
ATOM     28  N   UNL     1       0.692  15.055  22.695  0.00  0.00    +0.000 NA
ENDBRANCH   7  27
TORSDOF 5
ENDMDL
MODEL 6
REMARK VINA RESULT:      -5.7      2.421      3.888
REMARK  Name = 
REMARK  6 active torsions:
REMARK  status: ('A' for Active; 'I' for Inactive)
REMARK    1  A    between atoms: C_1  and  C_2
REMARK    2  A    between atoms: C_5  and  C_6
REMARK    3  A    between atoms: C_7  and  C_8
REMARK    4  A    between atoms: C_10  and  N_11
REMARK    5  A    between atoms: N_12  and  C_13
REMARK    6  A    between atoms: C_22  and  C_23
REMARK                            x       y       z     vdW  Elec       q    Type
REMARK                         _______ _______ _______ _____ _____    ______ ____
ROOT
ATOM      1  C   UNL     1      -1.954  12.206  20.340  0.00  0.00    +0.000 A 
ATOM      2  C   UNL     1      -2.108  11.449  19.125  0.00  0.00    +0.000 A 
ATOM      3  C   UNL     1      -1.176  10.559  18.682  0.00  0.00    +0.000 A 
ATOM      4  N   UNL     1      -0.055  10.299  19.496  0.00  0.00    +0.000 N 
ATOM      5  C   UNL     1       0.155  10.963  20.721  0.00  0.00    +0.000 A 
ATOM      6  O   UNL     1       1.102  10.765  21.476  0.00  0.00    +0.000 OA
ATOM      7  C   UNL     1      -0.848  11.992  21.079  0.00  0.00    +0.000 A 
ENDROOT
BRANCH   1  12
ATOM      8  C   UNL     1      -5.895  16.152  21.961  0.00  0.00    +0.000 C 
ATOM      9  C   UNL     1      -4.865  15.139  21.551  0.00  0.00    +0.000 A 
ATOM     10  C   UNL     1      -3.682  15.531  20.917  0.00  0.00    +0.000 A 
ATOM     11  C   UNL     1      -2.739  14.578  20.518  0.00  0.00    +0.000 A 
ATOM     12  C   UNL     1      -2.959  13.216  20.765  0.00  0.00    +0.000 A 
ATOM     13  C   UNL     1      -4.141  12.823  21.404  0.00  0.00    +0.000 A 
ATOM     14  C   UNL     1      -5.088  13.778  21.790  0.00  0.00    +0.000 A 
ENDBRANCH   1  12
BRANCH   4  15
ATOM     15  C   UNL     1       0.954   9.354  19.111  0.00  0.00    +0.000 A 
ATOM     16  C   UNL     1       1.233   8.249  19.928  0.00  0.00    +0.000 A 
ATOM     17  C   UNL     1       2.244   7.349  19.578  0.00  0.00    +0.000 A 
ATOM     18  C   UNL     1       2.985   7.556  18.417  0.00  0.00    +0.000 A 
ATOM     19 CL   UNL     1       4.266   6.481  18.017  0.00  0.00    +0.000 Cl
ATOM     20  C   UNL     1       2.703   8.638  17.586  0.00  0.00    +0.000 A 
ATOM     21  C   UNL     1       1.684   9.533  17.927  0.00  0.00    +0.000 A 
ENDBRANCH   4  15
BRANCH   3  22
ATOM     22  N   UNL     1      -1.328   9.885  17.473  0.00  0.00    +0.000 N 
ATOM     23  H   UNL     1      -0.485   9.632  16.963  0.00  0.00    +0.000 HD
ATOM     24  H   UNL     1      -2.036  10.285  16.860  0.00  0.00    +0.000 HD
ENDBRANCH   3  22
BRANCH   2  25
ATOM     25  C   UNL     1      -3.330  11.656  18.245  0.00  0.00    +0.000 C 
ATOM     26  N   UNL     1      -4.344  11.829  17.515  0.00  0.00    +0.000 NA
ENDBRANCH   2  25
BRANCH   7  27
ATOM     27  C   UNL     1      -0.658  12.785  22.361  0.00  0.00    +0.000 C 
ATOM     28  N   UNL     1      -0.501  13.443  23.425  0.00  0.00    +0.000 NA
ENDBRANCH   7  27
TORSDOF 5
ENDMDL
MODEL 7
REMARK VINA RESULT:      -5.7      2.503      4.081
REMARK  Name = 
REMARK  6 active torsions:
REMARK  status: ('A' for Active; 'I' for Inactive)
REMARK    1  A    between atoms: C_1  and  C_2
REMARK    2  A    between atoms: C_5  and  C_6
REMARK    3  A    between atoms: C_7  and  C_8
REMARK    4  A    between atoms: C_10  and  N_11
REMARK    5  A    between atoms: N_12  and  C_13
REMARK    6  A    between atoms: C_22  and  C_23
REMARK                            x       y       z     vdW  Elec       q    Type
REMARK                         _______ _______ _______ _____ _____    ______ ____
ROOT
ATOM      1  C   UNL     1      -1.558  13.260  20.770  0.00  0.00    +0.000 A 
ATOM      2  C   UNL     1      -2.126  12.221  19.950  0.00  0.00    +0.000 A 
ATOM      3  C   UNL     1      -1.401  11.166  19.482  0.00  0.00    +0.000 A 
ATOM      4  N   UNL     1      -0.060  11.035  19.896  0.00  0.00    +0.000 N 
ATOM      5  C   UNL     1       0.564  11.982  20.733  0.00  0.00    +0.000 A 
ATOM      6  O   UNL     1       1.720  11.910  21.136  0.00  0.00    +0.000 OA
ATOM      7  C   UNL     1      -0.258  13.154  21.108  0.00  0.00    +0.000 A 
ENDROOT
BRANCH   1  12
ATOM      8  C   UNL     1      -4.652  17.850  22.526  0.00  0.00    +0.000 C 
ATOM      9  C   UNL     1      -3.865  16.655  22.071  0.00  0.00    +0.000 A 
ATOM     10  C   UNL     1      -3.903  15.453  22.785  0.00  0.00    +0.000 A 
ATOM     11  C   UNL     1      -3.149  14.352  22.366  0.00  0.00    +0.000 A 
ATOM     12  C   UNL     1      -2.358  14.432  21.212  0.00  0.00    +0.000 A 
ATOM     13  C   UNL     1      -2.323  15.633  20.494  0.00  0.00    +0.000 A 
ATOM     14  C   UNL     1      -3.068  16.737  20.922  0.00  0.00    +0.000 A 
ENDBRANCH   1  12
BRANCH   4  15
ATOM     15  C   UNL     1       0.758   9.935  19.470  0.00  0.00    +0.000 A 
ATOM     16  C   UNL     1       1.017   8.869  20.343  0.00  0.00    +0.000 A 
ATOM     17  C   UNL     1       1.847   7.817  19.946  0.00  0.00    +0.000 A 
ATOM     18  C   UNL     1       2.428   7.831  18.681  0.00  0.00    +0.000 A 
ATOM     19 CL   UNL     1       3.494   6.566  18.214  0.00  0.00    +0.000 Cl
ATOM     20  C   UNL     1       2.160   8.874  17.795  0.00  0.00    +0.000 A 
ATOM     21  C   UNL     1       1.321   9.922  18.185  0.00  0.00    +0.000 A 
ENDBRANCH   4  15
BRANCH   3  22
ATOM     22  N   UNL     1      -1.966  10.208  18.643  0.00  0.00    +0.000 N 
ATOM     23  H   UNL     1      -1.654  10.185  17.675  0.00  0.00    +0.000 HD
ATOM     24  H   UNL     1      -2.979  10.135  18.717  0.00  0.00    +0.000 HD
ENDBRANCH   3  22
BRANCH   2  25
ATOM     25  C   UNL     1      -3.584  12.292  19.526  0.00  0.00    +0.000 C 
ATOM     26  N   UNL     1      -4.794  12.351  19.175  0.00  0.00    +0.000 NA
ENDBRANCH   2  25
BRANCH   7  27
ATOM     27  C   UNL     1       0.366  14.242  21.966  0.00  0.00    +0.000 C 
ATOM     28  N   UNL     1       0.884  15.145  22.678  0.00  0.00    +0.000 NA
ENDBRANCH   7  27
TORSDOF 5
ENDMDL
MODEL 8
REMARK VINA RESULT:      -5.6      2.558      4.179
REMARK  Name = 
REMARK  6 active torsions:
REMARK  status: ('A' for Active; 'I' for Inactive)
REMARK    1  A    between atoms: C_1  and  C_2
REMARK    2  A    between atoms: C_5  and  C_6
REMARK    3  A    between atoms: C_7  and  C_8
REMARK    4  A    between atoms: C_10  and  N_11
REMARK    5  A    between atoms: N_12  and  C_13
REMARK    6  A    between atoms: C_22  and  C_23
REMARK                            x       y       z     vdW  Elec       q    Type
REMARK                         _______ _______ _______ _____ _____    ______ ____
ROOT
ATOM      1  C   UNL     1      -1.833  13.246  20.863  0.00  0.00    +0.000 A 
ATOM      2  C   UNL     1      -2.339  12.248  19.958  0.00  0.00    +0.000 A 
ATOM      3  C   UNL     1      -1.570  11.240  19.458  0.00  0.00    +0.000 A 
ATOM      4  N   UNL     1      -0.244  11.114  19.921  0.00  0.00    +0.000 N 
ATOM      5  C   UNL     1       0.320  12.021  20.840  0.00  0.00    +0.000 A 
ATOM      6  O   UNL     1       1.460  11.950  21.288  0.00  0.00    +0.000 OA
ATOM      7  C   UNL     1      -0.546  13.149  21.251  0.00  0.00    +0.000 A 
ENDROOT
BRANCH   1  12
ATOM      8  C   UNL     1      -5.172  17.627  22.704  0.00  0.00    +0.000 C 
ATOM      9  C   UNL     1      -4.296  16.503  22.229  0.00  0.00    +0.000 A 
ATOM     10  C   UNL     1      -3.495  16.645  21.091  0.00  0.00    +0.000 A 
ATOM     11  C   UNL     1      -2.700  15.585  20.644  0.00  0.00    +0.000 A 
ATOM     12  C   UNL     1      -2.680  14.370  21.341  0.00  0.00    +0.000 A 
ATOM     13  C   UNL     1      -3.478  14.228  22.483  0.00  0.00    +0.000 A 
ATOM     14  C   UNL     1      -4.282  15.286  22.921  0.00  0.00    +0.000 A 
ENDBRANCH   1  12
BRANCH   4  15
ATOM     15  C   UNL     1       0.618  10.062  19.464  0.00  0.00    +0.000 A 
ATOM     16  C   UNL     1       0.908   8.975  20.300  0.00  0.00    +0.000 A 
ATOM     17  C   UNL     1       1.781   7.969  19.876  0.00  0.00    +0.000 A 
ATOM     18  C   UNL     1       2.373   8.051  18.618  0.00  0.00    +0.000 A 
ATOM     19 CL   UNL     1       3.490   6.844  18.117  0.00  0.00    +0.000 Cl
ATOM     20  C   UNL     1       2.075   9.115  17.768  0.00  0.00    +0.000 A 
ATOM     21  C   UNL     1       1.193  10.116  18.185  0.00  0.00    +0.000 A 
ENDBRANCH   4  15
BRANCH   3  22
ATOM     22  N   UNL     1      -2.075  10.324  18.538  0.00  0.00    +0.000 N 
ATOM     23  H   UNL     1      -1.961   9.334  18.745  0.00  0.00    +0.000 HD
ATOM     24  H   UNL     1      -1.846  10.538  17.570  0.00  0.00    +0.000 HD
ENDBRANCH   3  22
BRANCH   2  25
ATOM     25  C   UNL     1      -3.780  12.312  19.476  0.00  0.00    +0.000 C 
ATOM     26  N   UNL     1      -4.975  12.365  19.077  0.00  0.00    +0.000 NA
ENDBRANCH   2  25
BRANCH   7  27
ATOM     27  C   UNL     1       0.014  14.194  22.200  0.00  0.00    +0.000 C 
ATOM     28  N   UNL     1       0.479  15.062  22.988  0.00  0.00    +0.000 NA
ENDBRANCH   7  27
TORSDOF 5
ENDMDL
MODEL 9
REMARK VINA RESULT:      -5.5      4.001      8.317
REMARK  Name = 
REMARK  6 active torsions:
REMARK  status: ('A' for Active; 'I' for Inactive)
REMARK    1  A    between atoms: C_1  and  C_2
REMARK    2  A    between atoms: C_5  and  C_6
REMARK    3  A    between atoms: C_7  and  C_8
REMARK    4  A    between atoms: C_10  and  N_11
REMARK    5  A    between atoms: N_12  and  C_13
REMARK    6  A    between atoms: C_22  and  C_23
REMARK                            x       y       z     vdW  Elec       q    Type
REMARK                         _______ _______ _______ _____ _____    ______ ____
ROOT
ATOM      1  C   UNL     1      -0.122  10.275  20.152  0.00  0.00    +0.000 A 
ATOM      2  C   UNL     1      -1.211  10.846  19.403  0.00  0.00    +0.000 A 
ATOM      3  C   UNL     1      -2.116  11.707  19.950  0.00  0.00    +0.000 A 
ATOM      4  N   UNL     1      -1.922  12.130  21.280  0.00  0.00    +0.000 N 
ATOM      5  C   UNL     1      -0.858  11.655  22.073  0.00  0.00    +0.000 A 
ATOM      6  O   UNL     1      -0.633  12.000  23.228  0.00  0.00    +0.000 OA
ATOM      7  C   UNL     1       0.016  10.641  21.441  0.00  0.00    +0.000 A 
ENDROOT
BRANCH   1  12
ATOM      8  C   UNL     1       3.559   6.445  17.803  0.00  0.00    +0.000 C 
ATOM      9  C   UNL     1       2.599   7.435  18.397  0.00  0.00    +0.000 A 
ATOM     10  C   UNL     1       2.373   8.674  17.788  0.00  0.00    +0.000 A 
ATOM     11  C   UNL     1       1.494   9.599  18.361  0.00  0.00    +0.000 A 
ATOM     12  C   UNL     1       0.812   9.290  19.546  0.00  0.00    +0.000 A 
ATOM     13  C   UNL     1       1.034   8.048  20.154  0.00  0.00    +0.000 A 
ATOM     14  C   UNL     1       1.923   7.130  19.585  0.00  0.00    +0.000 A 
ENDBRANCH   1  12
BRANCH   4  15
ATOM     15  C   UNL     1      -2.815  13.057  21.915  0.00  0.00    +0.000 A 
ATOM     16  C   UNL     1      -2.582  14.436  21.823  0.00  0.00    +0.000 A 
ATOM     17  C   UNL     1      -3.425  15.341  22.475  0.00  0.00    +0.000 A 
ATOM     18  C   UNL     1      -4.498  14.869  23.227  0.00  0.00    +0.000 A 
ATOM     19 CL   UNL     1      -5.501  15.979  24.076  0.00  0.00    +0.000 Cl
ATOM     20  C   UNL     1      -4.754  13.502  23.308  0.00  0.00    +0.000 A 
ATOM     21  C   UNL     1      -3.920  12.595  22.647  0.00  0.00    +0.000 A 
ENDBRANCH   4  15
BRANCH   3  22
ATOM     22  N   UNL     1      -3.193  12.196  19.214  0.00  0.00    +0.000 N 
ATOM     23  H   UNL     1      -4.059  12.384  19.713  0.00  0.00    +0.000 HD
ATOM     24  H   UNL     1      -3.358  11.703  18.340  0.00  0.00    +0.000 HD
ENDBRANCH   3  22
BRANCH   2  25
ATOM     25  C   UNL     1      -1.424  10.461  17.949  0.00  0.00    +0.000 C 
ATOM     26  N   UNL     1      -1.600  10.142  16.741  0.00  0.00    +0.000 NA
ENDBRANCH   2  25
BRANCH   7  27
ATOM     27  C   UNL     1       1.154  10.046  22.254  0.00  0.00    +0.000 C 
ATOM     28  N   UNL     1       2.098   9.552  22.928  0.00  0.00    +0.000 NA
ENDBRANCH   7  27
TORSDOF 5
ENDMDL
