MODEL 1
REMARK VINA RESULT:      -8.3      0.000      0.000
REMARK  Name = 
REMARK  6 active torsions:
REMARK  status: ('A' for Active; 'I' for Inactive)
REMARK    1  A    between atoms: C_4  and  S_5
REMARK    2  A    between atoms: S_5  and  C_6
REMARK    3  A    between atoms: C_6  and  C_7
REMARK    4  A    between atoms: C_7  and  N_8
REMARK    5  A    between atoms: N_11  and  C_12
REMARK    6  A    between atoms: C_25  and  C_26
REMARK                            x       y       z     vdW  Elec       q    Type
REMARK                         _______ _______ _______ _____ _____    ______ ____
ROOT
ATOM      1  N   UNL     1       4.109   2.927  18.538  0.00  0.00    +0.000 N 
ATOM      2  C   UNL     1       3.958   4.264  18.267  0.00  0.00    +0.000 A 
ATOM      3  N   UNL     1       3.288   5.056  19.063  0.00  0.00    +0.000 NA
ATOM      4  C   UNL     1       3.164   6.404  18.721  0.00  0.00    +0.000 A 
ATOM      5  C   UNL     1       3.762   6.943  17.633  0.00  0.00    +0.000 A 
ATOM      6  C   UNL     1       4.512   6.110  16.780  0.00  0.00    +0.000 A 
ATOM      7  N   UNL     1       5.197   6.301  15.677  0.00  0.00    +0.000 NA
ATOM      8  C   UNL     1       5.621   5.026  15.343  0.00  0.00    +0.000 A 
ATOM      9  N   UNL     1       5.275   4.068  16.222  0.00  0.00    +0.000 NA
ATOM     10  N   UNL     1       4.556   4.790  17.114  0.00  0.00    +0.000 N 
ATOM     11  H   UNL     1       3.989   2.661  19.509  0.00  0.00    +0.000 HD
ATOM     12  H   UNL     1       4.863   2.455  18.044  0.00  0.00    +0.000 HD
ENDROOT
BRANCH   8  13
ATOM     13  C   UNL     1       6.369   4.765  14.075  0.00  0.00    +0.000 A 
ATOM     14  C   UNL     1       6.079   3.749  13.177  0.00  0.00    +0.000 A 
ATOM     15  C   UNL     1       7.052   3.821  12.152  0.00  0.00    +0.000 A 
ATOM     16  C   UNL     1       7.874   4.874  12.479  0.00  0.00    +0.000 A 
ATOM     17  O   UNL     1       7.459   5.465  13.630  0.00  0.00    +0.000 OA
ENDBRANCH   8  13
BRANCH   4  18
ATOM     18  S   UNL     1       2.187   7.528  19.685  0.00  0.00    +0.000 S 
BRANCH  18  19
ATOM     19  C   UNL     1       1.729   8.744  18.414  0.00  0.00    +0.000 C 
BRANCH  19  20
ATOM     20  C   UNL     1       1.315  10.128  18.972  0.00  0.00    +0.000 C 
BRANCH  20  21
ATOM     21  N   UNL     1       0.115  10.001  19.819  0.00  0.00    +0.000 NA
ATOM     22  C   UNL     1       0.231  10.635  21.148  0.00  0.00    +0.000 C 
ATOM     23  C   UNL     1      -0.119  12.133  21.191  0.00  0.00    +0.000 C 
ATOM     24  N   UNL     1      -1.477  12.369  20.696  0.00  0.00    +0.000 N 
ATOM     25  C   UNL     1      -1.714  11.819  19.346  0.00  0.00    +0.000 C 
ATOM     26  C   UNL     1      -1.165  10.371  19.177  0.00  0.00    +0.000 C 
BRANCH  24  27
ATOM     27  C   UNL     1      -2.544  12.531  21.577  0.00  0.00    +0.000 A 
ATOM     28  C   UNL     1      -2.347  12.278  22.948  0.00  0.00    +0.000 A 
ATOM     29  C   UNL     1      -3.395  12.361  23.874  0.00  0.00    +0.000 A 
ATOM     30  C   UNL     1      -4.666  12.712  23.443  0.00  0.00    +0.000 A 
ATOM     31  F   UNL     1      -5.668  12.793  24.328  0.00  0.00    +0.000 F 
ATOM     32  C   UNL     1      -4.911  12.970  22.107  0.00  0.00    +0.000 A 
ATOM     33  C   UNL     1      -3.861  12.869  21.192  0.00  0.00    +0.000 A 
ATOM     34  F   UNL     1      -4.160  13.126  19.909  0.00  0.00    +0.000 F 
ENDBRANCH  24  27
ENDBRANCH  20  21
ENDBRANCH  19  20
ENDBRANCH  18  19
ENDBRANCH   4  18
TORSDOF 6
ENDMDL
MODEL 2
REMARK VINA RESULT:      -8.3      4.180      6.174
REMARK  Name = 
REMARK  6 active torsions:
REMARK  status: ('A' for Active; 'I' for Inactive)
REMARK    1  A    between atoms: C_4  and  S_5
REMARK    2  A    between atoms: S_5  and  C_6
REMARK    3  A    between atoms: C_6  and  C_7
REMARK    4  A    between atoms: C_7  and  N_8
REMARK    5  A    between atoms: N_11  and  C_12
REMARK    6  A    between atoms: C_25  and  C_26
REMARK                            x       y       z     vdW  Elec       q    Type
REMARK                         _______ _______ _______ _____ _____    ______ ____
ROOT
ATOM      1  N   UNL     1       8.465   5.310  20.309  0.00  0.00    +0.000 N 
ATOM      2  C   UNL     1       7.859   5.553  19.101  0.00  0.00    +0.000 A 
ATOM      3  N   UNL     1       7.202   4.623  18.460  0.00  0.00    +0.000 NA
ATOM      4  C   UNL     1       6.621   4.937  17.231  0.00  0.00    +0.000 A 
ATOM      5  C   UNL     1       6.649   6.182  16.702  0.00  0.00    +0.000 A 
ATOM      6  C   UNL     1       7.327   7.204  17.393  0.00  0.00    +0.000 A 
ATOM      7  N   UNL     1       7.543   8.480  17.169  0.00  0.00    +0.000 NA
ATOM      8  C   UNL     1       8.343   8.857  18.234  0.00  0.00    +0.000 A 
ATOM      9  N   UNL     1       8.583   7.885  19.132  0.00  0.00    +0.000 NA
ATOM     10  N   UNL     1       7.936   6.843  18.556  0.00  0.00    +0.000 N 
ATOM     11  H   UNL     1       8.103   4.519  20.827  0.00  0.00    +0.000 HD
ATOM     12  H   UNL     1       8.696   6.130  20.865  0.00  0.00    +0.000 HD
ENDROOT
BRANCH   8  13
ATOM     13  C   UNL     1       8.912  10.237  18.325  0.00  0.00    +0.000 A 
ATOM     14  C   UNL     1       8.431  11.341  17.637  0.00  0.00    +0.000 A 
ATOM     15  C   UNL     1       9.279  12.424  17.962  0.00  0.00    +0.000 A 
ATOM     16  C   UNL     1      10.223  11.926  18.828  0.00  0.00    +0.000 A 
ATOM     17  O   UNL     1       9.999  10.607  19.072  0.00  0.00    +0.000 OA
ENDBRANCH   8  13
BRANCH   4  18
ATOM     18  S   UNL     1       5.801   3.711  16.243  0.00  0.00    +0.000 S 
BRANCH  18  19
ATOM     19  C   UNL     1       4.064   4.178  16.509  0.00  0.00    +0.000 C 
BRANCH  19  20
ATOM     20  C   UNL     1       3.583   4.045  17.975  0.00  0.00    +0.000 C 
BRANCH  20  21
ATOM     21  N   UNL     1       2.398   4.890  18.205  0.00  0.00    +0.000 NA
ATOM     22  C   UNL     1       2.031   5.062  19.625  0.00  0.00    +0.000 C 
ATOM     23  C   UNL     1       2.762   6.202  20.356  0.00  0.00    +0.000 C 
ATOM     24  N   UNL     1       2.548   7.483  19.677  0.00  0.00    +0.000 N 
ATOM     25  C   UNL     1       2.920   7.459  18.248  0.00  0.00    +0.000 C 
ATOM     26  C   UNL     1       2.395   6.194  17.506  0.00  0.00    +0.000 C 
BRANCH  24  27
ATOM     27  C   UNL     1       1.585   8.382  20.129  0.00  0.00    +0.000 A 
ATOM     28  C   UNL     1       0.968   8.160  21.375  0.00  0.00    +0.000 A 
ATOM     29  C   UNL     1      -0.051   8.992  21.856  0.00  0.00    +0.000 A 
ATOM     30  C   UNL     1      -0.467  10.077  21.097  0.00  0.00    +0.000 A 
ATOM     31  F   UNL     1      -1.441  10.873  21.556  0.00  0.00    +0.000 F 
ATOM     32  C   UNL     1       0.107  10.337  19.867  0.00  0.00    +0.000 A 
ATOM     33  C   UNL     1       1.111   9.492  19.393  0.00  0.00    +0.000 A 
ATOM     34  F   UNL     1       1.628   9.792  18.190  0.00  0.00    +0.000 F 
ENDBRANCH  24  27
ENDBRANCH  20  21
ENDBRANCH  19  20
ENDBRANCH  18  19
ENDBRANCH   4  18
TORSDOF 6
ENDMDL
MODEL 3
REMARK VINA RESULT:      -7.9      1.755      2.130
REMARK  Name = 
REMARK  6 active torsions:
REMARK  status: ('A' for Active; 'I' for Inactive)
REMARK    1  A    between atoms: C_4  and  S_5
REMARK    2  A    between atoms: S_5  and  C_6
REMARK    3  A    between atoms: C_6  and  C_7
REMARK    4  A    between atoms: C_7  and  N_8
REMARK    5  A    between atoms: N_11  and  C_12
REMARK    6  A    between atoms: C_25  and  C_26
REMARK                            x       y       z     vdW  Elec       q    Type
REMARK                         _______ _______ _______ _____ _____    ______ ____
ROOT
ATOM      1  N   UNL     1       7.707   5.415  19.157  0.00  0.00    +0.000 N 
ATOM      2  C   UNL     1       6.384   5.293  18.814  0.00  0.00    +0.000 A 
ATOM      3  N   UNL     1       5.431   5.358  19.707  0.00  0.00    +0.000 NA
ATOM      4  C   UNL     1       4.107   5.214  19.289  0.00  0.00    +0.000 A 
ATOM      5  C   UNL     1       3.759   5.076  17.989  0.00  0.00    +0.000 A 
ATOM      6  C   UNL     1       4.770   5.035  17.010  0.00  0.00    +0.000 A 
ATOM      7  N   UNL     1       4.780   4.914  15.703  0.00  0.00    +0.000 NA
ATOM      8  C   UNL     1       6.130   4.884  15.398  0.00  0.00    +0.000 A 
ATOM      9  N   UNL     1       6.950   5.038  16.453  0.00  0.00    +0.000 NA
ATOM     10  N   UNL     1       6.051   5.114  17.463  0.00  0.00    +0.000 N 
ATOM     11  H   UNL     1       7.889   5.886  20.035  0.00  0.00    +0.000 HD
ATOM     12  H   UNL     1       8.345   5.642  18.398  0.00  0.00    +0.000 HD
ENDROOT
BRANCH   8  13
ATOM     13  C   UNL     1       6.604   4.656  13.998  0.00  0.00    +0.000 A 
ATOM     14  C   UNL     1       6.089   3.703  13.132  0.00  0.00    +0.000 A 
ATOM     15  C   UNL     1       6.848   3.784  11.941  0.00  0.00    +0.000 A 
ATOM     16  C   UNL     1       7.776   4.778  12.145  0.00  0.00    +0.000 A 
ATOM     17  O   UNL     1       7.624   5.327  13.379  0.00  0.00    +0.000 OA
ENDBRANCH   8  13
BRANCH   4  18
ATOM     18  S   UNL     1       2.760   5.183  20.444  0.00  0.00    +0.000 S 
BRANCH  18  19
ATOM     19  C   UNL     1       1.801   6.619  19.874  0.00  0.00    +0.000 C 
BRANCH  19  20
ATOM     20  C   UNL     1       1.667   7.754  20.919  0.00  0.00    +0.000 C 
BRANCH  20  21
ATOM     21  N   UNL     1       0.507   8.607  20.603  0.00  0.00    +0.000 NA
ATOM     22  C   UNL     1      -0.452   8.776  21.712  0.00  0.00    +0.000 C 
ATOM     23  C   UNL     1      -0.118   9.907  22.700  0.00  0.00    +0.000 C 
ATOM     24  N   UNL     1      -0.002  11.192  22.006  0.00  0.00    +0.000 N 
ATOM     25  C   UNL     1       0.968  11.172  20.892  0.00  0.00    +0.000 C 
ATOM     26  C   UNL     1       0.822   9.913  19.985  0.00  0.00    +0.000 C 
BRANCH  24  27
ATOM     27  C   UNL     1      -1.061  12.097  21.988  0.00  0.00    +0.000 A 
ATOM     28  C   UNL     1      -1.230  12.978  23.074  0.00  0.00    +0.000 A 
ATOM     29  C   UNL     1      -2.311  13.866  23.144  0.00  0.00    +0.000 A 
ATOM     30  C   UNL     1      -3.244  13.897  22.117  0.00  0.00    +0.000 A 
ATOM     31  F   UNL     1      -4.277  14.746  22.184  0.00  0.00    +0.000 F 
ATOM     32  C   UNL     1      -3.122  13.051  21.030  0.00  0.00    +0.000 A 
ATOM     33  C   UNL     1      -2.048  12.160  20.979  0.00  0.00    +0.000 A 
ATOM     34  F   UNL     1      -1.985  11.362  19.901  0.00  0.00    +0.000 F 
ENDBRANCH  24  27
ENDBRANCH  20  21
ENDBRANCH  19  20
ENDBRANCH  18  19
ENDBRANCH   4  18
TORSDOF 6
ENDMDL
MODEL 4
REMARK VINA RESULT:      -7.8      4.050      6.282
REMARK  Name = 
REMARK  6 active torsions:
REMARK  status: ('A' for Active; 'I' for Inactive)
REMARK    1  A    between atoms: C_4  and  S_5
REMARK    2  A    between atoms: S_5  and  C_6
REMARK    3  A    between atoms: C_6  and  C_7
REMARK    4  A    between atoms: C_7  and  N_8
REMARK    5  A    between atoms: N_11  and  C_12
REMARK    6  A    between atoms: C_25  and  C_26
REMARK                            x       y       z     vdW  Elec       q    Type
REMARK                         _______ _______ _______ _____ _____    ______ ____
ROOT
ATOM      1  N   UNL     1       5.855   5.582  14.666  0.00  0.00    +0.000 N 
ATOM      2  C   UNL     1       5.864   5.137  15.965  0.00  0.00    +0.000 A 
ATOM      3  N   UNL     1       5.310   4.004  16.309  0.00  0.00    +0.000 NA
ATOM      4  C   UNL     1       5.346   3.618  17.650  0.00  0.00    +0.000 A 
ATOM      5  C   UNL     1       5.988   4.334  18.603  0.00  0.00    +0.000 A 
ATOM      6  C   UNL     1       6.616   5.542  18.245  0.00  0.00    +0.000 A 
ATOM      7  N   UNL     1       7.302   6.451  18.898  0.00  0.00    +0.000 NA
ATOM      8  C   UNL     1       7.561   7.408  17.931  0.00  0.00    +0.000 A 
ATOM      9  N   UNL     1       7.114   7.101  16.699  0.00  0.00    +0.000 NA
ATOM     10  N   UNL     1       6.504   5.916  16.940  0.00  0.00    +0.000 N 
ATOM     11  H   UNL     1       5.719   4.867  13.961  0.00  0.00    +0.000 HD
ATOM     12  H   UNL     1       6.538   6.300  14.437  0.00  0.00    +0.000 HD
ENDROOT
BRANCH   8  13
ATOM     13  C   UNL     1       8.251   8.689  18.273  0.00  0.00    +0.000 A 
ATOM     14  C   UNL     1       8.268   9.820  17.471  0.00  0.00    +0.000 A 
ATOM     15  C   UNL     1       9.070  10.778  18.135  0.00  0.00    +0.000 A 
ATOM     16  C   UNL     1       9.491  10.183  19.301  0.00  0.00    +0.000 A 
ATOM     17  O   UNL     1       8.985   8.925  19.405  0.00  0.00    +0.000 OA
ENDBRANCH   8  13
BRANCH   4  18
ATOM     18  S   UNL     1       4.530   2.151  18.224  0.00  0.00    +0.000 S 
BRANCH  18  19
ATOM     19  C   UNL     1       3.409   2.859  19.468  0.00  0.00    +0.000 C 
BRANCH  19  20
ATOM     20  C   UNL     1       1.908   2.578  19.209  0.00  0.00    +0.000 C 
BRANCH  20  21
ATOM     21  N   UNL     1       1.167   3.844  19.066  0.00  0.00    +0.000 NA
ATOM     22  C   UNL     1       1.057   4.636  20.308  0.00  0.00    +0.000 C 
ATOM     23  C   UNL     1       2.244   5.573  20.593  0.00  0.00    +0.000 C 
ATOM     24  N   UNL     1       2.456   6.504  19.482  0.00  0.00    +0.000 N 
ATOM     25  C   UNL     1       2.626   5.833  18.178  0.00  0.00    +0.000 C 
ATOM     26  C   UNL     1       1.579   4.705  17.936  0.00  0.00    +0.000 C 
BRANCH  24  27
ATOM     27  C   UNL     1       1.965   7.807  19.535  0.00  0.00    +0.000 A 
ATOM     28  C   UNL     1       1.404   8.283  20.735  0.00  0.00    +0.000 A 
ATOM     29  C   UNL     1       0.837   9.560  20.833  0.00  0.00    +0.000 A 
ATOM     30  C   UNL     1       0.831  10.395  19.725  0.00  0.00    +0.000 A 
ATOM     31  F   UNL     1       0.290  11.616  19.818  0.00  0.00    +0.000 F 
ATOM     32  C   UNL     1       1.369   9.974  18.523  0.00  0.00    +0.000 A 
ATOM     33  C   UNL     1       1.918   8.694  18.435  0.00  0.00    +0.000 A 
ATOM     34  F   UNL     1       2.421   8.340  17.241  0.00  0.00    +0.000 F 
ENDBRANCH  24  27
ENDBRANCH  20  21
ENDBRANCH  19  20
ENDBRANCH  18  19
ENDBRANCH   4  18
TORSDOF 6
ENDMDL
MODEL 5
REMARK VINA RESULT:      -7.8      4.328      6.254
REMARK  Name = 
REMARK  6 active torsions:
REMARK  status: ('A' for Active; 'I' for Inactive)
REMARK    1  A    between atoms: C_4  and  S_5
REMARK    2  A    between atoms: S_5  and  C_6
REMARK    3  A    between atoms: C_6  and  C_7
REMARK    4  A    between atoms: C_7  and  N_8
REMARK    5  A    between atoms: N_11  and  C_12
REMARK    6  A    between atoms: C_25  and  C_26
REMARK                            x       y       z     vdW  Elec       q    Type
REMARK                         _______ _______ _______ _____ _____    ______ ____
ROOT
ATOM      1  N   UNL     1       8.569   5.230  20.335  0.00  0.00    +0.000 N 
ATOM      2  C   UNL     1       7.966   5.545  19.142  0.00  0.00    +0.000 A 
ATOM      3  N   UNL     1       7.294   4.659  18.455  0.00  0.00    +0.000 NA
ATOM      4  C   UNL     1       6.717   5.045  17.244  0.00  0.00    +0.000 A 
ATOM      5  C   UNL     1       6.765   6.315  16.780  0.00  0.00    +0.000 A 
ATOM      6  C   UNL     1       7.459   7.290  17.522  0.00  0.00    +0.000 A 
ATOM      7  N   UNL     1       7.695   8.571  17.364  0.00  0.00    +0.000 NA
ATOM      8  C   UNL     1       8.501   8.881  18.445  0.00  0.00    +0.000 A 
ATOM      9  N   UNL     1       8.726   7.860  19.292  0.00  0.00    +0.000 NA
ATOM     10  N   UNL     1       8.062   6.860  18.664  0.00  0.00    +0.000 N 
ATOM     11  H   UNL     1       8.194   4.419  20.813  0.00  0.00    +0.000 HD
ATOM     12  H   UNL     1       8.812   6.017  20.932  0.00  0.00    +0.000 HD
ENDROOT
BRANCH   8  13
ATOM     13  C   UNL     1       9.092  10.245  18.606  0.00  0.00    +0.000 A 
ATOM     14  C   UNL     1       9.674  10.983  17.586  0.00  0.00    +0.000 A 
ATOM     15  C   UNL     1      10.150  12.180  18.171  0.00  0.00    +0.000 A 
ATOM     16  C   UNL     1       9.830  12.108  19.506  0.00  0.00    +0.000 A 
ATOM     17  O   UNL     1       9.172  10.949  19.778  0.00  0.00    +0.000 OA
ENDBRANCH   8  13
BRANCH   4  18
ATOM     18  S   UNL     1       5.878   3.885  16.196  0.00  0.00    +0.000 S 
BRANCH  18  19
ATOM     19  C   UNL     1       4.151   4.398  16.448  0.00  0.00    +0.000 C 
BRANCH  19  20
ATOM     20  C   UNL     1       3.698   4.410  17.929  0.00  0.00    +0.000 C 
BRANCH  20  21
ATOM     21  N   UNL     1       2.453   5.186  18.077  0.00  0.00    +0.000 NA
ATOM     22  C   UNL     1       2.036   5.417  19.475  0.00  0.00    +0.000 C 
ATOM     23  C   UNL     1       2.668   6.645  20.152  0.00  0.00    +0.000 C 
ATOM     24  N   UNL     1       2.389   7.865  19.391  0.00  0.00    +0.000 N 
ATOM     25  C   UNL     1       2.803   7.782  17.976  0.00  0.00    +0.000 C 
ATOM     26  C   UNL     1       2.384   6.442  17.300  0.00  0.00    +0.000 C 
BRANCH  24  27
ATOM     27  C   UNL     1       1.356   8.723  19.764  0.00  0.00    +0.000 A 
ATOM     28  C   UNL     1       0.773   9.560  18.793  0.00  0.00    +0.000 A 
ATOM     29  C   UNL     1      -0.225  10.488  19.119  0.00  0.00    +0.000 A 
ATOM     30  C   UNL     1      -0.668  10.589  20.430  0.00  0.00    +0.000 A 
ATOM     31  F   UNL     1      -1.621  11.475  20.741  0.00  0.00    +0.000 F 
ATOM     32  C   UNL     1      -0.126   9.789  21.419  0.00  0.00    +0.000 A 
ATOM     33  C   UNL     1       0.878   8.879  21.085  0.00  0.00    +0.000 A 
ATOM     34  F   UNL     1       1.368   8.134  22.088  0.00  0.00    +0.000 F 
ENDBRANCH  24  27
ENDBRANCH  20  21
ENDBRANCH  19  20
ENDBRANCH  18  19
ENDBRANCH   4  18
TORSDOF 6
ENDMDL
MODEL 6
REMARK VINA RESULT:      -7.8      2.054      2.569
REMARK  Name = 
REMARK  6 active torsions:
REMARK  status: ('A' for Active; 'I' for Inactive)
REMARK    1  A    between atoms: C_4  and  S_5
REMARK    2  A    between atoms: S_5  and  C_6
REMARK    3  A    between atoms: C_6  and  C_7
REMARK    4  A    between atoms: C_7  and  N_8
REMARK    5  A    between atoms: N_11  and  C_12
REMARK    6  A    between atoms: C_25  and  C_26
REMARK                            x       y       z     vdW  Elec       q    Type
REMARK                         _______ _______ _______ _____ _____    ______ ____
ROOT
ATOM      1  N   UNL     1       3.055   3.141  18.559  0.00  0.00    +0.000 N 
ATOM      2  C   UNL     1       3.195   4.488  18.335  0.00  0.00    +0.000 A 
ATOM      3  N   UNL     1       2.628   5.378  19.107  0.00  0.00    +0.000 NA
ATOM      4  C   UNL     1       2.802   6.731  18.812  0.00  0.00    +0.000 A 
ATOM      5  C   UNL     1       3.587   7.167  17.801  0.00  0.00    +0.000 A 
ATOM      6  C   UNL     1       4.230   6.223  16.977  0.00  0.00    +0.000 A 
ATOM      7  N   UNL     1       5.034   6.301  15.942  0.00  0.00    +0.000 NA
ATOM      8  C   UNL     1       5.226   4.976  15.589  0.00  0.00    +0.000 A 
ATOM      9  N   UNL     1       4.622   4.084  16.396  0.00  0.00    +0.000 NA
ATOM     10  N   UNL     1       3.984   4.913  17.256  0.00  0.00    +0.000 N 
ATOM     11  H   UNL     1       2.801   2.880  19.505  0.00  0.00    +0.000 HD
ATOM     12  H   UNL     1       3.742   2.541  18.109  0.00  0.00    +0.000 HD
ENDROOT
BRANCH   8  13
ATOM     13  C   UNL     1       6.016   4.604  14.376  0.00  0.00    +0.000 A 
ATOM     14  C   UNL     1       7.242   5.153  14.028  0.00  0.00    +0.000 A 
ATOM     15  C   UNL     1       7.614   4.568  12.795  0.00  0.00    +0.000 A 
ATOM     16  C   UNL     1       6.603   3.697  12.463  0.00  0.00    +0.000 A 
ATOM     17  O   UNL     1       5.640   3.695  13.423  0.00  0.00    +0.000 OA
ENDBRANCH   8  13
BRANCH   4  18
ATOM     18  S   UNL     1       1.985   8.003  19.742  0.00  0.00    +0.000 S 
BRANCH  18  19
ATOM     19  C   UNL     1       1.658   9.216  18.427  0.00  0.00    +0.000 C 
BRANCH  19  20
ATOM     20  C   UNL     1       1.235  10.615  18.939  0.00  0.00    +0.000 C 
BRANCH  20  21
ATOM     21  N   UNL     1      -0.139  10.573  19.471  0.00  0.00    +0.000 NA
ATOM     22  C   UNL     1      -0.762  11.897  19.669  0.00  0.00    +0.000 C 
ATOM     23  C   UNL     1      -1.455  12.486  18.427  0.00  0.00    +0.000 C 
ATOM     24  N   UNL     1      -2.483  11.575  17.918  0.00  0.00    +0.000 N 
ATOM     25  C   UNL     1      -1.976  10.217  17.635  0.00  0.00    +0.000 C 
ATOM     26  C   UNL     1      -1.069   9.660  18.773  0.00  0.00    +0.000 C 
BRANCH  24  27
ATOM     27  C   UNL     1      -3.828  11.764  18.231  0.00  0.00    +0.000 A 
ATOM     28  C   UNL     1      -4.175  12.248  19.507  0.00  0.00    +0.000 A 
ATOM     29  C   UNL     1      -5.510  12.399  19.903  0.00  0.00    +0.000 A 
ATOM     30  C   UNL     1      -6.529  12.076  19.020  0.00  0.00    +0.000 A 
ATOM     31  F   UNL     1      -7.805  12.220  19.398  0.00  0.00    +0.000 F 
ATOM     32  C   UNL     1      -6.240  11.596  17.755  0.00  0.00    +0.000 A 
ATOM     33  C   UNL     1      -4.905  11.436  17.378  0.00  0.00    +0.000 A 
ATOM     34  F   UNL     1      -4.686  10.963  16.141  0.00  0.00    +0.000 F 
ENDBRANCH  24  27
ENDBRANCH  20  21
ENDBRANCH  19  20
ENDBRANCH  18  19
ENDBRANCH   4  18
TORSDOF 6
ENDMDL
MODEL 7
REMARK VINA RESULT:      -7.8      1.118      1.411
REMARK  Name = 
REMARK  6 active torsions:
REMARK  status: ('A' for Active; 'I' for Inactive)
REMARK    1  A    between atoms: C_4  and  S_5
REMARK    2  A    between atoms: S_5  and  C_6
REMARK    3  A    between atoms: C_6  and  C_7
REMARK    4  A    between atoms: C_7  and  N_8
REMARK    5  A    between atoms: N_11  and  C_12
REMARK    6  A    between atoms: C_25  and  C_26
REMARK                            x       y       z     vdW  Elec       q    Type
REMARK                         _______ _______ _______ _____ _____    ______ ____
ROOT
ATOM      1  N   UNL     1       4.410   2.734  18.645  0.00  0.00    +0.000 N 
ATOM      2  C   UNL     1       4.193   4.048  18.311  0.00  0.00    +0.000 A 
ATOM      3  N   UNL     1       3.562   4.867  19.111  0.00  0.00    +0.000 NA
ATOM      4  C   UNL     1       3.366   6.187  18.702  0.00  0.00    +0.000 A 
ATOM      5  C   UNL     1       3.859   6.677  17.541  0.00  0.00    +0.000 A 
ATOM      6  C   UNL     1       4.567   5.817  16.681  0.00  0.00    +0.000 A 
ATOM      7  N   UNL     1       5.158   5.961  15.517  0.00  0.00    +0.000 NA
ATOM      8  C   UNL     1       5.597   4.681  15.224  0.00  0.00    +0.000 A 
ATOM      9  N   UNL     1       5.353   3.768  16.181  0.00  0.00    +0.000 NA
ATOM     10  N   UNL     1       4.682   4.521  17.085  0.00  0.00    +0.000 N 
ATOM     11  H   UNL     1       4.375   2.524  19.635  0.00  0.00    +0.000 HD
ATOM     12  H   UNL     1       5.139   2.256  18.120  0.00  0.00    +0.000 HD
ENDROOT
BRANCH   8  13
ATOM     13  C   UNL     1       6.253   4.367  13.918  0.00  0.00    +0.000 A 
ATOM     14  C   UNL     1       7.357   5.032  13.404  0.00  0.00    +0.000 A 
ATOM     15  C   UNL     1       7.619   4.463  12.136  0.00  0.00    +0.000 A 
ATOM     16  C   UNL     1       6.670   3.486  11.949  0.00  0.00    +0.000 A 
ATOM     17  O   UNL     1       5.850   3.405  13.031  0.00  0.00    +0.000 OA
ENDBRANCH   8  13
BRANCH   4  18
ATOM     18  S   UNL     1       2.430   7.338  19.675  0.00  0.00    +0.000 S 
BRANCH  18  19
ATOM     19  C   UNL     1       1.684   8.353  18.363  0.00  0.00    +0.000 C 
BRANCH  19  20
ATOM     20  C   UNL     1       1.965   9.870  18.490  0.00  0.00    +0.000 C 
BRANCH  20  21
ATOM     21  N   UNL     1       0.703  10.612  18.663  0.00  0.00    +0.000 NA
ATOM     22  C   UNL     1      -0.232  10.017  19.638  0.00  0.00    +0.000 C 
ATOM     23  C   UNL     1      -0.000  10.429  21.102  0.00  0.00    +0.000 C 
ATOM     24  N   UNL     1      -0.059  11.885  21.253  0.00  0.00    +0.000 N 
ATOM     25  C   UNL     1       0.868  12.606  20.358  0.00  0.00    +0.000 C 
ATOM     26  C   UNL     1       0.841  12.066  18.896  0.00  0.00    +0.000 C 
BRANCH  24  27
ATOM     27  C   UNL     1      -1.218  12.513  21.706  0.00  0.00    +0.000 A 
ATOM     28  C   UNL     1      -1.305  12.906  23.055  0.00  0.00    +0.000 A 
ATOM     29  C   UNL     1      -2.466  13.483  23.584  0.00  0.00    +0.000 A 
ATOM     30  C   UNL     1      -3.566  13.690  22.764  0.00  0.00    +0.000 A 
ATOM     31  F   UNL     1      -4.675  14.243  23.270  0.00  0.00    +0.000 F 
ATOM     32  C   UNL     1      -3.530  13.322  21.432  0.00  0.00    +0.000 A 
ATOM     33  C   UNL     1      -2.372  12.733  20.920  0.00  0.00    +0.000 A 
ATOM     34  F   UNL     1      -2.398  12.393  19.622  0.00  0.00    +0.000 F 
ENDBRANCH  24  27
ENDBRANCH  20  21
ENDBRANCH  19  20
ENDBRANCH  18  19
ENDBRANCH   4  18
TORSDOF 6
ENDMDL
MODEL 8
REMARK VINA RESULT:      -7.8      1.025      1.062
REMARK  Name = 
REMARK  6 active torsions:
REMARK  status: ('A' for Active; 'I' for Inactive)
REMARK    1  A    between atoms: C_4  and  S_5
REMARK    2  A    between atoms: S_5  and  C_6
REMARK    3  A    between atoms: C_6  and  C_7
REMARK    4  A    between atoms: C_7  and  N_8
REMARK    5  A    between atoms: N_11  and  C_12
REMARK    6  A    between atoms: C_25  and  C_26
REMARK                            x       y       z     vdW  Elec       q    Type
REMARK                         _______ _______ _______ _____ _____    ______ ____
ROOT
ATOM      1  N   UNL     1       4.494   3.026  18.907  0.00  0.00    +0.000 N 
ATOM      2  C   UNL     1       4.170   4.312  18.554  0.00  0.00    +0.000 A 
ATOM      3  N   UNL     1       3.417   5.065  19.312  0.00  0.00    +0.000 NA
ATOM      4  C   UNL     1       3.117   6.360  18.886  0.00  0.00    +0.000 A 
ATOM      5  C   UNL     1       3.625   6.897  17.753  0.00  0.00    +0.000 A 
ATOM      6  C   UNL     1       4.463   6.110  16.939  0.00  0.00    +0.000 A 
ATOM      7  N   UNL     1       5.103   6.312  15.811  0.00  0.00    +0.000 NA
ATOM      8  C   UNL     1       5.681   5.081  15.550  0.00  0.00    +0.000 A 
ATOM      9  N   UNL     1       5.473   4.148  16.496  0.00  0.00    +0.000 NA
ATOM     10  N   UNL     1       4.680   4.832  17.356  0.00  0.00    +0.000 N 
ATOM     11  H   UNL     1       4.424   2.813  19.895  0.00  0.00    +0.000 HD
ATOM     12  H   UNL     1       5.296   2.621  18.428  0.00  0.00    +0.000 HD
ENDROOT
BRANCH   8  13
ATOM     13  C   UNL     1       6.439   4.833  14.285  0.00  0.00    +0.000 A 
ATOM     14  C   UNL     1       6.100   3.886  13.330  0.00  0.00    +0.000 A 
ATOM     15  C   UNL     1       7.099   3.942  12.330  0.00  0.00    +0.000 A 
ATOM     16  C   UNL     1       7.984   4.917  12.726  0.00  0.00    +0.000 A 
ATOM     17  O   UNL     1       7.584   5.477  13.899  0.00  0.00    +0.000 OA
ENDBRANCH   8  13
BRANCH   4  18
ATOM     18  S   UNL     1       2.018   7.414  19.798  0.00  0.00    +0.000 S 
BRANCH  18  19
ATOM     19  C   UNL     1       2.214   8.971  18.880  0.00  0.00    +0.000 C 
BRANCH  19  20
ATOM     20  C   UNL     1       0.885   9.591  18.381  0.00  0.00    +0.000 C 
BRANCH  20  21
ATOM     21  N   UNL     1      -0.029   9.824  19.514  0.00  0.00    +0.000 NA
ATOM     22  C   UNL     1       0.537  10.650  20.599  0.00  0.00    +0.000 C 
ATOM     23  C   UNL     1       0.395  12.170  20.406  0.00  0.00    +0.000 C 
ATOM     24  N   UNL     1      -1.011  12.549  20.237  0.00  0.00    +0.000 N 
ATOM     25  C   UNL     1      -1.687  11.821  19.145  0.00  0.00    +0.000 C 
ATOM     26  C   UNL     1      -1.386  10.292  19.157  0.00  0.00    +0.000 C 
BRANCH  24  27
ATOM     27  C   UNL     1      -1.754  13.045  21.307  0.00  0.00    +0.000 A 
ATOM     28  C   UNL     1      -2.124  12.174  22.349  0.00  0.00    +0.000 A 
ATOM     29  C   UNL     1      -2.923  12.597  23.419  0.00  0.00    +0.000 A 
ATOM     30  C   UNL     1      -3.361  13.913  23.470  0.00  0.00    +0.000 A 
ATOM     31  F   UNL     1      -4.125  14.318  24.492  0.00  0.00    +0.000 F 
ATOM     32  C   UNL     1      -3.025  14.807  22.470  0.00  0.00    +0.000 A 
ATOM     33  C   UNL     1      -2.240  14.368  21.402  0.00  0.00    +0.000 A 
ATOM     34  F   UNL     1      -1.950  15.280  20.460  0.00  0.00    +0.000 F 
ENDBRANCH  24  27
ENDBRANCH  20  21
ENDBRANCH  19  20
ENDBRANCH  18  19
ENDBRANCH   4  18
TORSDOF 6
ENDMDL
MODEL 9
REMARK VINA RESULT:      -7.7      2.110      2.800
REMARK  Name = 
REMARK  6 active torsions:
REMARK  status: ('A' for Active; 'I' for Inactive)
REMARK    1  A    between atoms: C_4  and  S_5
REMARK    2  A    between atoms: S_5  and  C_6
REMARK    3  A    between atoms: C_6  and  C_7
REMARK    4  A    between atoms: C_7  and  N_8
REMARK    5  A    between atoms: N_11  and  C_12
REMARK    6  A    between atoms: C_25  and  C_26
REMARK                            x       y       z     vdW  Elec       q    Type
REMARK                         _______ _______ _______ _____ _____    ______ ____
ROOT
ATOM      1  N   UNL     1       7.259   5.483  19.327  0.00  0.00    +0.000 N 
ATOM      2  C   UNL     1       5.995   5.082  18.973  0.00  0.00    +0.000 A 
ATOM      3  N   UNL     1       5.043   4.941  19.858  0.00  0.00    +0.000 NA
ATOM      4  C   UNL     1       3.784   4.518  19.429  0.00  0.00    +0.000 A 
ATOM      5  C   UNL     1       3.484   4.309  18.126  0.00  0.00    +0.000 A 
ATOM      6  C   UNL     1       4.489   4.485  17.155  0.00  0.00    +0.000 A 
ATOM      7  N   UNL     1       4.536   4.369  15.849  0.00  0.00    +0.000 NA
ATOM      8  C   UNL     1       5.864   4.628  15.556  0.00  0.00    +0.000 A 
ATOM      9  N   UNL     1       6.623   4.954  16.617  0.00  0.00    +0.000 NA
ATOM     10  N   UNL     1       5.720   4.836  17.620  0.00  0.00    +0.000 N 
ATOM     11  H   UNL     1       7.328   5.982  20.206  0.00  0.00    +0.000 HD
ATOM     12  H   UNL     1       7.840   5.841  18.573  0.00  0.00    +0.000 HD
ENDROOT
BRANCH   8  13
ATOM     13  C   UNL     1       6.387   4.506  14.160  0.00  0.00    +0.000 A 
ATOM     14  C   UNL     1       5.924   3.604  13.214  0.00  0.00    +0.000 A 
ATOM     15  C   UNL     1       6.719   3.783  12.058  0.00  0.00    +0.000 A 
ATOM     16  C   UNL     1       7.615   4.781  12.359  0.00  0.00    +0.000 A 
ATOM     17  O   UNL     1       7.411   5.241  13.623  0.00  0.00    +0.000 OA
ENDBRANCH   8  13
BRANCH   4  18
ATOM     18  S   UNL     1       2.465   4.199  20.572  0.00  0.00    +0.000 S 
BRANCH  18  19
ATOM     19  C   UNL     1       1.588   5.792  20.519  0.00  0.00    +0.000 C 
BRANCH  19  20
ATOM     20  C   UNL     1       2.200   6.826  19.541  0.00  0.00    +0.000 C 
BRANCH  20  21
ATOM     21  N   UNL     1       2.116   8.182  20.112  0.00  0.00    +0.000 NA
ATOM     22  C   UNL     1       1.795   9.241  19.135  0.00  0.00    +0.000 C 
ATOM     23  C   UNL     1       0.293   9.456  18.873  0.00  0.00    +0.000 C 
ATOM     24  N   UNL     1      -0.418   9.759  20.118  0.00  0.00    +0.000 N 
ATOM     25  C   UNL     1      -0.215   8.746  21.172  0.00  0.00    +0.000 C 
ATOM     26  C   UNL     1       1.277   8.318  21.322  0.00  0.00    +0.000 C 
BRANCH  24  27
ATOM     27  C   UNL     1      -0.726  11.073  20.466  0.00  0.00    +0.000 A 
ATOM     28  C   UNL     1      -0.084  11.659  21.573  0.00  0.00    +0.000 A 
ATOM     29  C   UNL     1      -0.397  12.952  22.011  0.00  0.00    +0.000 A 
ATOM     30  C   UNL     1      -1.359  13.692  21.337  0.00  0.00    +0.000 A 
ATOM     31  F   UNL     1      -1.658  14.928  21.755  0.00  0.00    +0.000 F 
ATOM     32  C   UNL     1      -2.018  13.160  20.244  0.00  0.00    +0.000 A 
ATOM     33  C   UNL     1      -1.707  11.864  19.827  0.00  0.00    +0.000 A 
ATOM     34  F   UNL     1      -2.383  11.401  18.764  0.00  0.00    +0.000 F 
ENDBRANCH  24  27
ENDBRANCH  20  21
ENDBRANCH  19  20
ENDBRANCH  18  19
ENDBRANCH   4  18
TORSDOF 6
ENDMDL
