MODEL 1
REMARK VINA RESULT:      -7.6      0.000      0.000
REMARK  Name = 
REMARK  4 active torsions:
REMARK  status: ('A' for Active; 'I' for Inactive)
REMARK    1  A    between atoms: C_2  and  C_3
REMARK    2  A    between atoms: C_6  and  C_7
REMARK    3  A    between atoms: C_7  and  S_8
REMARK    4  A    between atoms: S_8  and  C_9
REMARK                            x       y       z     vdW  Elec       q    Type
REMARK                         _______ _______ _______ _____ _____    ______ ____
ROOT
ATOM      1  C   UNL     1       3.982   3.726  17.925  0.00  0.00    +0.000 A 
ATOM      2  N   UNL     1       2.791   4.080  18.287  0.00  0.00    +0.000 NA
ATOM      3  C   UNL     1       2.395   3.598  19.504  0.00  0.00    +0.000 A 
ATOM      4  C   UNL     1       3.115   2.822  20.315  0.00  0.00    +0.000 A 
ATOM      5  C   UNL     1       4.454   2.425  19.890  0.00  0.00    +0.000 A 
ATOM      6  O   UNL     1       5.182   1.716  20.571  0.00  0.00    +0.000 OA
ATOM      7  N   UNL     1       4.810   2.926  18.667  0.00  0.00    +0.000 N 
ATOM      8  C   UNL     1       2.434   2.480  21.584  0.00  0.00    +0.000 C 
ATOM      9  C   UNL     1       1.014   3.011  21.343  0.00  0.00    +0.000 C 
ATOM     10  C   UNL     1       1.068   3.920  20.105  0.00  0.00    +0.000 C 
ATOM     11  H   UNL     1       5.725   2.695  18.315  0.00  0.00    +0.000 HD
ENDROOT
BRANCH   1  12
ATOM     12  S   UNL     1       4.725   4.220  16.431  0.00  0.00    +0.000 S 
BRANCH  12  13
ATOM     13  C   UNL     1       6.495   4.075  16.834  0.00  0.00    +0.000 C 
BRANCH  13  17
ATOM     14  C   UNL     1       8.134   7.844  18.258  0.00  0.00    +0.000 A 
ATOM     15  C   UNL     1       7.470   7.782  17.031  0.00  0.00    +0.000 A 
ATOM     16  C   UNL     1       6.945   6.567  16.571  0.00  0.00    +0.000 A 
ATOM     17  C   UNL     1       7.089   5.387  17.321  0.00  0.00    +0.000 A 
ATOM     18  C   UNL     1       7.757   5.461  18.554  0.00  0.00    +0.000 A 
ATOM     19  C   UNL     1       8.275   6.679  19.018  0.00  0.00    +0.000 A 
BRANCH  14  21
ATOM     20  N   UNL     1       9.087  10.099  19.122  0.00  0.00    +0.000 NA
ATOM     21  C   UNL     1       8.662   9.092  18.734  0.00  0.00    +0.000 C 
ENDBRANCH  14  21
ENDBRANCH  13  17
ENDBRANCH  12  13
ENDBRANCH   1  12
TORSDOF 4
ENDMDL
MODEL 2
REMARK VINA RESULT:      -7.4      2.576      4.177
REMARK  Name = 
REMARK  4 active torsions:
REMARK  status: ('A' for Active; 'I' for Inactive)
REMARK    1  A    between atoms: C_2  and  C_3
REMARK    2  A    between atoms: C_6  and  C_7
REMARK    3  A    between atoms: C_7  and  S_8
REMARK    4  A    between atoms: S_8  and  C_9
REMARK                            x       y       z     vdW  Elec       q    Type
REMARK                         _______ _______ _______ _____ _____    ______ ____
ROOT
ATOM      1  C   UNL     1       5.279   4.744  19.320  0.00  0.00    +0.000 A 
ATOM      2  N   UNL     1       4.245   5.417  19.709  0.00  0.00    +0.000 NA
ATOM      3  C   UNL     1       3.126   4.666  19.941  0.00  0.00    +0.000 A 
ATOM      4  C   UNL     1       3.024   3.344  19.804  0.00  0.00    +0.000 A 
ATOM      5  C   UNL     1       4.197   2.598  19.358  0.00  0.00    +0.000 A 
ATOM      6  O   UNL     1       4.193   1.384  19.207  0.00  0.00    +0.000 OA
ATOM      7  N   UNL     1       5.293   3.387  19.135  0.00  0.00    +0.000 N 
ATOM      8  C   UNL     1       1.692   2.802  20.156  0.00  0.00    +0.000 C 
ATOM      9  C   UNL     1       0.861   4.080  20.340  0.00  0.00    +0.000 C 
ATOM     10  C   UNL     1       1.844   5.258  20.422  0.00  0.00    +0.000 C 
ATOM     11  H   UNL     1       6.141   2.935  18.830  0.00  0.00    +0.000 HD
ENDROOT
BRANCH   1  12
ATOM     12  S   UNL     1       6.827   5.461  18.978  0.00  0.00    +0.000 S 
BRANCH  12  13
ATOM     13  C   UNL     1       6.439   6.506  17.538  0.00  0.00    +0.000 C 
BRANCH  13  17
ATOM     14  C   UNL     1       6.002   4.137  13.917  0.00  0.00    +0.000 A 
ATOM     15  C   UNL     1       7.249   4.652  14.277  0.00  0.00    +0.000 A 
ATOM     16  C   UNL     1       7.388   5.418  15.441  0.00  0.00    +0.000 A 
ATOM     17  C   UNL     1       6.281   5.699  16.260  0.00  0.00    +0.000 A 
ATOM     18  C   UNL     1       5.032   5.174  15.889  0.00  0.00    +0.000 A 
ATOM     19  C   UNL     1       4.894   4.399  14.728  0.00  0.00    +0.000 A 
BRANCH  14  21
ATOM     20  N   UNL     1       5.745   2.700  11.770  0.00  0.00    +0.000 NA
ATOM     21  C   UNL     1       5.861   3.342  12.729  0.00  0.00    +0.000 C 
ENDBRANCH  14  21
ENDBRANCH  13  17
ENDBRANCH  12  13
ENDBRANCH   1  12
TORSDOF 4
ENDMDL
MODEL 3
REMARK VINA RESULT:      -7.4      2.592      4.174
REMARK  Name = 
REMARK  4 active torsions:
REMARK  status: ('A' for Active; 'I' for Inactive)
REMARK    1  A    between atoms: C_2  and  C_3
REMARK    2  A    between atoms: C_6  and  C_7
REMARK    3  A    between atoms: C_7  and  S_8
REMARK    4  A    between atoms: S_8  and  C_9
REMARK                            x       y       z     vdW  Elec       q    Type
REMARK                         _______ _______ _______ _____ _____    ______ ____
ROOT
ATOM      1  C   UNL     1       5.225   4.715  19.321  0.00  0.00    +0.000 A 
ATOM      2  N   UNL     1       4.194   5.366  19.754  0.00  0.00    +0.000 NA
ATOM      3  C   UNL     1       3.080   4.601  19.967  0.00  0.00    +0.000 A 
ATOM      4  C   UNL     1       2.981   3.285  19.772  0.00  0.00    +0.000 A 
ATOM      5  C   UNL     1       4.151   2.566  19.277  0.00  0.00    +0.000 A 
ATOM      6  O   UNL     1       4.148   1.359  19.071  0.00  0.00    +0.000 OA
ATOM      7  N   UNL     1       5.241   3.368  19.075  0.00  0.00    +0.000 N 
ATOM      8  C   UNL     1       1.656   2.723  20.117  0.00  0.00    +0.000 C 
ATOM      9  C   UNL     1       0.823   3.987  20.370  0.00  0.00    +0.000 C 
ATOM     10  C   UNL     1       1.802   5.165  20.491  0.00  0.00    +0.000 C 
ATOM     11  H   UNL     1       6.086   2.934  18.739  0.00  0.00    +0.000 HD
ENDROOT
BRANCH   1  12
ATOM     12  S   UNL     1       6.765   5.453  18.990  0.00  0.00    +0.000 S 
BRANCH  12  13
ATOM     13  C   UNL     1       6.387   6.450  17.514  0.00  0.00    +0.000 C 
BRANCH  13  17
ATOM     14  C   UNL     1       6.032   4.086  13.880  0.00  0.00    +0.000 A 
ATOM     15  C   UNL     1       4.917   4.299  14.695  0.00  0.00    +0.000 A 
ATOM     16  C   UNL     1       5.033   5.058  15.867  0.00  0.00    +0.000 A 
ATOM     17  C   UNL     1       6.268   5.604  16.257  0.00  0.00    +0.000 A 
ATOM     18  C   UNL     1       7.381   5.385  15.429  0.00  0.00    +0.000 A 
ATOM     19  C   UNL     1       7.264   4.633  14.250  0.00  0.00    +0.000 A 
BRANCH  14  21
ATOM     20  N   UNL     1       5.813   2.701  11.695  0.00  0.00    +0.000 NA
ATOM     21  C   UNL     1       5.910   3.319  12.672  0.00  0.00    +0.000 C 
ENDBRANCH  14  21
ENDBRANCH  13  17
ENDBRANCH  12  13
ENDBRANCH   1  12
TORSDOF 4
ENDMDL
MODEL 4
REMARK VINA RESULT:      -7.2      2.923      5.936
REMARK  Name = 
REMARK  4 active torsions:
REMARK  status: ('A' for Active; 'I' for Inactive)
REMARK    1  A    between atoms: C_2  and  C_3
REMARK    2  A    between atoms: C_6  and  C_7
REMARK    3  A    between atoms: C_7  and  S_8
REMARK    4  A    between atoms: S_8  and  C_9
REMARK                            x       y       z     vdW  Elec       q    Type
REMARK                         _______ _______ _______ _____ _____    ______ ____
ROOT
ATOM      1  C   UNL     1       4.910   4.016  17.726  0.00  0.00    +0.000 A 
ATOM      2  N   UNL     1       5.736   4.290  18.683  0.00  0.00    +0.000 NA
ATOM      3  C   UNL     1       6.533   5.379  18.457  0.00  0.00    +0.000 A 
ATOM      4  C   UNL     1       6.523   6.149  17.369  0.00  0.00    +0.000 A 
ATOM      5  C   UNL     1       5.590   5.823  16.295  0.00  0.00    +0.000 A 
ATOM      6  O   UNL     1       5.513   6.477  15.263  0.00  0.00    +0.000 OA
ATOM      7  N   UNL     1       4.813   4.727  16.560  0.00  0.00    +0.000 N 
ATOM      8  C   UNL     1       7.481   7.277  17.420  0.00  0.00    +0.000 C 
ATOM      9  C   UNL     1       8.292   6.957  18.683  0.00  0.00    +0.000 C 
ATOM     10  C   UNL     1       7.529   5.869  19.455  0.00  0.00    +0.000 C 
ATOM     11  H   UNL     1       4.142   4.450  15.861  0.00  0.00    +0.000 HD
ENDROOT
BRANCH   1  12
ATOM     12  S   UNL     1       3.778   2.695  17.775  0.00  0.00    +0.000 S 
BRANCH  12  13
ATOM     13  C   UNL     1       2.188   3.565  17.592  0.00  0.00    +0.000 C 
BRANCH  13  17
ATOM     14  C   UNL     1       1.734   6.922  20.319  0.00  0.00    +0.000 A 
ATOM     15  C   UNL     1       2.089   7.139  18.986  0.00  0.00    +0.000 A 
ATOM     16  C   UNL     1       2.238   6.057  18.109  0.00  0.00    +0.000 A 
ATOM     17  C   UNL     1       2.053   4.736  18.551  0.00  0.00    +0.000 A 
ATOM     18  C   UNL     1       1.694   4.529  19.893  0.00  0.00    +0.000 A 
ATOM     19  C   UNL     1       1.536   5.613  20.769  0.00  0.00    +0.000 A 
BRANCH  14  21
ATOM     20  N   UNL     1       1.438   8.928  21.941  0.00  0.00    +0.000 NA
ATOM     21  C   UNL     1       1.569   8.032  21.216  0.00  0.00    +0.000 C 
ENDBRANCH  14  21
ENDBRANCH  13  17
ENDBRANCH  12  13
ENDBRANCH   1  12
TORSDOF 4
ENDMDL
MODEL 5
REMARK VINA RESULT:      -7.2      2.887      5.995
REMARK  Name = 
REMARK  4 active torsions:
REMARK  status: ('A' for Active; 'I' for Inactive)
REMARK    1  A    between atoms: C_2  and  C_3
REMARK    2  A    between atoms: C_6  and  C_7
REMARK    3  A    between atoms: C_7  and  S_8
REMARK    4  A    between atoms: S_8  and  C_9
REMARK                            x       y       z     vdW  Elec       q    Type
REMARK                         _______ _______ _______ _____ _____    ______ ____
ROOT
ATOM      1  C   UNL     1       4.902   3.934  17.783  0.00  0.00    +0.000 A 
ATOM      2  N   UNL     1       5.710   4.247  18.744  0.00  0.00    +0.000 NA
ATOM      3  C   UNL     1       6.512   5.326  18.491  0.00  0.00    +0.000 A 
ATOM      4  C   UNL     1       6.522   6.053  17.373  0.00  0.00    +0.000 A 
ATOM      5  C   UNL     1       5.609   5.683  16.295  0.00  0.00    +0.000 A 
ATOM      6  O   UNL     1       5.552   6.295  15.236  0.00  0.00    +0.000 OA
ATOM      7  N   UNL     1       4.828   4.598  16.588  0.00  0.00    +0.000 N 
ATOM      8  C   UNL     1       7.478   7.182  17.396  0.00  0.00    +0.000 C 
ATOM      9  C   UNL     1       8.265   6.913  18.687  0.00  0.00    +0.000 C 
ATOM     10  C   UNL     1       7.487   5.857  19.486  0.00  0.00    +0.000 C 
ATOM     11  H   UNL     1       4.171   4.292  15.888  0.00  0.00    +0.000 HD
ENDROOT
BRANCH   1  12
ATOM     12  S   UNL     1       3.770   2.615  17.863  0.00  0.00    +0.000 S 
BRANCH  12  13
ATOM     13  C   UNL     1       2.186   3.472  17.596  0.00  0.00    +0.000 C 
BRANCH  13  17
ATOM     14  C   UNL     1       1.727   6.857  20.288  0.00  0.00    +0.000 A 
ATOM     15  C   UNL     1       1.506   5.556  20.746  0.00  0.00    +0.000 A 
ATOM     16  C   UNL     1       1.651   4.467  19.878  0.00  0.00    +0.000 A 
ATOM     17  C   UNL     1       2.002   4.657  18.530  0.00  0.00    +0.000 A 
ATOM     18  C   UNL     1       2.223   5.969  18.081  0.00  0.00    +0.000 A 
ATOM     19  C   UNL     1       2.087   7.059  18.952  0.00  0.00    +0.000 A 
BRANCH  14  21
ATOM     20  N   UNL     1       1.480   8.874  21.904  0.00  0.00    +0.000 NA
ATOM     21  C   UNL     1       1.590   7.973  21.181  0.00  0.00    +0.000 C 
ENDBRANCH  14  21
ENDBRANCH  13  17
ENDBRANCH  12  13
ENDBRANCH   1  12
TORSDOF 4
ENDMDL
MODEL 6
REMARK VINA RESULT:      -7.1      2.770      4.428
REMARK  Name = 
REMARK  4 active torsions:
REMARK  status: ('A' for Active; 'I' for Inactive)
REMARK    1  A    between atoms: C_2  and  C_3
REMARK    2  A    between atoms: C_6  and  C_7
REMARK    3  A    between atoms: C_7  and  S_8
REMARK    4  A    between atoms: S_8  and  C_9
REMARK                            x       y       z     vdW  Elec       q    Type
REMARK                         _______ _______ _______ _____ _____    ______ ____
ROOT
ATOM      1  C   UNL     1       5.387   4.828  19.319  0.00  0.00    +0.000 A 
ATOM      2  N   UNL     1       5.108   3.613  18.973  0.00  0.00    +0.000 NA
ATOM      3  C   UNL     1       3.771   3.338  18.877  0.00  0.00    +0.000 A 
ATOM      4  C   UNL     1       2.774   4.194  19.102  0.00  0.00    +0.000 A 
ATOM      5  C   UNL     1       3.105   5.559  19.498  0.00  0.00    +0.000 A 
ATOM      6  O   UNL     1       2.254   6.409  19.723  0.00  0.00    +0.000 OA
ATOM      7  N   UNL     1       4.451   5.791  19.585  0.00  0.00    +0.000 N 
ATOM      8  C   UNL     1       1.426   3.618  18.890  0.00  0.00    +0.000 C 
ATOM      9  C   UNL     1       1.737   2.128  18.694  0.00  0.00    +0.000 C 
ATOM     10  C   UNL     1       3.251   2.002  18.463  0.00  0.00    +0.000 C 
ATOM     11  H   UNL     1       4.750   6.717  19.849  0.00  0.00    +0.000 HD
ENDROOT
BRANCH   1  12
ATOM     12  S   UNL     1       7.009   5.434  19.495  0.00  0.00    +0.000 S 
BRANCH  12  13
ATOM     13  C   UNL     1       7.152   6.531  18.048  0.00  0.00    +0.000 C 
BRANCH  13  17
ATOM     14  C   UNL     1       5.886   4.537  14.395  0.00  0.00    +0.000 A 
ATOM     15  C   UNL     1       6.986   4.063  15.113  0.00  0.00    +0.000 A 
ATOM     16  C   UNL     1       7.396   4.708  16.287  0.00  0.00    +0.000 A 
ATOM     17  C   UNL     1       6.724   5.849  16.759  0.00  0.00    +0.000 A 
ATOM     18  C   UNL     1       5.617   6.315  16.030  0.00  0.00    +0.000 A 
ATOM     19  C   UNL     1       5.202   5.665  14.859  0.00  0.00    +0.000 A 
BRANCH  14  21
ATOM     20  N   UNL     1       5.116   3.331  12.229  0.00  0.00    +0.000 NA
ATOM     21  C   UNL     1       5.459   3.869  13.198  0.00  0.00    +0.000 C 
ENDBRANCH  14  21
ENDBRANCH  13  17
ENDBRANCH  12  13
ENDBRANCH   1  12
TORSDOF 4
ENDMDL
MODEL 7
REMARK VINA RESULT:      -7.0      2.818      4.383
REMARK  Name = 
REMARK  4 active torsions:
REMARK  status: ('A' for Active; 'I' for Inactive)
REMARK    1  A    between atoms: C_2  and  C_3
REMARK    2  A    between atoms: C_6  and  C_7
REMARK    3  A    between atoms: C_7  and  S_8
REMARK    4  A    between atoms: S_8  and  C_9
REMARK                            x       y       z     vdW  Elec       q    Type
REMARK                         _______ _______ _______ _____ _____    ______ ____
ROOT
ATOM      1  C   UNL     1       4.715   4.807  19.322  0.00  0.00    +0.000 A 
ATOM      2  N   UNL     1       4.398   3.690  18.752  0.00  0.00    +0.000 NA
ATOM      3  C   UNL     1       3.071   3.363  18.830  0.00  0.00    +0.000 A 
ATOM      4  C   UNL     1       2.118   4.081  19.424  0.00  0.00    +0.000 A 
ATOM      5  C   UNL     1       2.493   5.336  20.068  0.00  0.00    +0.000 A 
ATOM      6  O   UNL     1       1.683   6.058  20.635  0.00  0.00    +0.000 OA
ATOM      7  N   UNL     1       3.827   5.624  19.969  0.00  0.00    +0.000 N 
ATOM      8  C   UNL     1       0.765   3.489  19.322  0.00  0.00    +0.000 C 
ATOM      9  C   UNL     1       1.061   2.105  18.726  0.00  0.00    +0.000 C 
ATOM     10  C   UNL     1       2.508   2.129  18.209  0.00  0.00    +0.000 C 
ATOM     11  H   UNL     1       4.153   6.481  20.389  0.00  0.00    +0.000 HD
ENDROOT
BRANCH   1  12
ATOM     12  S   UNL     1       6.330   5.455  19.348  0.00  0.00    +0.000 S 
BRANCH  12  13
ATOM     13  C   UNL     1       6.327   6.513  17.866  0.00  0.00    +0.000 C 
BRANCH  13  17
ATOM     14  C   UNL     1       5.995   4.264  14.158  0.00  0.00    +0.000 A 
ATOM     15  C   UNL     1       5.155   5.354  14.400  0.00  0.00    +0.000 A 
ATOM     16  C   UNL     1       5.260   6.075  15.596  0.00  0.00    +0.000 A 
ATOM     17  C   UNL     1       6.195   5.712  16.581  0.00  0.00    +0.000 A 
ATOM     18  C   UNL     1       7.035   4.615  16.326  0.00  0.00    +0.000 A 
ATOM     19  C   UNL     1       6.936   3.898  15.125  0.00  0.00    +0.000 A 
BRANCH  14  21
ATOM     20  N   UNL     1       5.813   2.937  11.934  0.00  0.00    +0.000 NA
ATOM     21  C   UNL     1       5.895   3.531  12.927  0.00  0.00    +0.000 C 
ENDBRANCH  14  21
ENDBRANCH  13  17
ENDBRANCH  12  13
ENDBRANCH   1  12
TORSDOF 4
ENDMDL
MODEL 8
REMARK VINA RESULT:      -7.0      3.694      7.128
REMARK  Name = 
REMARK  4 active torsions:
REMARK  status: ('A' for Active; 'I' for Inactive)
REMARK    1  A    between atoms: C_2  and  C_3
REMARK    2  A    between atoms: C_6  and  C_7
REMARK    3  A    between atoms: C_7  and  S_8
REMARK    4  A    between atoms: S_8  and  C_9
REMARK                            x       y       z     vdW  Elec       q    Type
REMARK                         _______ _______ _______ _____ _____    ______ ____
ROOT
ATOM      1  C   UNL     1       6.427   5.268  15.848  0.00  0.00    +0.000 A 
ATOM      2  N   UNL     1       5.534   4.502  15.309  0.00  0.00    +0.000 NA
ATOM      3  C   UNL     1       5.801   4.129  14.020  0.00  0.00    +0.000 A 
ATOM      4  C   UNL     1       6.871   4.480  13.306  0.00  0.00    +0.000 A 
ATOM      5  C   UNL     1       7.866   5.350  13.925  0.00  0.00    +0.000 A 
ATOM      6  O   UNL     1       8.877   5.719  13.344  0.00  0.00    +0.000 OA
ATOM      7  N   UNL     1       7.559   5.701  15.212  0.00  0.00    +0.000 N 
ATOM      8  C   UNL     1       6.904   3.898  11.945  0.00  0.00    +0.000 C 
ATOM      9  C   UNL     1       5.511   3.265  11.828  0.00  0.00    +0.000 C 
ATOM     10  C   UNL     1       4.905   3.226  13.241  0.00  0.00    +0.000 C 
ATOM     11  H   UNL     1       8.208   6.297  15.702  0.00  0.00    +0.000 HD
ENDROOT
BRANCH   1  12
ATOM     12  S   UNL     1       6.330   5.865  17.479  0.00  0.00    +0.000 S 
BRANCH  12  13
ATOM     13  C   UNL     1       4.557   6.253  17.626  0.00  0.00    +0.000 C 
BRANCH  13  17
ATOM     14  C   UNL     1       2.519   3.784  20.570  0.00  0.00    +0.000 A 
ATOM     15  C   UNL     1       2.102   5.097  20.340  0.00  0.00    +0.000 A 
ATOM     16  C   UNL     1       2.761   5.892  19.394  0.00  0.00    +0.000 A 
ATOM     17  C   UNL     1       3.860   5.398  18.672  0.00  0.00    +0.000 A 
ATOM     18  C   UNL     1       4.270   4.076  18.910  0.00  0.00    +0.000 A 
ATOM     19  C   UNL     1       3.605   3.276  19.851  0.00  0.00    +0.000 A 
BRANCH  14  21
ATOM     20  N   UNL     1       1.286   2.300  22.308  0.00  0.00    +0.000 NA
ATOM     21  C   UNL     1       1.836   2.964  21.531  0.00  0.00    +0.000 C 
ENDBRANCH  14  21
ENDBRANCH  13  17
ENDBRANCH  12  13
ENDBRANCH   1  12
TORSDOF 4
ENDMDL
MODEL 9
REMARK VINA RESULT:      -6.9      4.703      6.834
REMARK  Name = 
REMARK  4 active torsions:
REMARK  status: ('A' for Active; 'I' for Inactive)
REMARK    1  A    between atoms: C_2  and  C_3
REMARK    2  A    between atoms: C_6  and  C_7
REMARK    3  A    between atoms: C_7  and  S_8
REMARK    4  A    between atoms: S_8  and  C_9
REMARK                            x       y       z     vdW  Elec       q    Type
REMARK                         _______ _______ _______ _____ _____    ______ ____
ROOT
ATOM      1  C   UNL     1       3.902   5.655  18.617  0.00  0.00    +0.000 A 
ATOM      2  N   UNL     1       3.980   5.404  17.350  0.00  0.00    +0.000 NA
ATOM      3  C   UNL     1       5.228   5.056  16.910  0.00  0.00    +0.000 A 
ATOM      4  C   UNL     1       6.327   4.957  17.659  0.00  0.00    +0.000 A 
ATOM      5  C   UNL     1       6.224   5.249  19.086  0.00  0.00    +0.000 A 
ATOM      6  O   UNL     1       7.180   5.182  19.847  0.00  0.00    +0.000 OA
ATOM      7  N   UNL     1       4.960   5.595  19.483  0.00  0.00    +0.000 N 
ATOM      8  C   UNL     1       7.530   4.530  16.911  0.00  0.00    +0.000 C 
ATOM      9  C   UNL     1       7.044   4.585  15.456  0.00  0.00    +0.000 C 
ATOM     10  C   UNL     1       5.512   4.703  15.489  0.00  0.00    +0.000 C 
ATOM     11  H   UNL     1       4.818   5.805  20.459  0.00  0.00    +0.000 HD
ENDROOT
BRANCH   1  12
ATOM     12  S   UNL     1       2.427   6.101  19.425  0.00  0.00    +0.000 S 
BRANCH  12  13
ATOM     13  C   UNL     1       2.176   7.801  18.822  0.00  0.00    +0.000 C 
BRANCH  13  17
ATOM     14  C   UNL     1      -0.002  10.257  21.674  0.00  0.00    +0.000 A 
ATOM     15  C   UNL     1       0.189  10.700  20.364  0.00  0.00    +0.000 A 
ATOM     16  C   UNL     1       0.894   9.910  19.447  0.00  0.00    +0.000 A 
ATOM     17  C   UNL     1       1.436   8.670  19.826  0.00  0.00    +0.000 A 
ATOM     18  C   UNL     1       1.235   8.233  21.145  0.00  0.00    +0.000 A 
ATOM     19  C   UNL     1       0.522   9.020  22.062  0.00  0.00    +0.000 A 
BRANCH  14  21
ATOM     20  N   UNL     1      -1.329  11.712  23.367  0.00  0.00    +0.000 NA
ATOM     21  C   UNL     1      -0.735  11.061  22.612  0.00  0.00    +0.000 C 
ENDBRANCH  14  21
ENDBRANCH  13  17
ENDBRANCH  12  13
ENDBRANCH   1  12
TORSDOF 4
ENDMDL
