MODEL 1
REMARK VINA RESULT:      -7.4      0.000      0.000
REMARK  Name = 
REMARK  3 active torsions:
REMARK  status: ('A' for Active; 'I' for Inactive)
REMARK    1  A    between atoms: C_1  and  C_2
REMARK    2  A    between atoms: C_2  and  N_3
REMARK    3  A    between atoms: C_11  and  C_12
REMARK                            x       y       z     vdW  Elec       q    Type
REMARK                         _______ _______ _______ _____ _____    ______ ____
ROOT
ATOM      1  N   UNL     1       3.581   3.020  20.280  0.00  0.00    +0.000 N 
ATOM      2  C   UNL     1       4.230   4.056  19.644  0.00  0.00    +0.000 C 
ATOM      3  O   UNL     1       3.852   5.222  19.710  0.00  0.00    +0.000 OA
ATOM      4  N   UNL     1       5.302   3.609  18.905  0.00  0.00    +0.000 N 
ATOM      5  C   UNL     1       6.036   4.494  18.103  0.00  0.00    +0.000 A 
ATOM      6  C   UNL     1       6.540   5.672  18.617  0.00  0.00    +0.000 A 
ATOM      7  C   UNL     1       7.225   6.463  17.730  0.00  0.00    +0.000 A 
ATOM      8  N   UNL     1       7.376   6.156  16.431  0.00  0.00    +0.000 NA
ATOM      9  C   UNL     1       6.834   4.992  16.020  0.00  0.00    +0.000 A 
ATOM     10  N   UNL     1       6.213   4.110  16.831  0.00  0.00    +0.000 NA
ATOM     11  H   UNL     1       4.195   2.305  20.646  0.00  0.00    +0.000 HD
ATOM     12  H   UNL     1       5.129   2.726  18.446  0.00  0.00    +0.000 HD
ENDROOT
BRANCH   9  13
ATOM     13  C   UNL     1       6.856   4.705  14.573  0.00  0.00    +0.000 A 
ATOM     14  C   UNL     1       6.022   3.728  14.007  0.00  0.00    +0.000 A 
ATOM     15  C   UNL     1       6.093   3.471  12.648  0.00  0.00    +0.000 A 
ATOM     16  N   UNL     1       6.930   4.111  11.806  0.00  0.00    +0.000 NA
ATOM     17  C   UNL     1       7.733   5.044  12.354  0.00  0.00    +0.000 A 
ATOM     18  C   UNL     1       7.734   5.369  13.702  0.00  0.00    +0.000 A 
ENDBRANCH   9  13
BRANCH   1  20
ATOM     19  C   UNL     1       1.111   3.068  20.228  0.00  0.00    +0.000 C 
ATOM     20  C   UNL     1       2.373   3.318  21.029  0.00  0.00    +0.000 C 
ENDBRANCH   1  20
TORSDOF 2
ENDMDL
MODEL 2
REMARK VINA RESULT:      -7.4      2.537      6.398
REMARK  Name = 
REMARK  3 active torsions:
REMARK  status: ('A' for Active; 'I' for Inactive)
REMARK    1  A    between atoms: C_1  and  C_2
REMARK    2  A    between atoms: C_2  and  N_3
REMARK    3  A    between atoms: C_11  and  C_12
REMARK                            x       y       z     vdW  Elec       q    Type
REMARK                         _______ _______ _______ _____ _____    ______ ____
ROOT
ATOM      1  N   UNL     1       8.550   8.300  18.825  0.00  0.00    +0.000 N 
ATOM      2  C   UNL     1       7.836   7.522  17.939  0.00  0.00    +0.000 C 
ATOM      3  O   UNL     1       7.459   7.931  16.845  0.00  0.00    +0.000 OA
ATOM      4  N   UNL     1       7.570   6.274  18.456  0.00  0.00    +0.000 N 
ATOM      5  C   UNL     1       6.770   5.364  17.752  0.00  0.00    +0.000 A 
ATOM      6  C   UNL     1       7.034   5.054  16.433  0.00  0.00    +0.000 A 
ATOM      7  C   UNL     1       6.171   4.165  15.846  0.00  0.00    +0.000 A 
ATOM      8  N   UNL     1       5.105   3.645  16.478  0.00  0.00    +0.000 NA
ATOM      9  C   UNL     1       4.922   4.020  17.759  0.00  0.00    +0.000 A 
ATOM     10  N   UNL     1       5.758   4.824  18.447  0.00  0.00    +0.000 NA
ATOM     11  H   UNL     1       9.256   7.798  19.346  0.00  0.00    +0.000 HD
ATOM     12  H   UNL     1       7.358   6.289  19.444  0.00  0.00    +0.000 HD
ENDROOT
BRANCH   9  13
ATOM     13  C   UNL     1       3.680   3.582  18.425  0.00  0.00    +0.000 A 
ATOM     14  C   UNL     1       2.424   3.767  17.825  0.00  0.00    +0.000 A 
ATOM     15  C   UNL     1       1.279   3.366  18.495  0.00  0.00    +0.000 A 
ATOM     16  N   UNL     1       1.287   2.795  19.716  0.00  0.00    +0.000 NA
ATOM     17  C   UNL     1       2.493   2.626  20.292  0.00  0.00    +0.000 A 
ATOM     18  C   UNL     1       3.691   2.995  19.699  0.00  0.00    +0.000 A 
ENDBRANCH   9  13
BRANCH   1  20
ATOM     19  C   UNL     1       9.374  10.489  19.621  0.00  0.00    +0.000 C 
ATOM     20  C   UNL     1       8.832   9.677  18.462  0.00  0.00    +0.000 C 
ENDBRANCH   1  20
TORSDOF 2
ENDMDL
MODEL 3
REMARK VINA RESULT:      -7.4      0.073      1.106
REMARK  Name = 
REMARK  3 active torsions:
REMARK  status: ('A' for Active; 'I' for Inactive)
REMARK    1  A    between atoms: C_1  and  C_2
REMARK    2  A    between atoms: C_2  and  N_3
REMARK    3  A    between atoms: C_11  and  C_12
REMARK                            x       y       z     vdW  Elec       q    Type
REMARK                         _______ _______ _______ _____ _____    ______ ____
ROOT
ATOM      1  N   UNL     1       3.524   3.021  20.257  0.00  0.00    +0.000 N 
ATOM      2  C   UNL     1       4.173   4.053  19.615  0.00  0.00    +0.000 C 
ATOM      3  O   UNL     1       3.781   5.215  19.655  0.00  0.00    +0.000 OA
ATOM      4  N   UNL     1       5.263   3.606  18.902  0.00  0.00    +0.000 N 
ATOM      5  C   UNL     1       6.002   4.486  18.099  0.00  0.00    +0.000 A 
ATOM      6  C   UNL     1       6.484   5.676  18.602  0.00  0.00    +0.000 A 
ATOM      7  C   UNL     1       7.176   6.460  17.714  0.00  0.00    +0.000 A 
ATOM      8  N   UNL     1       7.353   6.134  16.423  0.00  0.00    +0.000 NA
ATOM      9  C   UNL     1       6.831   4.957  16.022  0.00  0.00    +0.000 A 
ATOM     10  N   UNL     1       6.205   4.083  16.836  0.00  0.00    +0.000 NA
ATOM     11  H   UNL     1       4.139   2.318  20.645  0.00  0.00    +0.000 HD
ATOM     12  H   UNL     1       5.107   2.713  18.454  0.00  0.00    +0.000 HD
ENDROOT
BRANCH   9  13
ATOM     13  C   UNL     1       6.882   4.648  14.580  0.00  0.00    +0.000 A 
ATOM     14  C   UNL     1       7.768   5.314  13.719  0.00  0.00    +0.000 A 
ATOM     15  C   UNL     1       7.764   5.013  12.367  0.00  0.00    +0.000 A 
ATOM     16  N   UNL     1       6.947   4.101  11.804  0.00  0.00    +0.000 NA
ATOM     17  C   UNL     1       6.093   3.468  12.632  0.00  0.00    +0.000 A 
ATOM     18  C   UNL     1       6.024   3.703  13.997  0.00  0.00    +0.000 A 
ENDBRANCH   9  13
BRANCH   1  20
ATOM     19  C   UNL     1       1.058   2.856  20.243  0.00  0.00    +0.000 C 
ATOM     20  C   UNL     1       2.300   3.318  20.979  0.00  0.00    +0.000 C 
ENDBRANCH   1  20
TORSDOF 2
ENDMDL
MODEL 4
REMARK VINA RESULT:      -7.2      2.747      6.790
REMARK  Name = 
REMARK  3 active torsions:
REMARK  status: ('A' for Active; 'I' for Inactive)
REMARK    1  A    between atoms: C_1  and  C_2
REMARK    2  A    between atoms: C_2  and  N_3
REMARK    3  A    between atoms: C_11  and  C_12
REMARK                            x       y       z     vdW  Elec       q    Type
REMARK                         _______ _______ _______ _____ _____    ______ ____
ROOT
ATOM      1  N   UNL     1       8.319   7.991  18.516  0.00  0.00    +0.000 N 
ATOM      2  C   UNL     1       7.400   7.229  17.827  0.00  0.00    +0.000 C 
ATOM      3  O   UNL     1       6.819   7.629  16.823  0.00  0.00    +0.000 OA
ATOM      4  N   UNL     1       7.192   6.010  18.433  0.00  0.00    +0.000 N 
ATOM      5  C   UNL     1       6.222   5.125  17.944  0.00  0.00    +0.000 A 
ATOM      6  C   UNL     1       6.188   4.769  16.611  0.00  0.00    +0.000 A 
ATOM      7  C   UNL     1       5.181   3.910  16.250  0.00  0.00    +0.000 A 
ATOM      8  N   UNL     1       4.249   3.462  17.108  0.00  0.00    +0.000 NA
ATOM      9  C   UNL     1       4.358   3.879  18.386  0.00  0.00    +0.000 A 
ATOM     10  N   UNL     1       5.355   4.656  18.854  0.00  0.00    +0.000 NA
ATOM     11  H   UNL     1       9.095   7.467  18.895  0.00  0.00    +0.000 HD
ATOM     12  H   UNL     1       7.194   6.061  19.442  0.00  0.00    +0.000 HD
ENDROOT
BRANCH   9  13
ATOM     13  C   UNL     1       3.265   3.523  19.311  0.00  0.00    +0.000 A 
ATOM     14  C   UNL     1       3.523   2.924  20.554  0.00  0.00    +0.000 A 
ATOM     15  C   UNL     1       2.467   2.580  21.382  0.00  0.00    +0.000 A 
ATOM     16  N   UNL     1       1.172   2.787  21.070  0.00  0.00    +0.000 NA
ATOM     17  C   UNL     1       0.927   3.356  19.873  0.00  0.00    +0.000 A 
ATOM     18  C   UNL     1       1.917   3.733  18.979  0.00  0.00    +0.000 A 
ENDBRANCH   9  13
BRANCH   1  20
ATOM     19  C   UNL     1       9.268  10.197  19.098  0.00  0.00    +0.000 C 
ATOM     20  C   UNL     1       8.580   9.342  18.053  0.00  0.00    +0.000 C 
ENDBRANCH   1  20
TORSDOF 2
ENDMDL
MODEL 5
REMARK VINA RESULT:      -7.1      2.886      6.893
REMARK  Name = 
REMARK  3 active torsions:
REMARK  status: ('A' for Active; 'I' for Inactive)
REMARK    1  A    between atoms: C_1  and  C_2
REMARK    2  A    between atoms: C_2  and  N_3
REMARK    3  A    between atoms: C_11  and  C_12
REMARK                            x       y       z     vdW  Elec       q    Type
REMARK                         _______ _______ _______ _____ _____    ______ ____
ROOT
ATOM      1  N   UNL     1       8.920   8.799  18.937  0.00  0.00    +0.000 N 
ATOM      2  C   UNL     1       8.102   7.952  18.221  0.00  0.00    +0.000 C 
ATOM      3  O   UNL     1       7.601   8.260  17.144  0.00  0.00    +0.000 OA
ATOM      4  N   UNL     1       7.890   6.765  18.886  0.00  0.00    +0.000 N 
ATOM      5  C   UNL     1       7.007   5.806  18.372  0.00  0.00    +0.000 A 
ATOM      6  C   UNL     1       7.112   5.365  17.069  0.00  0.00    +0.000 A 
ATOM      7  C   UNL     1       6.180   4.439  16.677  0.00  0.00    +0.000 A 
ATOM      8  N   UNL     1       5.192   4.001  17.476  0.00  0.00    +0.000 NA
ATOM      9  C   UNL     1       5.164   4.502  18.727  0.00  0.00    +0.000 A 
ATOM     10  N   UNL     1       6.081   5.354  19.230  0.00  0.00    +0.000 NA
ATOM     11  H   UNL     1       9.679   8.338  19.419  0.00  0.00    +0.000 HD
ATOM     12  H   UNL     1       7.796   6.880  19.886  0.00  0.00    +0.000 HD
ENDROOT
BRANCH   9  13
ATOM     13  C   UNL     1       4.006   4.153  19.572  0.00  0.00    +0.000 A 
ATOM     14  C   UNL     1       3.766   2.830  19.976  0.00  0.00    +0.000 A 
ATOM     15  C   UNL     1       2.652   2.541  20.747  0.00  0.00    +0.000 A 
ATOM     16  N   UNL     1       1.757   3.465  21.148  0.00  0.00    +0.000 NA
ATOM     17  C   UNL     1       1.986   4.733  20.753  0.00  0.00    +0.000 A 
ATOM     18  C   UNL     1       3.072   5.118  19.981  0.00  0.00    +0.000 A 
ENDBRANCH   9  13
BRANCH   1  20
ATOM     19  C   UNL     1       9.874  11.031  19.402  0.00  0.00    +0.000 C 
ATOM     20  C   UNL     1       9.166  10.130  18.410  0.00  0.00    +0.000 C 
ENDBRANCH   1  20
TORSDOF 2
ENDMDL
MODEL 6
REMARK VINA RESULT:      -7.0      2.864      6.911
REMARK  Name = 
REMARK  3 active torsions:
REMARK  status: ('A' for Active; 'I' for Inactive)
REMARK    1  A    between atoms: C_1  and  C_2
REMARK    2  A    between atoms: C_2  and  N_3
REMARK    3  A    between atoms: C_11  and  C_12
REMARK                            x       y       z     vdW  Elec       q    Type
REMARK                         _______ _______ _______ _____ _____    ______ ____
ROOT
ATOM      1  N   UNL     1       8.908   8.694  18.911  0.00  0.00    +0.000 N 
ATOM      2  C   UNL     1       8.066   7.862  18.205  0.00  0.00    +0.000 C 
ATOM      3  O   UNL     1       7.513   8.199  17.163  0.00  0.00    +0.000 OA
ATOM      4  N   UNL     1       7.895   6.652  18.840  0.00  0.00    +0.000 N 
ATOM      5  C   UNL     1       6.998   5.700  18.336  0.00  0.00    +0.000 A 
ATOM      6  C   UNL     1       7.046   5.303  17.016  0.00  0.00    +0.000 A 
ATOM      7  C   UNL     1       6.105   4.380  16.637  0.00  0.00    +0.000 A 
ATOM      8  N   UNL     1       5.159   3.908  17.465  0.00  0.00    +0.000 NA
ATOM      9  C   UNL     1       5.184   4.368  18.732  0.00  0.00    +0.000 A 
ATOM     10  N   UNL     1       6.115   5.213  19.220  0.00  0.00    +0.000 NA
ATOM     11  H   UNL     1       9.693   8.225  19.342  0.00  0.00    +0.000 HD
ATOM     12  H   UNL     1       7.846   6.733  19.847  0.00  0.00    +0.000 HD
ENDROOT
BRANCH   9  13
ATOM     13  C   UNL     1       4.069   3.980  19.618  0.00  0.00    +0.000 A 
ATOM     14  C   UNL     1       3.027   4.872  19.917  0.00  0.00    +0.000 A 
ATOM     15  C   UNL     1       2.013   4.478  20.774  0.00  0.00    +0.000 A 
ATOM     16  N   UNL     1       1.954   3.265  21.358  0.00  0.00    +0.000 NA
ATOM     17  C   UNL     1       2.959   2.413  21.074  0.00  0.00    +0.000 A 
ATOM     18  C   UNL     1       4.015   2.718  20.229  0.00  0.00    +0.000 A 
ENDBRANCH   9  13
BRANCH   1  20
ATOM     19  C   UNL     1       9.534  11.008  19.508  0.00  0.00    +0.000 C 
ATOM     20  C   UNL     1       9.119  10.043  18.416  0.00  0.00    +0.000 C 
ENDBRANCH   1  20
TORSDOF 2
ENDMDL
MODEL 7
REMARK VINA RESULT:      -6.6      2.081      6.743
REMARK  Name = 
REMARK  3 active torsions:
REMARK  status: ('A' for Active; 'I' for Inactive)
REMARK    1  A    between atoms: C_1  and  C_2
REMARK    2  A    between atoms: C_2  and  N_3
REMARK    3  A    between atoms: C_11  and  C_12
REMARK                            x       y       z     vdW  Elec       q    Type
REMARK                         _______ _______ _______ _____ _____    ______ ____
ROOT
ATOM      1  N   UNL     1       6.838   5.549  13.660  0.00  0.00    +0.000 N 
ATOM      2  C   UNL     1       6.909   5.271  15.009  0.00  0.00    +0.000 C 
ATOM      3  O   UNL     1       7.757   4.528  15.493  0.00  0.00    +0.000 OA
ATOM      4  N   UNL     1       5.896   5.884  15.710  0.00  0.00    +0.000 N 
ATOM      5  C   UNL     1       5.732   5.649  17.082  0.00  0.00    +0.000 A 
ATOM      6  C   UNL     1       6.786   5.789  17.961  0.00  0.00    +0.000 A 
ATOM      7  C   UNL     1       6.507   5.514  19.275  0.00  0.00    +0.000 A 
ATOM      8  N   UNL     1       5.304   5.093  19.701  0.00  0.00    +0.000 NA
ATOM      9  C   UNL     1       4.342   4.972  18.765  0.00  0.00    +0.000 A 
ATOM     10  N   UNL     1       4.496   5.294  17.464  0.00  0.00    +0.000 NA
ATOM     11  H   UNL     1       6.565   6.498  13.444  0.00  0.00    +0.000 HD
ATOM     12  H   UNL     1       5.016   5.894  15.212  0.00  0.00    +0.000 HD
ENDROOT
BRANCH   9  13
ATOM     13  C   UNL     1       3.061   4.370  19.181  0.00  0.00    +0.000 A 
ATOM     14  C   UNL     1       2.542   4.570  20.470  0.00  0.00    +0.000 A 
ATOM     15  C   UNL     1       1.349   3.964  20.831  0.00  0.00    +0.000 A 
ATOM     16  N   UNL     1       0.631   3.174  20.008  0.00  0.00    +0.000 NA
ATOM     17  C   UNL     1       1.135   2.979  18.774  0.00  0.00    +0.000 A 
ATOM     18  C   UNL     1       2.320   3.541  18.324  0.00  0.00    +0.000 A 
ENDBRANCH   9  13
BRANCH   1  20
ATOM     19  C   UNL     1       7.149   3.816  11.927  0.00  0.00    +0.000 C 
ATOM     20  C   UNL     1       7.786   4.902  12.771  0.00  0.00    +0.000 C 
ENDBRANCH   1  20
TORSDOF 2
ENDMDL
MODEL 8
REMARK VINA RESULT:      -6.6      2.071      6.810
REMARK  Name = 
REMARK  3 active torsions:
REMARK  status: ('A' for Active; 'I' for Inactive)
REMARK    1  A    between atoms: C_1  and  C_2
REMARK    2  A    between atoms: C_2  and  N_3
REMARK    3  A    between atoms: C_11  and  C_12
REMARK                            x       y       z     vdW  Elec       q    Type
REMARK                         _______ _______ _______ _____ _____    ______ ____
ROOT
ATOM      1  N   UNL     1       5.660   4.375  13.370  0.00  0.00    +0.000 N 
ATOM      2  C   UNL     1       6.048   4.422  14.691  0.00  0.00    +0.000 C 
ATOM      3  O   UNL     1       7.063   3.874  15.108  0.00  0.00    +0.000 OA
ATOM      4  N   UNL     1       5.140   5.109  15.465  0.00  0.00    +0.000 N 
ATOM      5  C   UNL     1       5.301   5.187  16.856  0.00  0.00    +0.000 A 
ATOM      6  C   UNL     1       6.492   5.601  17.414  0.00  0.00    +0.000 A 
ATOM      7  C   UNL     1       6.533   5.619  18.785  0.00  0.00    +0.000 A 
ATOM      8  N   UNL     1       5.509   5.224  19.559  0.00  0.00    +0.000 NA
ATOM      9  C   UNL     1       4.392   4.822  18.920  0.00  0.00    +0.000 A 
ATOM     10  N   UNL     1       4.227   4.844  17.582  0.00  0.00    +0.000 NA
ATOM     11  H   UNL     1       5.234   5.226  13.029  0.00  0.00    +0.000 HD
ATOM     12  H   UNL     1       4.180   4.941  15.197  0.00  0.00    +0.000 HD
ENDROOT
BRANCH   9  13
ATOM     13  C   UNL     1       3.311   4.244  19.742  0.00  0.00    +0.000 A 
ATOM     14  C   UNL     1       3.490   3.045  20.450  0.00  0.00    +0.000 A 
ATOM     15  C   UNL     1       2.441   2.521  21.187  0.00  0.00    +0.000 A 
ATOM     16  N   UNL     1       1.226   3.098  21.276  0.00  0.00    +0.000 NA
ATOM     17  C   UNL     1       1.055   4.246  20.590  0.00  0.00    +0.000 A 
ATOM     18  C   UNL     1       2.045   4.844  19.825  0.00  0.00    +0.000 A 
ENDBRANCH   9  13
BRANCH   1  20
ATOM     19  C   UNL     1       5.676   2.533  11.723  0.00  0.00    +0.000 C 
ATOM     20  C   UNL     1       6.469   3.608  12.439  0.00  0.00    +0.000 C 
ENDBRANCH   1  20
TORSDOF 2
ENDMDL
MODEL 9
REMARK VINA RESULT:      -6.6      2.004      6.715
REMARK  Name = 
REMARK  3 active torsions:
REMARK  status: ('A' for Active; 'I' for Inactive)
REMARK    1  A    between atoms: C_1  and  C_2
REMARK    2  A    between atoms: C_2  and  N_3
REMARK    3  A    between atoms: C_11  and  C_12
REMARK                            x       y       z     vdW  Elec       q    Type
REMARK                         _______ _______ _______ _____ _____    ______ ____
ROOT
ATOM      1  N   UNL     1       6.761   5.511  13.699  0.00  0.00    +0.000 N 
ATOM      2  C   UNL     1       6.949   5.242  15.037  0.00  0.00    +0.000 C 
ATOM      3  O   UNL     1       7.862   4.535  15.454  0.00  0.00    +0.000 OA
ATOM      4  N   UNL     1       5.972   5.819  15.816  0.00  0.00    +0.000 N 
ATOM      5  C   UNL     1       5.926   5.584  17.197  0.00  0.00    +0.000 A 
ATOM      6  C   UNL     1       7.041   5.770  17.989  0.00  0.00    +0.000 A 
ATOM      7  C   UNL     1       6.877   5.490  19.322  0.00  0.00    +0.000 A 
ATOM      8  N   UNL     1       5.730   5.025  19.843  0.00  0.00    +0.000 NA
ATOM      9  C   UNL     1       4.702   4.861  18.986  0.00  0.00    +0.000 A 
ATOM     10  N   UNL     1       4.740   5.183  17.677  0.00  0.00    +0.000 NA
ATOM     11  H   UNL     1       6.434   6.448  13.503  0.00  0.00    +0.000 HD
ATOM     12  H   UNL     1       5.055   5.793  15.390  0.00  0.00    +0.000 HD
ENDROOT
BRANCH   9  13
ATOM     13  C   UNL     1       3.482   4.212  19.504  0.00  0.00    +0.000 A 
ATOM     14  C   UNL     1       3.135   2.903  19.133  0.00  0.00    +0.000 A 
ATOM     15  C   UNL     1       1.967   2.340  19.621  0.00  0.00    +0.000 A 
ATOM     16  N   UNL     1       1.117   2.978  20.449  0.00  0.00    +0.000 NA
ATOM     17  C   UNL     1       1.449   4.236  20.798  0.00  0.00    +0.000 A 
ATOM     18  C   UNL     1       2.595   4.882  20.361  0.00  0.00    +0.000 A 
ENDBRANCH   9  13
BRANCH   1  20
ATOM     19  C   UNL     1       7.007   3.770  11.962  0.00  0.00    +0.000 C 
ATOM     20  C   UNL     1       7.660   4.897  12.737  0.00  0.00    +0.000 C 
ENDBRANCH   1  20
TORSDOF 2
ENDMDL
