MODEL 1
REMARK VINA RESULT:      -7.1      0.000      0.000
REMARK  Name = 
REMARK  8 active torsions:
REMARK  status: ('A' for Active; 'I' for Inactive)
REMARK    1  A    between atoms: C_1  and  C_2
REMARK    2  A    between atoms: C_2  and  O_3
REMARK    3  A    between atoms: O_3  and  C_4
REMARK    4  A    between atoms: C_4  and  C_6
REMARK    5  A    between atoms: C_8  and  N_9
REMARK    6  A    between atoms: N_9  and  C_10
REMARK    7  A    between atoms: C_10  and  C_11
REMARK    8  A    between atoms: C_18  and  N_19
REMARK                            x       y       z     vdW  Elec       q    Type
REMARK                         _______ _______ _______ _____ _____    ______ ____
ROOT
ATOM      1  C   UNL     1       3.809   4.813  19.318  0.00  0.00    +0.000 A 
ATOM      2  C   UNL     1       2.938   5.573  20.144  0.00  0.00    +0.000 A 
ATOM      3  C   UNL     1       2.446   6.825  19.754  0.00  0.00    +0.000 A 
ATOM      4  C   UNL     1       2.931   7.348  18.561  0.00  0.00    +0.000 A 
ATOM      5  C   UNL     1       3.817   6.621  17.758  0.00  0.00    +0.000 A 
ATOM      6  C   UNL     1       4.276   5.329  18.088  0.00  0.00    +0.000 A 
ENDROOT
BRANCH   6   7
ATOM      7  N   UNL     1       5.164   4.727  17.218  0.00  0.00    +0.000 N 
ATOM      8  C   UNL     1       6.627   4.736  17.369  0.00  0.00    +0.000 C 
ATOM      9  C   UNL     1       7.281   5.082  16.013  0.00  0.00    +0.000 C 
ATOM     10  O   UNL     1       6.819   4.241  14.941  0.00  0.00    +0.000 OA
ATOM     11  C   UNL     1       5.390   4.324  14.817  0.00  0.00    +0.000 C 
ATOM     12  C   UNL     1       4.706   3.865  16.113  0.00  0.00    +0.000 C 
ENDBRANCH   6   7
BRANCH   1  13
ATOM     13  C   UNL     1       4.058   3.403  19.739  0.00  0.00    +0.000 C 
ATOM     14  O   UNL     1       5.160   2.894  19.847  0.00  0.00    +0.000 OA
BRANCH  13  15
ATOM     15  O   UNL     1       2.877   2.764  19.968  0.00  0.00    +0.000 OA
BRANCH  15  17
ATOM     16  C   UNL     1       0.834   2.487  18.700  0.00  0.00    +0.000 C 
ATOM     17  C   UNL     1       2.296   2.111  18.825  0.00  0.00    +0.000 C 
ENDBRANCH  15  17
ENDBRANCH  13  15
ENDBRANCH   1  13
BRANCH   3  18
ATOM     18  N   UNL     1       1.602   7.548  20.613  0.00  0.00    +0.000 N 
ATOM     19  H   UNL     1       0.844   6.972  20.972  0.00  0.00    +0.000 HD
BRANCH  18  20
ATOM     20  C   UNL     1       1.095   8.834  20.127  0.00  0.00    +0.000 C 
BRANCH  20  21
ATOM     21  C   UNL     1       0.356   9.610  21.178  0.00  0.00    +0.000 A 
ATOM     22  C   UNL     1      -0.265   9.119  22.310  0.00  0.00    +0.000 A 
ATOM     23  C   UNL     1      -0.838  10.152  23.105  0.00  0.00    +0.000 A 
ATOM     24  C   UNL     1      -0.638  11.397  22.552  0.00  0.00    +0.000 A 
ATOM     25  S   UNL     1       0.231  11.315  21.081  0.00  0.00    +0.000 S 
ENDBRANCH  20  21
ENDBRANCH  18  20
ENDBRANCH   3  18
TORSDOF 7
ENDMDL
MODEL 2
REMARK VINA RESULT:      -7.0      0.855      1.321
REMARK  Name = 
REMARK  8 active torsions:
REMARK  status: ('A' for Active; 'I' for Inactive)
REMARK    1  A    between atoms: C_1  and  C_2
REMARK    2  A    between atoms: C_2  and  O_3
REMARK    3  A    between atoms: O_3  and  C_4
REMARK    4  A    between atoms: C_4  and  C_6
REMARK    5  A    between atoms: C_8  and  N_9
REMARK    6  A    between atoms: N_9  and  C_10
REMARK    7  A    between atoms: C_10  and  C_11
REMARK    8  A    between atoms: C_18  and  N_19
REMARK                            x       y       z     vdW  Elec       q    Type
REMARK                         _______ _______ _______ _____ _____    ______ ____
ROOT
ATOM      1  C   UNL     1       3.895   5.524  18.689  0.00  0.00    +0.000 A 
ATOM      2  C   UNL     1       2.903   6.077  19.544  0.00  0.00    +0.000 A 
ATOM      3  C   UNL     1       2.340   7.338  19.312  0.00  0.00    +0.000 A 
ATOM      4  C   UNL     1       2.869   8.080  18.262  0.00  0.00    +0.000 A 
ATOM      5  C   UNL     1       3.871   7.557  17.438  0.00  0.00    +0.000 A 
ATOM      6  C   UNL     1       4.409   6.265  17.602  0.00  0.00    +0.000 A 
ENDROOT
BRANCH   6   7
ATOM      7  N   UNL     1       5.408   5.875  16.730  0.00  0.00    +0.000 N 
ATOM      8  C   UNL     1       5.195   5.481  15.329  0.00  0.00    +0.000 C 
ATOM      9  C   UNL     1       5.985   4.188  15.033  0.00  0.00    +0.000 C 
ATOM     10  O   UNL     1       7.374   4.289  15.396  0.00  0.00    +0.000 OA
ATOM     11  C   UNL     1       7.506   4.621  16.788  0.00  0.00    +0.000 C 
ATOM     12  C   UNL     1       6.835   5.969  17.089  0.00  0.00    +0.000 C 
ENDBRANCH   6   7
BRANCH   1  13
ATOM     13  C   UNL     1       4.227   4.086  18.906  0.00  0.00    +0.000 C 
ATOM     14  O   UNL     1       5.211   3.682  19.503  0.00  0.00    +0.000 OA
BRANCH  13  15
ATOM     15  O   UNL     1       3.284   3.291  18.328  0.00  0.00    +0.000 OA
BRANCH  15  17
ATOM     16  C   UNL     1       1.127   2.405  18.978  0.00  0.00    +0.000 C 
ATOM     17  C   UNL     1       2.623   2.371  19.215  0.00  0.00    +0.000 C 
ENDBRANCH  15  17
ENDBRANCH  13  15
ENDBRANCH   1  13
BRANCH   3  18
ATOM     18  N   UNL     1       1.376   7.851  20.195  0.00  0.00    +0.000 N 
ATOM     19  H   UNL     1       0.577   7.229  20.287  0.00  0.00    +0.000 HD
BRANCH  18  20
ATOM     20  C   UNL     1       0.938   9.234  19.979  0.00  0.00    +0.000 C 
BRANCH  20  21
ATOM     21  C   UNL     1       0.211   9.811  21.159  0.00  0.00    +0.000 A 
ATOM     22  C   UNL     1      -0.261   9.142  22.271  0.00  0.00    +0.000 A 
ATOM     23  C   UNL     1      -0.871  10.018  23.212  0.00  0.00    +0.000 A 
ATOM     24  C   UNL     1      -0.847  11.327  22.786  0.00  0.00    +0.000 A 
ATOM     25  S   UNL     1      -0.097  11.492  21.258  0.00  0.00    +0.000 S 
ENDBRANCH  20  21
ENDBRANCH  18  20
ENDBRANCH   3  18
TORSDOF 7
ENDMDL
MODEL 3
REMARK VINA RESULT:      -7.0      1.452      1.788
REMARK  Name = 
REMARK  8 active torsions:
REMARK  status: ('A' for Active; 'I' for Inactive)
REMARK    1  A    between atoms: C_1  and  C_2
REMARK    2  A    between atoms: C_2  and  O_3
REMARK    3  A    between atoms: O_3  and  C_4
REMARK    4  A    between atoms: C_4  and  C_6
REMARK    5  A    between atoms: C_8  and  N_9
REMARK    6  A    between atoms: N_9  and  C_10
REMARK    7  A    between atoms: C_10  and  C_11
REMARK    8  A    between atoms: C_18  and  N_19
REMARK                            x       y       z     vdW  Elec       q    Type
REMARK                         _______ _______ _______ _____ _____    ______ ____
ROOT
ATOM      1  C   UNL     1       2.885   5.573  18.005  0.00  0.00    +0.000 A 
ATOM      2  C   UNL     1       1.894   6.557  18.270  0.00  0.00    +0.000 A 
ATOM      3  C   UNL     1       2.096   7.913  17.982  0.00  0.00    +0.000 A 
ATOM      4  C   UNL     1       3.355   8.277  17.520  0.00  0.00    +0.000 A 
ATOM      5  C   UNL     1       4.348   7.318  17.290  0.00  0.00    +0.000 A 
ATOM      6  C   UNL     1       4.154   5.939  17.503  0.00  0.00    +0.000 A 
ENDROOT
BRANCH   6   7
ATOM      7  N   UNL     1       5.222   5.098  17.254  0.00  0.00    +0.000 N 
ATOM      8  C   UNL     1       6.131   4.567  18.280  0.00  0.00    +0.000 C 
ATOM      9  C   UNL     1       7.591   4.718  17.802  0.00  0.00    +0.000 C 
ATOM     10  O   UNL     1       7.810   4.157  16.494  0.00  0.00    +0.000 OA
ATOM     11  C   UNL     1       6.927   4.761  15.534  0.00  0.00    +0.000 C 
ATOM     12  C   UNL     1       5.460   4.518  15.920  0.00  0.00    +0.000 C 
ENDBRANCH   6   7
BRANCH   1  13
ATOM     13  C   UNL     1       2.452   4.150  18.127  0.00  0.00    +0.000 C 
ATOM     14  O   UNL     1       2.126   3.440  17.190  0.00  0.00    +0.000 OA
BRANCH  13  15
ATOM     15  O   UNL     1       2.456   3.766  19.433  0.00  0.00    +0.000 OA
BRANCH  15  17
ATOM     16  C   UNL     1       1.340   2.714  21.306  0.00  0.00    +0.000 C 
ATOM     17  C   UNL     1       1.449   2.804  19.798  0.00  0.00    +0.000 C 
ENDBRANCH  15  17
ENDBRANCH  13  15
ENDBRANCH   1  13
BRANCH   3  18
ATOM     18  N   UNL     1       1.094   8.852  18.279  0.00  0.00    +0.000 N 
ATOM     19  H   UNL     1       0.649   9.209  17.438  0.00  0.00    +0.000 HD
BRANCH  18  20
ATOM     20  C   UNL     1       1.451   9.947  19.187  0.00  0.00    +0.000 C 
BRANCH  20  21
ATOM     21  C   UNL     1       0.685   9.914  20.477  0.00  0.00    +0.000 A 
ATOM     22  C   UNL     1       0.366   8.810  21.243  0.00  0.00    +0.000 A 
ATOM     23  C   UNL     1      -0.342   9.158  22.428  0.00  0.00    +0.000 A 
ATOM     24  C   UNL     1      -0.543  10.517  22.525  0.00  0.00    +0.000 A 
ATOM     25  S   UNL     1       0.115  11.361  21.192  0.00  0.00    +0.000 S 
ENDBRANCH  20  21
ENDBRANCH  18  20
ENDBRANCH   3  18
TORSDOF 7
ENDMDL
MODEL 4
REMARK VINA RESULT:      -7.0      4.190      7.748
REMARK  Name = 
REMARK  8 active torsions:
REMARK  status: ('A' for Active; 'I' for Inactive)
REMARK    1  A    between atoms: C_1  and  C_2
REMARK    2  A    between atoms: C_2  and  O_3
REMARK    3  A    between atoms: O_3  and  C_4
REMARK    4  A    between atoms: C_4  and  C_6
REMARK    5  A    between atoms: C_8  and  N_9
REMARK    6  A    between atoms: N_9  and  C_10
REMARK    7  A    between atoms: C_10  and  C_11
REMARK    8  A    between atoms: C_18  and  N_19
REMARK                            x       y       z     vdW  Elec       q    Type
REMARK                         _______ _______ _______ _____ _____    ______ ____
ROOT
ATOM      1  C   UNL     1       1.302   8.864  20.295  0.00  0.00    +0.000 A 
ATOM      2  C   UNL     1       1.994   7.656  20.008  0.00  0.00    +0.000 A 
ATOM      3  C   UNL     1       2.501   7.373  18.734  0.00  0.00    +0.000 A 
ATOM      4  C   UNL     1       2.208   8.281  17.724  0.00  0.00    +0.000 A 
ATOM      5  C   UNL     1       1.496   9.456  17.990  0.00  0.00    +0.000 A 
ATOM      6  C   UNL     1       1.033   9.804  19.275  0.00  0.00    +0.000 A 
ENDROOT
BRANCH   6   7
ATOM      7  N   UNL     1       0.326  10.986  19.400  0.00  0.00    +0.000 N 
ATOM      8  C   UNL     1      -1.123  11.124  19.195  0.00  0.00    +0.000 C 
ATOM      9  C   UNL     1      -1.402  12.364  18.318  0.00  0.00    +0.000 C 
ATOM     10  O   UNL     1      -0.776  13.557  18.826  0.00  0.00    +0.000 OA
ATOM     11  C   UNL     1       0.643  13.367  18.947  0.00  0.00    +0.000 C 
ATOM     12  C   UNL     1       0.955  12.216  19.915  0.00  0.00    +0.000 C 
ENDBRANCH   6   7
BRANCH   1  13
ATOM     13  C   UNL     1       1.035   9.147  21.735  0.00  0.00    +0.000 C 
ATOM     14  O   UNL     1       1.894   9.375  22.570  0.00  0.00    +0.000 OA
BRANCH  13  15
ATOM     15  O   UNL     1      -0.303   9.097  21.986  0.00  0.00    +0.000 OA
BRANCH  15  17
ATOM     16  C   UNL     1      -1.169  11.157  22.917  0.00  0.00    +0.000 C 
ATOM     17  C   UNL     1      -0.727   9.736  23.204  0.00  0.00    +0.000 C 
ENDBRANCH  15  17
ENDBRANCH  13  15
ENDBRANCH   1  13
BRANCH   3  18
ATOM     18  N   UNL     1       3.161   6.157  18.494  0.00  0.00    +0.000 N 
ATOM     19  H   UNL     1       2.619   5.544  17.891  0.00  0.00    +0.000 HD
BRANCH  18  20
ATOM     20  C   UNL     1       3.666   5.427  19.662  0.00  0.00    +0.000 C 
BRANCH  20  21
ATOM     21  C   UNL     1       2.808   4.254  20.037  0.00  0.00    +0.000 A 
ATOM     22  C   UNL     1       2.072   4.081  21.193  0.00  0.00    +0.000 A 
ATOM     23  C   UNL     1       1.346   2.857  21.195  0.00  0.00    +0.000 A 
ATOM     24  C   UNL     1       1.553   2.134  20.041  0.00  0.00    +0.000 A 
ATOM     25  S   UNL     1       2.622   2.929  18.969  0.00  0.00    +0.000 S 
ENDBRANCH  20  21
ENDBRANCH  18  20
ENDBRANCH   3  18
TORSDOF 7
ENDMDL
MODEL 5
REMARK VINA RESULT:      -6.9      2.377      4.472
REMARK  Name = 
REMARK  8 active torsions:
REMARK  status: ('A' for Active; 'I' for Inactive)
REMARK    1  A    between atoms: C_1  and  C_2
REMARK    2  A    between atoms: C_2  and  O_3
REMARK    3  A    between atoms: O_3  and  C_4
REMARK    4  A    between atoms: C_4  and  C_6
REMARK    5  A    between atoms: C_8  and  N_9
REMARK    6  A    between atoms: N_9  and  C_10
REMARK    7  A    between atoms: C_10  and  C_11
REMARK    8  A    between atoms: C_18  and  N_19
REMARK                            x       y       z     vdW  Elec       q    Type
REMARK                         _______ _______ _______ _____ _____    ______ ____
ROOT
ATOM      1  C   UNL     1       4.005   6.564  17.217  0.00  0.00    +0.000 A 
ATOM      2  C   UNL     1       3.509   7.895  17.196  0.00  0.00    +0.000 A 
ATOM      3  C   UNL     1       2.556   8.350  18.116  0.00  0.00    +0.000 A 
ATOM      4  C   UNL     1       2.032   7.409  18.995  0.00  0.00    +0.000 A 
ATOM      5  C   UNL     1       2.490   6.087  18.999  0.00  0.00    +0.000 A 
ATOM      6  C   UNL     1       3.497   5.616  18.133  0.00  0.00    +0.000 A 
ENDROOT
BRANCH   6   7
ATOM      7  N   UNL     1       3.846   4.282  18.227  0.00  0.00    +0.000 N 
ATOM      8  C   UNL     1       3.286   3.206  17.397  0.00  0.00    +0.000 C 
ATOM      9  C   UNL     1       2.910   2.007  18.295  0.00  0.00    +0.000 C 
ATOM     10  O   UNL     1       3.998   1.578  19.135  0.00  0.00    +0.000 OA
ATOM     11  C   UNL     1       4.457   2.665  19.956  0.00  0.00    +0.000 C 
ATOM     12  C   UNL     1       4.956   3.828  19.085  0.00  0.00    +0.000 C 
ENDBRANCH   6   7
BRANCH   1  13
ATOM     13  C   UNL     1       5.186   6.285  16.349  0.00  0.00    +0.000 C 
ATOM     14  O   UNL     1       5.288   5.327  15.602  0.00  0.00    +0.000 OA
BRANCH  13  15
ATOM     15  O   UNL     1       6.138   7.243  16.525  0.00  0.00    +0.000 OA
BRANCH  15  17
ATOM     16  C   UNL     1       7.959   8.152  17.837  0.00  0.00    +0.000 C 
ATOM     17  C   UNL     1       7.192   6.905  17.446  0.00  0.00    +0.000 C 
ENDBRANCH  15  17
ENDBRANCH  13  15
ENDBRANCH   1  13
BRANCH   3  18
ATOM     18  N   UNL     1       2.081   9.670  18.044  0.00  0.00    +0.000 N 
ATOM     19  H   UNL     1       2.836  10.337  17.910  0.00  0.00    +0.000 HD
BRANCH  18  20
ATOM     20  C   UNL     1       1.173  10.114  19.106  0.00  0.00    +0.000 C 
BRANCH  20  21
ATOM     21  C   UNL     1      -0.194  10.472  18.600  0.00  0.00    +0.000 A 
ATOM     22  C   UNL     1      -0.917   9.844  17.604  0.00  0.00    +0.000 A 
ATOM     23  C   UNL     1      -2.198  10.433  17.411  0.00  0.00    +0.000 A 
ATOM     24  C   UNL     1      -2.409  11.494  18.264  0.00  0.00    +0.000 A 
ATOM     25  S   UNL     1      -1.066  11.776  19.284  0.00  0.00    +0.000 S 
ENDBRANCH  20  21
ENDBRANCH  18  20
ENDBRANCH   3  18
TORSDOF 7
ENDMDL
MODEL 6
REMARK VINA RESULT:      -6.9      4.175      8.132
REMARK  Name = 
REMARK  8 active torsions:
REMARK  status: ('A' for Active; 'I' for Inactive)
REMARK    1  A    between atoms: C_1  and  C_2
REMARK    2  A    between atoms: C_2  and  O_3
REMARK    3  A    between atoms: O_3  and  C_4
REMARK    4  A    between atoms: C_4  and  C_6
REMARK    5  A    between atoms: C_8  and  N_9
REMARK    6  A    between atoms: N_9  and  C_10
REMARK    7  A    between atoms: C_10  and  C_11
REMARK    8  A    between atoms: C_18  and  N_19
REMARK                            x       y       z     vdW  Elec       q    Type
REMARK                         _______ _______ _______ _____ _____    ______ ____
ROOT
ATOM      1  C   UNL     1       1.279   8.775  20.418  0.00  0.00    +0.000 A 
ATOM      2  C   UNL     1       1.861   7.489  20.245  0.00  0.00    +0.000 A 
ATOM      3  C   UNL     1       2.369   7.061  19.012  0.00  0.00    +0.000 A 
ATOM      4  C   UNL     1       2.187   7.911  17.927  0.00  0.00    +0.000 A 
ATOM      5  C   UNL     1       1.583   9.164  18.082  0.00  0.00    +0.000 A 
ATOM      6  C   UNL     1       1.124   9.653  19.322  0.00  0.00    +0.000 A 
ENDROOT
BRANCH   6   7
ATOM      7  N   UNL     1       0.530  10.901  19.335  0.00  0.00    +0.000 N 
ATOM      8  C   UNL     1      -0.912  11.146  19.188  0.00  0.00    +0.000 C 
ATOM      9  C   UNL     1      -1.137  12.294  18.179  0.00  0.00    +0.000 C 
ATOM     10  O   UNL     1      -0.383  13.476  18.503  0.00  0.00    +0.000 OA
ATOM     11  C   UNL     1       1.020  13.172  18.575  0.00  0.00    +0.000 C 
ATOM     12  C   UNL     1       1.291  12.120  19.662  0.00  0.00    +0.000 C 
ENDBRANCH   6   7
BRANCH   1  13
ATOM     13  C   UNL     1       1.006   9.193  21.823  0.00  0.00    +0.000 C 
ATOM     14  O   UNL     1       1.863   9.475  22.643  0.00  0.00    +0.000 OA
BRANCH  13  15
ATOM     15  O   UNL     1      -0.335   9.197  22.062  0.00  0.00    +0.000 OA
BRANCH  15  17
ATOM     16  C   UNL     1      -1.203  11.321  22.835  0.00  0.00    +0.000 C 
ATOM     17  C   UNL     1      -0.752   9.928  23.229  0.00  0.00    +0.000 C 
ENDBRANCH  15  17
ENDBRANCH  13  15
ENDBRANCH   1  13
BRANCH   3  18
ATOM     18  N   UNL     1       2.917   5.774  18.886  0.00  0.00    +0.000 N 
ATOM     19  H   UNL     1       2.313   5.064  19.292  0.00  0.00    +0.000 HD
BRANCH  18  20
ATOM     20  C   UNL     1       4.305   5.592  19.322  0.00  0.00    +0.000 C 
BRANCH  20  21
ATOM     21  C   UNL     1       5.206   5.104  18.226  0.00  0.00    +0.000 A 
ATOM     22  C   UNL     1       4.843   4.486  17.045  0.00  0.00    +0.000 A 
ATOM     23  C   UNL     1       5.965   4.191  16.220  0.00  0.00    +0.000 A 
ATOM     24  C   UNL     1       7.148   4.591  16.800  0.00  0.00    +0.000 A 
ATOM     25  S   UNL     1       6.902   5.312  18.331  0.00  0.00    +0.000 S 
ENDBRANCH  20  21
ENDBRANCH  18  20
ENDBRANCH   3  18
TORSDOF 7
ENDMDL
MODEL 7
REMARK VINA RESULT:      -6.9      3.857      7.872
REMARK  Name = 
REMARK  8 active torsions:
REMARK  status: ('A' for Active; 'I' for Inactive)
REMARK    1  A    between atoms: C_1  and  C_2
REMARK    2  A    between atoms: C_2  and  O_3
REMARK    3  A    between atoms: O_3  and  C_4
REMARK    4  A    between atoms: C_4  and  C_6
REMARK    5  A    between atoms: C_8  and  N_9
REMARK    6  A    between atoms: N_9  and  C_10
REMARK    7  A    between atoms: C_10  and  C_11
REMARK    8  A    between atoms: C_18  and  N_19
REMARK                            x       y       z     vdW  Elec       q    Type
REMARK                         _______ _______ _______ _____ _____    ______ ____
ROOT
ATOM      1  C   UNL     1       3.354   6.352  18.378  0.00  0.00    +0.000 A 
ATOM      2  C   UNL     1       4.343   6.748  17.437  0.00  0.00    +0.000 A 
ATOM      3  C   UNL     1       5.145   5.819  16.763  0.00  0.00    +0.000 A 
ATOM      4  C   UNL     1       5.007   4.485  17.131  0.00  0.00    +0.000 A 
ATOM      5  C   UNL     1       4.059   4.090  18.082  0.00  0.00    +0.000 A 
ATOM      6  C   UNL     1       3.189   4.992  18.727  0.00  0.00    +0.000 A 
ENDROOT
BRANCH   6   7
ATOM      7  N   UNL     1       2.311   4.475  19.660  0.00  0.00    +0.000 N 
ATOM      8  C   UNL     1       2.450   4.620  21.116  0.00  0.00    +0.000 C 
ATOM      9  C   UNL     1       2.209   3.254  21.795  0.00  0.00    +0.000 C 
ATOM     10  O   UNL     1       0.968   2.645  21.394  0.00  0.00    +0.000 OA
ATOM     11  C   UNL     1       0.926   2.484  19.966  0.00  0.00    +0.000 C 
ATOM     12  C   UNL     1       1.038   3.845  19.264  0.00  0.00    +0.000 C 
ENDBRANCH   6   7
BRANCH   1  13
ATOM     13  C   UNL     1       2.411   7.414  18.833  0.00  0.00    +0.000 C 
ATOM     14  O   UNL     1       2.148   7.657  19.999  0.00  0.00    +0.000 OA
BRANCH  13  15
ATOM     15  O   UNL     1       1.874   8.060  17.760  0.00  0.00    +0.000 OA
BRANCH  15  17
ATOM     16  C   UNL     1       0.341   9.899  18.120  0.00  0.00    +0.000 C 
ATOM     17  C   UNL     1       1.782   9.491  17.884  0.00  0.00    +0.000 C 
ENDBRANCH  15  17
ENDBRANCH  13  15
ENDBRANCH   1  13
BRANCH   3  18
ATOM     18  N   UNL     1       6.122   6.260  15.857  0.00  0.00    +0.000 N 
ATOM     19  H   UNL     1       5.709   6.683  15.030  0.00  0.00    +0.000 HD
BRANCH  18  20
ATOM     20  C   UNL     1       7.170   5.304  15.484  0.00  0.00    +0.000 C 
BRANCH  20  21
ATOM     21  C   UNL     1       6.958   4.698  14.128  0.00  0.00    +0.000 A 
ATOM     22  C   UNL     1       6.037   3.734  13.768  0.00  0.00    +0.000 A 
ATOM     23  C   UNL     1       6.094   3.421  12.380  0.00  0.00    +0.000 A 
ATOM     24  C   UNL     1       7.059   4.156  11.727  0.00  0.00    +0.000 A 
ATOM     25  S   UNL     1       7.891   5.210  12.786  0.00  0.00    +0.000 S 
ENDBRANCH  20  21
ENDBRANCH  18  20
ENDBRANCH   3  18
TORSDOF 7
ENDMDL
MODEL 8
REMARK VINA RESULT:      -6.8      0.903      1.164
REMARK  Name = 
REMARK  8 active torsions:
REMARK  status: ('A' for Active; 'I' for Inactive)
REMARK    1  A    between atoms: C_1  and  C_2
REMARK    2  A    between atoms: C_2  and  O_3
REMARK    3  A    between atoms: O_3  and  C_4
REMARK    4  A    between atoms: C_4  and  C_6
REMARK    5  A    between atoms: C_8  and  N_9
REMARK    6  A    between atoms: N_9  and  C_10
REMARK    7  A    between atoms: C_10  and  C_11
REMARK    8  A    between atoms: C_18  and  N_19
REMARK                            x       y       z     vdW  Elec       q    Type
REMARK                         _______ _______ _______ _____ _____    ______ ____
ROOT
ATOM      1  C   UNL     1       3.668   4.528  19.509  0.00  0.00    +0.000 A 
ATOM      2  C   UNL     1       2.726   5.195  20.337  0.00  0.00    +0.000 A 
ATOM      3  C   UNL     1       2.200   6.450  20.006  0.00  0.00    +0.000 A 
ATOM      4  C   UNL     1       2.720   7.071  18.876  0.00  0.00    +0.000 A 
ATOM      5  C   UNL     1       3.674   6.436  18.074  0.00  0.00    +0.000 A 
ATOM      6  C   UNL     1       4.172   5.145  18.341  0.00  0.00    +0.000 A 
ENDROOT
BRANCH   6   7
ATOM      7  N   UNL     1       5.126   4.638  17.480  0.00  0.00    +0.000 N 
ATOM      8  C   UNL     1       6.579   4.728  17.687  0.00  0.00    +0.000 C 
ATOM      9  C   UNL     1       7.258   5.176  16.375  0.00  0.00    +0.000 C 
ATOM     10  O   UNL     1       6.888   4.359  15.249  0.00  0.00    +0.000 OA
ATOM     11  C   UNL     1       5.461   4.362  15.074  0.00  0.00    +0.000 C 
ATOM     12  C   UNL     1       4.761   3.802  16.321  0.00  0.00    +0.000 C 
ENDBRANCH   6   7
BRANCH   1  13
ATOM     13  C   UNL     1       3.956   3.104  19.849  0.00  0.00    +0.000 C 
ATOM     14  O   UNL     1       5.073   2.635  19.991  0.00  0.00    +0.000 OA
BRANCH  13  15
ATOM     15  O   UNL     1       2.794   2.401  19.960  0.00  0.00    +0.000 OA
BRANCH  15  17
ATOM     16  C   UNL     1       0.723   2.444  18.708  0.00  0.00    +0.000 C 
ATOM     17  C   UNL     1       2.179   2.025  18.715  0.00  0.00    +0.000 C 
ENDBRANCH  15  17
ENDBRANCH  13  15
ENDBRANCH   1  13
BRANCH   3  18
ATOM     18  N   UNL     1       1.286   7.079  20.866  0.00  0.00    +0.000 N 
ATOM     19  H   UNL     1       0.340   7.058  20.494  0.00  0.00    +0.000 HD
BRANCH  18  20
ATOM     20  C   UNL     1       1.629   8.423  21.342  0.00  0.00    +0.000 C 
BRANCH  20  21
ATOM     21  C   UNL     1       0.692   9.482  20.839  0.00  0.00    +0.000 A 
ATOM     22  C   UNL     1       0.372   9.773  19.527  0.00  0.00    +0.000 A 
ATOM     23  C   UNL     1      -0.585  10.822  19.423  0.00  0.00    +0.000 A 
ATOM     24  C   UNL     1      -0.962  11.298  20.658  0.00  0.00    +0.000 A 
ATOM     25  S   UNL     1      -0.161  10.486  21.932  0.00  0.00    +0.000 S 
ENDBRANCH  20  21
ENDBRANCH  18  20
ENDBRANCH   3  18
TORSDOF 7
ENDMDL
MODEL 9
REMARK VINA RESULT:      -6.8      2.305      4.229
REMARK  Name = 
REMARK  8 active torsions:
REMARK  status: ('A' for Active; 'I' for Inactive)
REMARK    1  A    between atoms: C_1  and  C_2
REMARK    2  A    between atoms: C_2  and  O_3
REMARK    3  A    between atoms: O_3  and  C_4
REMARK    4  A    between atoms: C_4  and  C_6
REMARK    5  A    between atoms: C_8  and  N_9
REMARK    6  A    between atoms: N_9  and  C_10
REMARK    7  A    between atoms: C_10  and  C_11
REMARK    8  A    between atoms: C_18  and  N_19
REMARK                            x       y       z     vdW  Elec       q    Type
REMARK                         _______ _______ _______ _____ _____    ______ ____
ROOT
ATOM      1  C   UNL     1       4.190   6.667  17.422  0.00  0.00    +0.000 A 
ATOM      2  C   UNL     1       3.656   7.983  17.385  0.00  0.00    +0.000 A 
ATOM      3  C   UNL     1       2.510   8.342  18.106  0.00  0.00    +0.000 A 
ATOM      4  C   UNL     1       1.848   7.324  18.784  0.00  0.00    +0.000 A 
ATOM      5  C   UNL     1       2.349   6.017  18.795  0.00  0.00    +0.000 A 
ATOM      6  C   UNL     1       3.537   5.639  18.138  0.00  0.00    +0.000 A 
ENDROOT
BRANCH   6   7
ATOM      7  N   UNL     1       3.912   4.311  18.213  0.00  0.00    +0.000 N 
ATOM      8  C   UNL     1       3.601   3.291  17.200  0.00  0.00    +0.000 C 
ATOM      9  C   UNL     1       3.083   2.015  17.898  0.00  0.00    +0.000 C 
ATOM     10  O   UNL     1       3.968   1.547  18.933  0.00  0.00    +0.000 OA
ATOM     11  C   UNL     1       4.181   2.575  19.914  0.00  0.00    +0.000 C 
ATOM     12  C   UNL     1       4.815   3.817  19.268  0.00  0.00    +0.000 C 
ENDBRANCH   6   7
BRANCH   1  13
ATOM     13  C   UNL     1       5.540   6.484  16.813  0.00  0.00    +0.000 C 
ATOM     14  O   UNL     1       6.595   6.716  17.379  0.00  0.00    +0.000 OA
BRANCH  13  15
ATOM     15  O   UNL     1       5.423   6.039  15.531  0.00  0.00    +0.000 OA
BRANCH  15  17
ATOM     16  C   UNL     1       5.863   4.063  14.204  0.00  0.00    +0.000 C 
ATOM     17  C   UNL     1       6.456   5.137  15.094  0.00  0.00    +0.000 C 
ENDBRANCH  15  17
ENDBRANCH  13  15
ENDBRANCH   1  13
BRANCH   3  18
ATOM     18  N   UNL     1       2.008   9.651  18.024  0.00  0.00    +0.000 N 
ATOM     19  H   UNL     1       2.753  10.337  17.932  0.00  0.00    +0.000 HD
BRANCH  18  20
ATOM     20  C   UNL     1       1.041  10.063  19.046  0.00  0.00    +0.000 C 
BRANCH  20  21
ATOM     21  C   UNL     1      -0.281  10.481  18.471  0.00  0.00    +0.000 A 
ATOM     22  C   UNL     1      -1.073   9.783  17.581  0.00  0.00    +0.000 A 
ATOM     23  C   UNL     1      -2.283  10.469  17.278  0.00  0.00    +0.000 A 
ATOM     24  C   UNL     1      -2.372  11.670  17.946  0.00  0.00    +0.000 A 
ATOM     25  S   UNL     1      -1.002  11.965  18.925  0.00  0.00    +0.000 S 
ENDBRANCH  20  21
ENDBRANCH  18  20
ENDBRANCH   3  18
TORSDOF 7
ENDMDL
