MODEL 1
REMARK VINA RESULT:      -7.7      0.000      0.000
REMARK  Name = 
REMARK  10 active torsions:
REMARK  status: ('A' for Active; 'I' for Inactive)
REMARK    1  A    between atoms: C_1  and  C_2
REMARK    2  A    between atoms: C_2  and  C_3
REMARK    3  A    between atoms: C_2  and  N_5
REMARK    4  A    between atoms: C_3  and  O_4
REMARK    5  A    between atoms: C_7  and  C_8
REMARK    6  A    between atoms: C_8  and  C_10
REMARK    7  A    between atoms: C_14  and  N_15
REMARK    8  A    between atoms: C_16  and  C_18
REMARK    9  A    between atoms: C_18  and  C_19
REMARK   10  A    between atoms: C_22  and  C_23
REMARK                            x       y       z     vdW  Elec       q    Type
REMARK                         _______ _______ _______ _____ _____    ______ ____
ROOT
ATOM      1  C   UNL     1       1.791   8.374  19.240  0.00  0.00    +0.000 A 
ATOM      2  C   UNL     1       1.857   7.588  20.381  0.00  0.00    +0.000 A 
ATOM      3  N   UNL     1       1.206   7.877  21.526  0.00  0.00    +0.000 NA
ATOM      4  C   UNL     1       0.489   9.029  21.549  0.00  0.00    +0.000 A 
ATOM      5  C   UNL     1       0.378   9.914  20.476  0.00  0.00    +0.000 A 
ATOM      6  C   UNL     1       1.043   9.561  19.297  0.00  0.00    +0.000 A 
ENDROOT
BRANCH   5   7
ATOM      7  N   UNL     1      -0.353  11.124  20.513  0.00  0.00    +0.000 N 
ATOM      8  C   UNL     1      -1.393  11.468  19.659  0.00  0.00    +0.000 C 
ATOM      9  O   UNL     1      -1.846  10.757  18.765  0.00  0.00    +0.000 OA
ATOM     10  H   UNL     1      -0.104  11.788  21.237  0.00  0.00    +0.000 HD
BRANCH   8  11
ATOM     11  C   UNL     1      -1.951  12.864  19.879  0.00  0.00    +0.000 C 
BRANCH  11  12
ATOM     12  C   UNL     1      -0.866  13.914  19.865  0.00  0.00    +0.000 A 
ATOM     13  C   UNL     1      -0.657  14.731  20.988  0.00  0.00    +0.000 A 
ATOM     14  C   UNL     1       0.305  15.741  20.962  0.00  0.00    +0.000 A 
ATOM     15  C   UNL     1       1.079  15.938  19.815  0.00  0.00    +0.000 A 
ATOM     16  C   UNL     1       0.898  15.106  18.706  0.00  0.00    +0.000 A 
ATOM     17  C   UNL     1      -0.066  14.096  18.732  0.00  0.00    +0.000 A 
BRANCH  15  18
ATOM     18  C   UNL     1       2.044  16.992  19.770  0.00  0.00    +0.000 C 
ATOM     19  N   UNL     1       2.829  17.846  19.739  0.00  0.00    +0.000 NA
ENDBRANCH  15  18
ENDBRANCH  11  12
ENDBRANCH   8  11
ENDBRANCH   5   7
BRANCH   1  20
ATOM     20  C   UNL     1       2.554   8.019  18.020  0.00  0.00    +0.000 C 
ATOM     21  O   UNL     1       2.520   8.792  17.067  0.00  0.00    +0.000 OA
BRANCH  20  24
ATOM     22  N   UNL     1       5.056   5.338  17.998  0.00  0.00    +0.000 N 
ATOM     23  C   UNL     1       4.707   6.668  18.050  0.00  0.00    +0.000 A 
ATOM     24  C   UNL     1       3.331   6.781  17.980  0.00  0.00    +0.000 A 
ATOM     25  C   UNL     1       2.820   5.445  17.897  0.00  0.00    +0.000 A 
ATOM     26  C   UNL     1       1.520   4.915  17.813  0.00  0.00    +0.000 A 
ATOM     27  N   UNL     1       1.320   3.578  17.713  0.00  0.00    +0.000 NA
ATOM     28  C   UNL     1       2.396   2.761  17.698  0.00  0.00    +0.000 A 
ATOM     29  C   UNL     1       3.709   3.189  17.778  0.00  0.00    +0.000 A 
ATOM     30  F   UNL     1       4.715   2.308  17.743  0.00  0.00    +0.000 F 
ATOM     31  C   UNL     1       3.916   4.568  17.882  0.00  0.00    +0.000 A 
BRANCH  22  33
ATOM     32  C   UNL     1       7.037   4.536  16.740  0.00  0.00    +0.000 C 
ATOM     33  C   UNL     1       6.438   4.854  18.115  0.00  0.00    +0.000 C 
BRANCH  33  34
ATOM     34  C   UNL     1       7.331   5.861  18.862  0.00  0.00    +0.000 C 
BRANCH  34  35
ATOM     35  O   UNL     1       7.600   5.456  20.200  0.00  0.00    +0.000 OA
ATOM     36  H   UNL     1       7.516   6.241  20.772  0.00  0.00    +0.000 HD
ENDBRANCH  34  35
ENDBRANCH  33  34
ENDBRANCH  22  33
ENDBRANCH  20  24
ENDBRANCH   1  20
TORSDOF 9
ENDMDL
MODEL 2
REMARK VINA RESULT:      -7.7      3.951      9.902
REMARK  Name = 
REMARK  10 active torsions:
REMARK  status: ('A' for Active; 'I' for Inactive)
REMARK    1  A    between atoms: C_1  and  C_2
REMARK    2  A    between atoms: C_2  and  C_3
REMARK    3  A    between atoms: C_2  and  N_5
REMARK    4  A    between atoms: C_3  and  O_4
REMARK    5  A    between atoms: C_7  and  C_8
REMARK    6  A    between atoms: C_8  and  C_10
REMARK    7  A    between atoms: C_14  and  N_15
REMARK    8  A    between atoms: C_16  and  C_18
REMARK    9  A    between atoms: C_18  and  C_19
REMARK   10  A    between atoms: C_22  and  C_23
REMARK                            x       y       z     vdW  Elec       q    Type
REMARK                         _______ _______ _______ _____ _____    ______ ____
ROOT
ATOM      1  C   UNL     1      -0.172  10.966  20.811  0.00  0.00    +0.000 A 
ATOM      2  C   UNL     1      -0.429  11.232  22.148  0.00  0.00    +0.000 A 
ATOM      3  N   UNL     1      -0.071  10.410  23.155  0.00  0.00    +0.000 NA
ATOM      4  C   UNL     1       0.533   9.245  22.809  0.00  0.00    +0.000 A 
ATOM      5  C   UNL     1       0.811   8.856  21.499  0.00  0.00    +0.000 A 
ATOM      6  C   UNL     1       0.453   9.751  20.486  0.00  0.00    +0.000 A 
ENDROOT
BRANCH   5   7
ATOM      7  N   UNL     1       1.423   7.631  21.144  0.00  0.00    +0.000 N 
ATOM      8  C   UNL     1       2.072   7.368  19.945  0.00  0.00    +0.000 C 
ATOM      9  O   UNL     1       2.233   8.172  19.030  0.00  0.00    +0.000 OA
ATOM     10  H   UNL     1       1.396   6.889  21.833  0.00  0.00    +0.000 HD
BRANCH   8  11
ATOM     11  C   UNL     1       2.573   5.940  19.801  0.00  0.00    +0.000 C 
BRANCH  11  12
ATOM     12  C   UNL     1       3.708   5.837  18.812  0.00  0.00    +0.000 A 
ATOM     13  C   UNL     1       3.658   6.542  17.598  0.00  0.00    +0.000 A 
ATOM     14  C   UNL     1       4.677   6.407  16.655  0.00  0.00    +0.000 A 
ATOM     15  C   UNL     1       5.766   5.572  16.921  0.00  0.00    +0.000 A 
ATOM     16  C   UNL     1       5.838   4.893  18.141  0.00  0.00    +0.000 A 
ATOM     17  C   UNL     1       4.818   5.028  19.084  0.00  0.00    +0.000 A 
BRANCH  15  18
ATOM     18  C   UNL     1       6.798   5.404  15.944  0.00  0.00    +0.000 C 
ATOM     19  N   UNL     1       7.638   5.272  15.155  0.00  0.00    +0.000 NA
ENDBRANCH  15  18
ENDBRANCH  11  12
ENDBRANCH   8  11
ENDBRANCH   5   7
BRANCH   1  20
ATOM     20  C   UNL     1      -0.618  11.895  19.745  0.00  0.00    +0.000 C 
ATOM     21  O   UNL     1       0.228  12.584  19.183  0.00  0.00    +0.000 OA
BRANCH  20  24
ATOM     22  N   UNL     1      -4.244  12.368  19.462  0.00  0.00    +0.000 N 
ATOM     23  C   UNL     1      -3.062  12.457  20.161  0.00  0.00    +0.000 A 
ATOM     24  C   UNL     1      -2.033  11.964  19.382  0.00  0.00    +0.000 A 
ATOM     25  C   UNL     1      -2.622  11.569  18.137  0.00  0.00    +0.000 A 
ATOM     26  C   UNL     1      -2.098  11.014  16.956  0.00  0.00    +0.000 A 
ATOM     27  N   UNL     1      -2.908  10.703  15.915  0.00  0.00    +0.000 NA
ATOM     28  C   UNL     1      -4.233  10.940  16.032  0.00  0.00    +0.000 A 
ATOM     29  C   UNL     1      -4.839  11.484  17.150  0.00  0.00    +0.000 A 
ATOM     30  F   UNL     1      -6.163  11.672  17.183  0.00  0.00    +0.000 F 
ATOM     31  C   UNL     1      -4.003  11.806  18.224  0.00  0.00    +0.000 A 
BRANCH  22  33
ATOM     32  C   UNL     1      -5.771  12.416  21.415  0.00  0.00    +0.000 C 
ATOM     33  C   UNL     1      -5.530  12.864  19.969  0.00  0.00    +0.000 C 
BRANCH  33  34
ATOM     34  C   UNL     1      -5.626  14.398  19.867  0.00  0.00    +0.000 C 
BRANCH  34  35
ATOM     35  O   UNL     1      -6.018  14.829  18.569  0.00  0.00    +0.000 OA
ATOM     36  H   UNL     1      -5.371  15.492  18.267  0.00  0.00    +0.000 HD
ENDBRANCH  34  35
ENDBRANCH  33  34
ENDBRANCH  22  33
ENDBRANCH  20  24
ENDBRANCH   1  20
TORSDOF 9
ENDMDL
MODEL 3
REMARK VINA RESULT:      -7.6      3.350      9.655
REMARK  Name = 
REMARK  10 active torsions:
REMARK  status: ('A' for Active; 'I' for Inactive)
REMARK    1  A    between atoms: C_1  and  C_2
REMARK    2  A    between atoms: C_2  and  C_3
REMARK    3  A    between atoms: C_2  and  N_5
REMARK    4  A    between atoms: C_3  and  O_4
REMARK    5  A    between atoms: C_7  and  C_8
REMARK    6  A    between atoms: C_8  and  C_10
REMARK    7  A    between atoms: C_14  and  N_15
REMARK    8  A    between atoms: C_16  and  C_18
REMARK    9  A    between atoms: C_18  and  C_19
REMARK   10  A    between atoms: C_22  and  C_23
REMARK                            x       y       z     vdW  Elec       q    Type
REMARK                         _______ _______ _______ _____ _____    ______ ____
ROOT
ATOM      1  C   UNL     1       1.661   8.497  19.206  0.00  0.00    +0.000 A 
ATOM      2  C   UNL     1       1.113   8.281  20.462  0.00  0.00    +0.000 A 
ATOM      3  N   UNL     1       1.340   7.172  21.194  0.00  0.00    +0.000 NA
ATOM      4  C   UNL     1       2.113   6.211  20.628  0.00  0.00    +0.000 A 
ATOM      5  C   UNL     1       2.688   6.303  19.361  0.00  0.00    +0.000 A 
ATOM      6  C   UNL     1       2.455   7.484  18.647  0.00  0.00    +0.000 A 
ENDROOT
BRANCH   5   7
ATOM      7  N   UNL     1       3.477   5.290  18.768  0.00  0.00    +0.000 N 
ATOM      8  C   UNL     1       3.004   4.261  17.965  0.00  0.00    +0.000 C 
ATOM      9  O   UNL     1       1.833   4.099  17.630  0.00  0.00    +0.000 OA
ATOM     10  H   UNL     1       4.476   5.331  18.934  0.00  0.00    +0.000 HD
BRANCH   8  11
ATOM     11  C   UNL     1       4.066   3.268  17.523  0.00  0.00    +0.000 C 
BRANCH  11  12
ATOM     12  C   UNL     1       5.038   3.880  16.542  0.00  0.00    +0.000 A 
ATOM     13  C   UNL     1       4.725   3.933  15.174  0.00  0.00    +0.000 A 
ATOM     14  C   UNL     1       5.641   4.446  14.255  0.00  0.00    +0.000 A 
ATOM     15  C   UNL     1       6.879   4.922  14.697  0.00  0.00    +0.000 A 
ATOM     16  C   UNL     1       7.183   4.901  16.062  0.00  0.00    +0.000 A 
ATOM     17  C   UNL     1       6.265   4.388  16.981  0.00  0.00    +0.000 A 
BRANCH  15  18
ATOM     18  C   UNL     1       7.836   5.418  13.756  0.00  0.00    +0.000 C 
ATOM     19  N   UNL     1       8.609   5.817  12.990  0.00  0.00    +0.000 NA
ENDBRANCH  15  18
ENDBRANCH  11  12
ENDBRANCH   8  11
ENDBRANCH   5   7
BRANCH   1  20
ATOM     20  C   UNL     1       1.350   9.725  18.436  0.00  0.00    +0.000 C 
ATOM     21  O   UNL     1       2.045   9.991  17.459  0.00  0.00    +0.000 OA
BRANCH  20  24
ATOM     22  N   UNL     1      -0.983  12.162  19.873  0.00  0.00    +0.000 N 
ATOM     23  C   UNL     1       0.261  11.578  19.793  0.00  0.00    +0.000 A 
ATOM     24  C   UNL     1       0.232  10.577  18.840  0.00  0.00    +0.000 A 
ATOM     25  C   UNL     1      -1.096  10.566  18.304  0.00  0.00    +0.000 A 
ATOM     26  C   UNL     1      -1.730   9.793  17.315  0.00  0.00    +0.000 A 
ATOM     27  N   UNL     1      -3.040   9.980  17.020  0.00  0.00    +0.000 NA
ATOM     28  C   UNL     1      -3.727  10.926  17.695  0.00  0.00    +0.000 A 
ATOM     29  C   UNL     1      -3.191  11.735  18.681  0.00  0.00    +0.000 A 
ATOM     30  F   UNL     1      -3.952  12.640  19.307  0.00  0.00    +0.000 F 
ATOM     31  C   UNL     1      -1.839  11.544  18.985  0.00  0.00    +0.000 A 
BRANCH  22  33
ATOM     32  C   UNL     1      -0.675  13.133  22.134  0.00  0.00    +0.000 C 
ATOM     33  C   UNL     1      -1.290  13.307  20.741  0.00  0.00    +0.000 C 
BRANCH  33  34
ATOM     34  C   UNL     1      -0.820  14.634  20.116  0.00  0.00    +0.000 C 
BRANCH  34  35
ATOM     35  O   UNL     1       0.320  15.169  20.779  0.00  0.00    +0.000 OA
ATOM     36  H   UNL     1       0.963  15.435  20.098  0.00  0.00    +0.000 HD
ENDBRANCH  34  35
ENDBRANCH  33  34
ENDBRANCH  22  33
ENDBRANCH  20  24
ENDBRANCH   1  20
TORSDOF 9
ENDMDL
MODEL 4
REMARK VINA RESULT:      -7.6      4.388     11.038
REMARK  Name = 
REMARK  10 active torsions:
REMARK  status: ('A' for Active; 'I' for Inactive)
REMARK    1  A    between atoms: C_1  and  C_2
REMARK    2  A    between atoms: C_2  and  C_3
REMARK    3  A    between atoms: C_2  and  N_5
REMARK    4  A    between atoms: C_3  and  O_4
REMARK    5  A    between atoms: C_7  and  C_8
REMARK    6  A    between atoms: C_8  and  C_10
REMARK    7  A    between atoms: C_14  and  N_15
REMARK    8  A    between atoms: C_16  and  C_18
REMARK    9  A    between atoms: C_18  and  C_19
REMARK   10  A    between atoms: C_22  and  C_23
REMARK                            x       y       z     vdW  Elec       q    Type
REMARK                         _______ _______ _______ _____ _____    ______ ____
ROOT
ATOM      1  C   UNL     1      -1.153  11.995  20.842  0.00  0.00    +0.000 A 
ATOM      2  C   UNL     1      -0.964  11.605  22.160  0.00  0.00    +0.000 A 
ATOM      3  N   UNL     1      -0.097  10.643  22.536  0.00  0.00    +0.000 NA
ATOM      4  C   UNL     1       0.580  10.007  21.547  0.00  0.00    +0.000 A 
ATOM      5  C   UNL     1       0.446  10.290  20.187  0.00  0.00    +0.000 A 
ATOM      6  C   UNL     1      -0.439  11.317  19.842  0.00  0.00    +0.000 A 
ENDROOT
BRANCH   5   7
ATOM      7  N   UNL     1       1.140   9.611  19.159  0.00  0.00    +0.000 N 
ATOM      8  C   UNL     1       1.814   8.405  19.297  0.00  0.00    +0.000 C 
ATOM      9  O   UNL     1       1.880   7.739  20.327  0.00  0.00    +0.000 OA
ATOM     10  H   UNL     1       1.129  10.037  18.240  0.00  0.00    +0.000 HD
BRANCH   8  11
ATOM     11  C   UNL     1       2.536   7.940  18.043  0.00  0.00    +0.000 C 
BRANCH  11  12
ATOM     12  C   UNL     1       2.819   6.457  18.070  0.00  0.00    +0.000 A 
ATOM     13  C   UNL     1       1.790   5.535  17.818  0.00  0.00    +0.000 A 
ATOM     14  C   UNL     1       2.032   4.163  17.898  0.00  0.00    +0.000 A 
ATOM     15  C   UNL     1       3.310   3.698  18.220  0.00  0.00    +0.000 A 
ATOM     16  C   UNL     1       4.345   4.611  18.439  0.00  0.00    +0.000 A 
ATOM     17  C   UNL     1       4.103   5.984  18.360  0.00  0.00    +0.000 A 
BRANCH  15  18
ATOM     18  C   UNL     1       3.556   2.293  18.335  0.00  0.00    +0.000 C 
ATOM     19  N   UNL     1       3.755   1.154  18.423  0.00  0.00    +0.000 NA
ENDBRANCH  15  18
ENDBRANCH  11  12
ENDBRANCH   8  11
ENDBRANCH   5   7
BRANCH   1  20
ATOM     20  C   UNL     1      -2.143  13.040  20.488  0.00  0.00    +0.000 C 
ATOM     21  O   UNL     1      -1.732  14.096  20.016  0.00  0.00    +0.000 OA
BRANCH  20  24
ATOM     22  N   UNL     1      -5.699  12.150  20.353  0.00  0.00    +0.000 N 
ATOM     23  C   UNL     1      -4.449  12.233  19.783  0.00  0.00    +0.000 A 
ATOM     24  C   UNL     1      -3.571  12.792  20.692  0.00  0.00    +0.000 A 
ATOM     25  C   UNL     1      -4.326  13.046  21.882  0.00  0.00    +0.000 A 
ATOM     26  C   UNL     1      -3.995  13.587  23.137  0.00  0.00    +0.000 A 
ATOM     27  N   UNL     1      -4.939  13.745  24.097  0.00  0.00    +0.000 NA
ATOM     28  C   UNL     1      -6.208  13.369  23.826  0.00  0.00    +0.000 A 
ATOM     29  C   UNL     1      -6.628  12.826  22.625  0.00  0.00    +0.000 A 
ATOM     30  F   UNL     1      -7.911  12.494  22.440  0.00  0.00    +0.000 F 
ATOM     31  C   UNL     1      -5.654  12.663  21.634  0.00  0.00    +0.000 A 
BRANCH  22  33
ATOM     32  C   UNL     1      -7.583  12.557  18.793  0.00  0.00    +0.000 C 
ATOM     33  C   UNL     1      -6.859  11.544  19.687  0.00  0.00    +0.000 C 
BRANCH  33  34
ATOM     34  C   UNL     1      -6.457  10.304  18.866  0.00  0.00    +0.000 C 
BRANCH  34  35
ATOM     35  O   UNL     1      -7.466   9.301  18.874  0.00  0.00    +0.000 OA
ATOM     36  H   UNL     1      -7.221   8.637  19.544  0.00  0.00    +0.000 HD
ENDBRANCH  34  35
ENDBRANCH  33  34
ENDBRANCH  22  33
ENDBRANCH  20  24
ENDBRANCH   1  20
TORSDOF 9
ENDMDL
MODEL 5
REMARK VINA RESULT:      -7.6      3.361      9.613
REMARK  Name = 
REMARK  10 active torsions:
REMARK  status: ('A' for Active; 'I' for Inactive)
REMARK    1  A    between atoms: C_1  and  C_2
REMARK    2  A    between atoms: C_2  and  C_3
REMARK    3  A    between atoms: C_2  and  N_5
REMARK    4  A    between atoms: C_3  and  O_4
REMARK    5  A    between atoms: C_7  and  C_8
REMARK    6  A    between atoms: C_8  and  C_10
REMARK    7  A    between atoms: C_14  and  N_15
REMARK    8  A    between atoms: C_16  and  C_18
REMARK    9  A    between atoms: C_18  and  C_19
REMARK   10  A    between atoms: C_22  and  C_23
REMARK                            x       y       z     vdW  Elec       q    Type
REMARK                         _______ _______ _______ _____ _____    ______ ____
ROOT
ATOM      1  C   UNL     1       1.829   8.210  19.180  0.00  0.00    +0.000 A 
ATOM      2  C   UNL     1       1.271   7.963  20.426  0.00  0.00    +0.000 A 
ATOM      3  N   UNL     1       1.454   6.817  21.111  0.00  0.00    +0.000 NA
ATOM      4  C   UNL     1       2.191   5.852  20.506  0.00  0.00    +0.000 A 
ATOM      5  C   UNL     1       2.772   5.975  19.243  0.00  0.00    +0.000 A 
ATOM      6  C   UNL     1       2.585   7.192  18.579  0.00  0.00    +0.000 A 
ENDROOT
BRANCH   5   7
ATOM      7  N   UNL     1       3.523   4.958  18.608  0.00  0.00    +0.000 N 
ATOM      8  C   UNL     1       3.028   4.038  17.693  0.00  0.00    +0.000 C 
ATOM      9  O   UNL     1       1.872   3.993  17.281  0.00  0.00    +0.000 OA
ATOM     10  H   UNL     1       4.510   4.910  18.832  0.00  0.00    +0.000 HD
BRANCH   8  11
ATOM     11  C   UNL     1       4.044   3.008  17.225  0.00  0.00    +0.000 C 
BRANCH  11  12
ATOM     12  C   UNL     1       5.069   3.608  16.293  0.00  0.00    +0.000 A 
ATOM     13  C   UNL     1       6.220   4.226  16.809  0.00  0.00    +0.000 A 
ATOM     14  C   UNL     1       7.142   4.833  15.956  0.00  0.00    +0.000 A 
ATOM     15  C   UNL     1       6.930   4.818  14.575  0.00  0.00    +0.000 A 
ATOM     16  C   UNL     1       5.802   4.175  14.054  0.00  0.00    +0.000 A 
ATOM     17  C   UNL     1       4.879   3.569  14.907  0.00  0.00    +0.000 A 
BRANCH  15  18
ATOM     18  C   UNL     1       7.855   5.466  13.697  0.00  0.00    +0.000 C 
ATOM     19  N   UNL     1       8.609   5.991  12.990  0.00  0.00    +0.000 NA
ENDBRANCH  15  18
ENDBRANCH  11  12
ENDBRANCH   8  11
ENDBRANCH   5   7
BRANCH   1  20
ATOM     20  C   UNL     1       1.566   9.481  18.462  0.00  0.00    +0.000 C 
ATOM     21  O   UNL     1       2.168   9.691  17.413  0.00  0.00    +0.000 OA
BRANCH  20  24
ATOM     22  N   UNL     1      -0.316  12.099  20.209  0.00  0.00    +0.000 N 
ATOM     23  C   UNL     1       0.833  11.373  19.992  0.00  0.00    +0.000 A 
ATOM     24  C   UNL     1       0.601  10.438  19.001  0.00  0.00    +0.000 A 
ATOM     25  C   UNL     1      -0.757  10.619  18.584  0.00  0.00    +0.000 A 
ATOM     26  C   UNL     1      -1.561   9.986  17.619  0.00  0.00    +0.000 A 
ATOM     27  N   UNL     1      -2.857  10.347  17.449  0.00  0.00    +0.000 NA
ATOM     28  C   UNL     1      -3.363  11.331  18.224  0.00  0.00    +0.000 A 
ATOM     29  C   UNL     1      -2.650  12.012  19.196  0.00  0.00    +0.000 A 
ATOM     30  F   UNL     1      -3.237  12.966  19.927  0.00  0.00    +0.000 F 
ATOM     31  C   UNL     1      -1.313  11.640  19.371  0.00  0.00    +0.000 A 
BRANCH  22  33
ATOM     32  C   UNL     1      -0.965  12.772  22.505  0.00  0.00    +0.000 C 
ATOM     33  C   UNL     1      -0.405  13.222  21.151  0.00  0.00    +0.000 C 
BRANCH  33  34
ATOM     34  C   UNL     1       0.960  13.909  21.344  0.00  0.00    +0.000 C 
BRANCH  34  35
ATOM     35  O   UNL     1       0.945  14.847  22.414  0.00  0.00    +0.000 OA
ATOM     36  H   UNL     1       1.823  14.831  22.837  0.00  0.00    +0.000 HD
ENDBRANCH  34  35
ENDBRANCH  33  34
ENDBRANCH  22  33
ENDBRANCH  20  24
ENDBRANCH   1  20
TORSDOF 9
ENDMDL
MODEL 6
REMARK VINA RESULT:      -7.5      2.872      4.160
REMARK  Name = 
REMARK  10 active torsions:
REMARK  status: ('A' for Active; 'I' for Inactive)
REMARK    1  A    between atoms: C_1  and  C_2
REMARK    2  A    between atoms: C_2  and  C_3
REMARK    3  A    between atoms: C_2  and  N_5
REMARK    4  A    between atoms: C_3  and  O_4
REMARK    5  A    between atoms: C_7  and  C_8
REMARK    6  A    between atoms: C_8  and  C_10
REMARK    7  A    between atoms: C_14  and  N_15
REMARK    8  A    between atoms: C_16  and  C_18
REMARK    9  A    between atoms: C_18  and  C_19
REMARK   10  A    between atoms: C_22  and  C_23
REMARK                            x       y       z     vdW  Elec       q    Type
REMARK                         _______ _______ _______ _____ _____    ______ ____
ROOT
ATOM      1  C   UNL     1       1.701   8.438  19.505  0.00  0.00    +0.000 A 
ATOM      2  C   UNL     1       1.980   8.769  18.187  0.00  0.00    +0.000 A 
ATOM      3  N   UNL     1       1.797  10.001  17.672  0.00  0.00    +0.000 NA
ATOM      4  C   UNL     1       1.267  10.938  18.498  0.00  0.00    +0.000 A 
ATOM      5  C   UNL     1       0.916  10.712  19.829  0.00  0.00    +0.000 A 
ATOM      6  C   UNL     1       1.152   9.429  20.334  0.00  0.00    +0.000 A 
ENDROOT
BRANCH   5   7
ATOM      7  N   UNL     1       0.345  11.687  20.680  0.00  0.00    +0.000 N 
ATOM      8  C   UNL     1      -0.988  12.076  20.687  0.00  0.00    +0.000 C 
ATOM      9  O   UNL     1      -1.870  11.608  19.972  0.00  0.00    +0.000 OA
ATOM     10  H   UNL     1       0.963  12.127  21.352  0.00  0.00    +0.000 HD
BRANCH   8  11
ATOM     11  C   UNL     1      -1.310  13.200  21.657  0.00  0.00    +0.000 C 
BRANCH  11  12
ATOM     12  C   UNL     1      -2.712  13.089  22.205  0.00  0.00    +0.000 A 
ATOM     13  C   UNL     1      -3.792  13.660  21.513  0.00  0.00    +0.000 A 
ATOM     14  C   UNL     1      -5.082  13.610  22.042  0.00  0.00    +0.000 A 
ATOM     15  C   UNL     1      -5.309  12.975  23.266  0.00  0.00    +0.000 A 
ATOM     16  C   UNL     1      -4.243  12.375  23.944  0.00  0.00    +0.000 A 
ATOM     17  C   UNL     1      -2.952  12.426  23.415  0.00  0.00    +0.000 A 
BRANCH  15  18
ATOM     18  C   UNL     1      -6.623  12.948  23.830  0.00  0.00    +0.000 C 
ATOM     19  N   UNL     1      -7.688  12.932  24.289  0.00  0.00    +0.000 NA
ENDBRANCH  15  18
ENDBRANCH  11  12
ENDBRANCH   8  11
ENDBRANCH   5   7
BRANCH   1  20
ATOM     20  C   UNL     1       1.895   7.056  20.005  0.00  0.00    +0.000 C 
ATOM     21  O   UNL     1       1.384   6.748  21.078  0.00  0.00    +0.000 OA
BRANCH  20  24
ATOM     22  N   UNL     1       4.296   5.176  17.967  0.00  0.00    +0.000 N 
ATOM     23  C   UNL     1       3.879   6.330  18.591  0.00  0.00    +0.000 A 
ATOM     24  C   UNL     1       2.669   6.097  19.217  0.00  0.00    +0.000 A 
ATOM     25  C   UNL     1       2.345   4.723  18.973  0.00  0.00    +0.000 A 
ATOM     26  C   UNL     1       1.265   3.906  19.351  0.00  0.00    +0.000 A 
ATOM     27  N   UNL     1       1.195   2.615  18.945  0.00  0.00    +0.000 NA
ATOM     28  C   UNL     1       2.186   2.124  18.170  0.00  0.00    +0.000 A 
ATOM     29  C   UNL     1       3.287   2.849  17.750  0.00  0.00    +0.000 A 
ATOM     30  F   UNL     1       4.217   2.284  16.970  0.00  0.00    +0.000 F 
ATOM     31  C   UNL     1       3.361   4.181  18.169  0.00  0.00    +0.000 A 
BRANCH  22  33
ATOM     32  C   UNL     1       5.395   5.187  15.744  0.00  0.00    +0.000 C 
ATOM     33  C   UNL     1       5.577   5.050  17.260  0.00  0.00    +0.000 C 
BRANCH  33  34
ATOM     34  C   UNL     1       6.607   6.078  17.765  0.00  0.00    +0.000 C 
BRANCH  34  35
ATOM     35  O   UNL     1       6.885   7.084  16.797  0.00  0.00    +0.000 OA
ATOM     36  H   UNL     1       6.669   6.721  15.919  0.00  0.00    +0.000 HD
ENDBRANCH  34  35
ENDBRANCH  33  34
ENDBRANCH  22  33
ENDBRANCH  20  24
ENDBRANCH   1  20
TORSDOF 9
ENDMDL
MODEL 7
REMARK VINA RESULT:      -7.5      2.283      3.601
REMARK  Name = 
REMARK  10 active torsions:
REMARK  status: ('A' for Active; 'I' for Inactive)
REMARK    1  A    between atoms: C_1  and  C_2
REMARK    2  A    between atoms: C_2  and  C_3
REMARK    3  A    between atoms: C_2  and  N_5
REMARK    4  A    between atoms: C_3  and  O_4
REMARK    5  A    between atoms: C_7  and  C_8
REMARK    6  A    between atoms: C_8  and  C_10
REMARK    7  A    between atoms: C_14  and  N_15
REMARK    8  A    between atoms: C_16  and  C_18
REMARK    9  A    between atoms: C_18  and  C_19
REMARK   10  A    between atoms: C_22  and  C_23
REMARK                            x       y       z     vdW  Elec       q    Type
REMARK                         _______ _______ _______ _____ _____    ______ ____
ROOT
ATOM      1  C   UNL     1       1.570   8.780  19.364  0.00  0.00    +0.000 A 
ATOM      2  C   UNL     1       1.703   7.955  20.471  0.00  0.00    +0.000 A 
ATOM      3  N   UNL     1       1.208   8.253  21.689  0.00  0.00    +0.000 NA
ATOM      4  C   UNL     1       0.590   9.454  21.821  0.00  0.00    +0.000 A 
ATOM      5  C   UNL     1       0.428  10.379  20.790  0.00  0.00    +0.000 A 
ATOM      6  C   UNL     1       0.927  10.016  19.534  0.00  0.00    +0.000 A 
ENDROOT
BRANCH   5   7
ATOM      7  N   UNL     1      -0.200  11.638  20.939  0.00  0.00    +0.000 N 
ATOM      8  C   UNL     1       0.447  12.839  21.198  0.00  0.00    +0.000 C 
ATOM      9  O   UNL     1       1.661  12.986  21.307  0.00  0.00    +0.000 OA
ATOM     10  H   UNL     1      -1.207  11.663  20.831  0.00  0.00    +0.000 HD
BRANCH   8  11
ATOM     11  C   UNL     1      -0.484  14.027  21.383  0.00  0.00    +0.000 C 
BRANCH  11  12
ATOM     12  C   UNL     1      -1.818  13.614  21.957  0.00  0.00    +0.000 A 
ATOM     13  C   UNL     1      -2.935  13.464  21.118  0.00  0.00    +0.000 A 
ATOM     14  C   UNL     1      -4.183  13.138  21.649  0.00  0.00    +0.000 A 
ATOM     15  C   UNL     1      -4.327  12.947  23.025  0.00  0.00    +0.000 A 
ATOM     16  C   UNL     1      -3.212  13.063  23.862  0.00  0.00    +0.000 A 
ATOM     17  C   UNL     1      -1.963  13.389  23.331  0.00  0.00    +0.000 A 
BRANCH  15  18
ATOM     18  C   UNL     1      -5.611  12.646  23.579  0.00  0.00    +0.000 C 
ATOM     19  N   UNL     1      -6.649  12.400  24.034  0.00  0.00    +0.000 NA
ENDBRANCH  15  18
ENDBRANCH  11  12
ENDBRANCH   8  11
ENDBRANCH   5   7
BRANCH   1  20
ATOM     20  C   UNL     1       2.162   8.410  18.056  0.00  0.00    +0.000 C 
ATOM     21  O   UNL     1       1.895   9.104  17.079  0.00  0.00    +0.000 OA
BRANCH  20  24
ATOM     22  N   UNL     1       4.901   5.976  17.887  0.00  0.00    +0.000 N 
ATOM     23  C   UNL     1       4.431   7.266  17.987  0.00  0.00    +0.000 A 
ATOM     24  C   UNL     1       3.050   7.251  17.959  0.00  0.00    +0.000 A 
ATOM     25  C   UNL     1       2.662   5.876  17.853  0.00  0.00    +0.000 A 
ATOM     26  C   UNL     1       1.415   5.229  17.791  0.00  0.00    +0.000 A 
ATOM     27  N   UNL     1       1.337   3.882  17.660  0.00  0.00    +0.000 NA
ATOM     28  C   UNL     1       2.483   3.170  17.591  0.00  0.00    +0.000 A 
ATOM     29  C   UNL     1       3.753   3.717  17.645  0.00  0.00    +0.000 A 
ATOM     30  F   UNL     1       4.835   2.935  17.557  0.00  0.00    +0.000 F 
ATOM     31  C   UNL     1       3.834   5.107  17.782  0.00  0.00    +0.000 A 
BRANCH  22  33
ATOM     32  C   UNL     1       7.204   6.725  17.352  0.00  0.00    +0.000 C 
ATOM     33  C   UNL     1       6.324   5.621  17.951  0.00  0.00    +0.000 C 
BRANCH  33  34
ATOM     34  C   UNL     1       6.768   5.314  19.393  0.00  0.00    +0.000 C 
BRANCH  34  35
ATOM     35  O   UNL     1       8.141   5.619  19.612  0.00  0.00    +0.000 OA
ATOM     36  H   UNL     1       8.430   6.218  18.901  0.00  0.00    +0.000 HD
ENDBRANCH  34  35
ENDBRANCH  33  34
ENDBRANCH  22  33
ENDBRANCH  20  24
ENDBRANCH   1  20
TORSDOF 9
ENDMDL
MODEL 8
REMARK VINA RESULT:      -7.5      1.146      1.211
REMARK  Name = 
REMARK  10 active torsions:
REMARK  status: ('A' for Active; 'I' for Inactive)
REMARK    1  A    between atoms: C_1  and  C_2
REMARK    2  A    between atoms: C_2  and  C_3
REMARK    3  A    between atoms: C_2  and  N_5
REMARK    4  A    between atoms: C_3  and  O_4
REMARK    5  A    between atoms: C_7  and  C_8
REMARK    6  A    between atoms: C_8  and  C_10
REMARK    7  A    between atoms: C_14  and  N_15
REMARK    8  A    between atoms: C_16  and  C_18
REMARK    9  A    between atoms: C_18  and  C_19
REMARK   10  A    between atoms: C_22  and  C_23
REMARK                            x       y       z     vdW  Elec       q    Type
REMARK                         _______ _______ _______ _____ _____    ______ ____
ROOT
ATOM      1  C   UNL     1       1.828   8.388  19.334  0.00  0.00    +0.000 A 
ATOM      2  C   UNL     1       1.813   7.523  20.419  0.00  0.00    +0.000 A 
ATOM      3  N   UNL     1       1.242   7.821  21.603  0.00  0.00    +0.000 NA
ATOM      4  C   UNL     1       0.698   9.058  21.727  0.00  0.00    +0.000 A 
ATOM      5  C   UNL     1       0.684  10.021  20.718  0.00  0.00    +0.000 A 
ATOM      6  C   UNL     1       1.258   9.661  19.495  0.00  0.00    +0.000 A 
ENDROOT
BRANCH   5   7
ATOM      7  N   UNL     1       0.133  11.317  20.859  0.00  0.00    +0.000 N 
ATOM      8  C   UNL     1      -0.413  11.842  22.023  0.00  0.00    +0.000 C 
ATOM      9  O   UNL     1      -0.470  11.266  23.107  0.00  0.00    +0.000 OA
ATOM     10  H   UNL     1       0.154  11.915  20.042  0.00  0.00    +0.000 HD
BRANCH   8  11
ATOM     11  C   UNL     1      -1.000  13.235  21.869  0.00  0.00    +0.000 C 
BRANCH  11  12
ATOM     12  C   UNL     1      -0.186  14.091  20.930  0.00  0.00    +0.000 A 
ATOM     13  C   UNL     1       1.068  14.585  21.327  0.00  0.00    +0.000 A 
ATOM     14  C   UNL     1       1.800  15.422  20.485  0.00  0.00    +0.000 A 
ATOM     15  C   UNL     1       1.291  15.766  19.230  0.00  0.00    +0.000 A 
ATOM     16  C   UNL     1       0.060  15.251  18.815  0.00  0.00    +0.000 A 
ATOM     17  C   UNL     1      -0.674  14.413  19.658  0.00  0.00    +0.000 A 
BRANCH  15  18
ATOM     18  C   UNL     1       2.022  16.651  18.375  0.00  0.00    +0.000 C 
ATOM     19  N   UNL     1       2.610  17.372  17.684  0.00  0.00    +0.000 NA
ENDBRANCH  15  18
ENDBRANCH  11  12
ENDBRANCH   8  11
ENDBRANCH   5   7
BRANCH   1  20
ATOM     20  C   UNL     1       2.499   8.014  18.066  0.00  0.00    +0.000 C 
ATOM     21  O   UNL     1       2.378   8.763  17.101  0.00  0.00    +0.000 OA
BRANCH  20  24
ATOM     22  N   UNL     1       5.033   5.364  17.965  0.00  0.00    +0.000 N 
ATOM     23  C   UNL     1       4.668   6.689  18.046  0.00  0.00    +0.000 A 
ATOM     24  C   UNL     1       3.291   6.786  17.994  0.00  0.00    +0.000 A 
ATOM     25  C   UNL     1       2.794   5.446  17.891  0.00  0.00    +0.000 A 
ATOM     26  C   UNL     1       1.500   4.902  17.813  0.00  0.00    +0.000 A 
ATOM     27  N   UNL     1       1.314   3.565  17.690  0.00  0.00    +0.000 NA
ATOM     28  C   UNL     1       2.399   2.762  17.647  0.00  0.00    +0.000 A 
ATOM     29  C   UNL     1       3.708   3.203  17.720  0.00  0.00    +0.000 A 
ATOM     30  F   UNL     1       4.724   2.335  17.656  0.00  0.00    +0.000 F 
ATOM     31  C   UNL     1       3.900   4.583  17.847  0.00  0.00    +0.000 A 
BRANCH  22  33
ATOM     32  C   UNL     1       7.014   4.627  16.667  0.00  0.00    +0.000 C 
ATOM     33  C   UNL     1       6.421   4.894  18.056  0.00  0.00    +0.000 C 
BRANCH  33  34
ATOM     34  C   UNL     1       7.307   5.890  18.827  0.00  0.00    +0.000 C 
BRANCH  34  35
ATOM     35  O   UNL     1       7.576   5.456  20.156  0.00  0.00    +0.000 OA
ATOM     36  H   UNL     1       8.299   4.804  20.115  0.00  0.00    +0.000 HD
ENDBRANCH  34  35
ENDBRANCH  33  34
ENDBRANCH  22  33
ENDBRANCH  20  24
ENDBRANCH   1  20
TORSDOF 9
ENDMDL
MODEL 9
REMARK VINA RESULT:      -7.5      2.301      3.511
REMARK  Name = 
REMARK  10 active torsions:
REMARK  status: ('A' for Active; 'I' for Inactive)
REMARK    1  A    between atoms: C_1  and  C_2
REMARK    2  A    between atoms: C_2  and  C_3
REMARK    3  A    between atoms: C_2  and  N_5
REMARK    4  A    between atoms: C_3  and  O_4
REMARK    5  A    between atoms: C_7  and  C_8
REMARK    6  A    between atoms: C_8  and  C_10
REMARK    7  A    between atoms: C_14  and  N_15
REMARK    8  A    between atoms: C_16  and  C_18
REMARK    9  A    between atoms: C_18  and  C_19
REMARK   10  A    between atoms: C_22  and  C_23
REMARK                            x       y       z     vdW  Elec       q    Type
REMARK                         _______ _______ _______ _____ _____    ______ ____
ROOT
ATOM      1  C   UNL     1       1.736   8.353  19.272  0.00  0.00    +0.000 A 
ATOM      2  C   UNL     1       1.962   7.518  20.357  0.00  0.00    +0.000 A 
ATOM      3  N   UNL     1       1.399   7.700  21.569  0.00  0.00    +0.000 NA
ATOM      4  C   UNL     1       0.609   8.793  21.719  0.00  0.00    +0.000 A 
ATOM      5  C   UNL     1       0.338   9.719  20.711  0.00  0.00    +0.000 A 
ATOM      6  C   UNL     1       0.915   9.475  19.460  0.00  0.00    +0.000 A 
ENDROOT
BRANCH   5   7
ATOM      7  N   UNL     1      -0.470  10.867  20.880  0.00  0.00    +0.000 N 
ATOM      8  C   UNL     1      -0.009  12.150  21.144  0.00  0.00    +0.000 C 
ATOM      9  O   UNL     1       1.170  12.478  21.241  0.00  0.00    +0.000 OA
ATOM     10  H   UNL     1      -1.471  10.741  20.784  0.00  0.00    +0.000 HD
BRANCH   8  11
ATOM     11  C   UNL     1      -1.106  13.182  21.352  0.00  0.00    +0.000 C 
BRANCH  11  12
ATOM     12  C   UNL     1      -2.374  12.813  20.621  0.00  0.00    +0.000 A 
ATOM     13  C   UNL     1      -3.623  12.966  21.245  0.00  0.00    +0.000 A 
ATOM     14  C   UNL     1      -4.794  12.574  20.597  0.00  0.00    +0.000 A 
ATOM     15  C   UNL     1      -4.731  12.035  19.309  0.00  0.00    +0.000 A 
ATOM     16  C   UNL     1      -3.494  11.911  18.669  0.00  0.00    +0.000 A 
ATOM     17  C   UNL     1      -2.322  12.303  19.318  0.00  0.00    +0.000 A 
BRANCH  15  18
ATOM     18  C   UNL     1      -5.925  11.601  18.651  0.00  0.00    +0.000 C 
ATOM     19  N   UNL     1      -6.895  11.248  18.124  0.00  0.00    +0.000 NA
ENDBRANCH  15  18
ENDBRANCH  11  12
ENDBRANCH   8  11
ENDBRANCH   5   7
BRANCH   1  20
ATOM     20  C   UNL     1       2.408   8.117  17.972  0.00  0.00    +0.000 C 
ATOM     21  O   UNL     1       2.280   8.960  17.089  0.00  0.00    +0.000 OA
BRANCH  20  24
ATOM     22  N   UNL     1       4.960   5.533  17.459  0.00  0.00    +0.000 N 
ATOM     23  C   UNL     1       4.579   6.848  17.596  0.00  0.00    +0.000 A 
ATOM     24  C   UNL     1       3.209   6.910  17.772  0.00  0.00    +0.000 A 
ATOM     25  C   UNL     1       2.739   5.557  17.758  0.00  0.00    +0.000 A 
ATOM     26  C   UNL     1       1.464   4.978  17.895  0.00  0.00    +0.000 A 
ATOM     27  N   UNL     1       1.297   3.636  17.809  0.00  0.00    +0.000 NA
ATOM     28  C   UNL     1       2.381   2.861  17.589  0.00  0.00    +0.000 A 
ATOM     29  C   UNL     1       3.672   3.337  17.443  0.00  0.00    +0.000 A 
ATOM     30  F   UNL     1       4.687   2.495  17.214  0.00  0.00    +0.000 F 
ATOM     31  C   UNL     1       3.845   4.722  17.533  0.00  0.00    +0.000 A 
BRANCH  22  33
ATOM     32  C   UNL     1       6.678   4.703  15.876  0.00  0.00    +0.000 C 
ATOM     33  C   UNL     1       6.357   5.100  17.321  0.00  0.00    +0.000 C 
BRANCH  33  34
ATOM     34  C   UNL     1       7.337   6.186  17.803  0.00  0.00    +0.000 C 
BRANCH  34  35
ATOM     35  O   UNL     1       7.766   7.035  16.743  0.00  0.00    +0.000 OA
ATOM     36  H   UNL     1       8.214   6.480  16.080  0.00  0.00    +0.000 HD
ENDBRANCH  34  35
ENDBRANCH  33  34
ENDBRANCH  22  33
ENDBRANCH  20  24
ENDBRANCH   1  20
TORSDOF 9
ENDMDL
