MODEL 1
REMARK VINA RESULT:      -8.1      0.000      0.000
REMARK  Name = 
REMARK  4 active torsions:
REMARK  status: ('A' for Active; 'I' for Inactive)
REMARK    1  A    between atoms: C_1  and  N_2
REMARK    2  A    between atoms: N_2  and  C_3
REMARK    3  A    between atoms: N_2  and  C_4
REMARK    4  A    between atoms: N_13  and  C_14
REMARK                            x       y       z     vdW  Elec       q    Type
REMARK                         _______ _______ _______ _____ _____    ______ ____
ROOT
ATOM      1  C   UNL     1      -0.006  11.814  19.982  0.00  0.00    +0.000 A 
ATOM      2  C   UNL     1      -0.775  12.515  20.942  0.00  0.00    +0.000 A 
ATOM      3  C   UNL     1      -1.150  11.931  22.137  0.00  0.00    +0.000 A 
ATOM      4  N   UNL     1      -0.837  10.690  22.507  0.00  0.00    +0.000 NA
ATOM      5  C   UNL     1      -0.101  10.016  21.603  0.00  0.00    +0.000 A 
ATOM      6  S   UNL     1       0.358   8.422  21.991  0.00  0.00    +0.000 S 
ATOM      7  C   UNL     1       1.204   8.268  20.543  0.00  0.00    +0.000 A 
ATOM      8  C   UNL     1       1.912   7.074  20.175  0.00  0.00    +0.000 A 
ATOM      9  O   UNL     1       1.930   6.067  20.873  0.00  0.00    +0.000 OA
ATOM     10  N   UNL     1       2.569   7.170  18.935  0.00  0.00    +0.000 N 
ATOM     11  C   UNL     1       2.461   8.363  18.235  0.00  0.00    +0.000 A 
ATOM     12  N   UNL     1       1.822   9.445  18.557  0.00  0.00    +0.000 NA
ATOM     13  C   UNL     1       1.143   9.399  19.779  0.00  0.00    +0.000 A 
ATOM     14  C   UNL     1       0.355  10.469  20.355  0.00  0.00    +0.000 A 
ENDROOT
BRANCH  10  15
ATOM     15  C   UNL     1       3.352   5.993  18.418  0.00  0.00    +0.000 C 
ATOM     16  C   UNL     1       4.218   5.346  19.542  0.00  0.00    +0.000 C 
ATOM     17  C   UNL     1       5.022   4.141  19.011  0.00  0.00    +0.000 C 
ATOM     18  C   UNL     1       4.055   3.078  18.474  0.00  0.00    +0.000 C 
ATOM     19  C   UNL     1       3.231   3.664  17.322  0.00  0.00    +0.000 C 
ATOM     20  C   UNL     1       4.151   4.146  16.193  0.00  0.00    +0.000 C 
ATOM     21  C   UNL     1       5.115   5.210  16.730  0.00  0.00    +0.000 C 
ATOM     22  C   UNL     1       5.946   4.600  17.872  0.00  0.00    +0.000 C 
ATOM     23  C   UNL     1       4.312   6.414  17.262  0.00  0.00    +0.000 C 
ATOM     24  C   UNL     1       2.432   4.862  17.849  0.00  0.00    +0.000 C 
ENDBRANCH  10  15
BRANCH   1  26
ATOM     25  C   UNL     1       1.677  13.048  18.625  0.00  0.00    +0.000 C 
ATOM     26  N   UNL     1       0.347  12.467  18.788  0.00  0.00    +0.000 N 
ATOM     27  C   UNL     1      -0.718  12.992  17.944  0.00  0.00    +0.000 C 
ENDBRANCH   1  26
TORSDOF 2
ENDMDL
MODEL 2
REMARK VINA RESULT:      -8.0      0.124      1.454
REMARK  Name = 
REMARK  4 active torsions:
REMARK  status: ('A' for Active; 'I' for Inactive)
REMARK    1  A    between atoms: C_1  and  N_2
REMARK    2  A    between atoms: N_2  and  C_3
REMARK    3  A    between atoms: N_2  and  C_4
REMARK    4  A    between atoms: N_13  and  C_14
REMARK                            x       y       z     vdW  Elec       q    Type
REMARK                         _______ _______ _______ _____ _____    ______ ____
ROOT
ATOM      1  C   UNL     1      -0.007  11.902  20.061  0.00  0.00    +0.000 A 
ATOM      2  C   UNL     1      -0.767  12.612  21.023  0.00  0.00    +0.000 A 
ATOM      3  C   UNL     1      -1.153  12.030  22.215  0.00  0.00    +0.000 A 
ATOM      4  N   UNL     1      -0.860  10.783  22.581  0.00  0.00    +0.000 NA
ATOM      5  C   UNL     1      -0.133  10.101  21.676  0.00  0.00    +0.000 A 
ATOM      6  S   UNL     1       0.301   8.498  22.058  0.00  0.00    +0.000 S 
ATOM      7  C   UNL     1       1.146   8.336  20.612  0.00  0.00    +0.000 A 
ATOM      8  C   UNL     1       1.836   7.133  20.240  0.00  0.00    +0.000 A 
ATOM      9  O   UNL     1       1.837   6.123  20.935  0.00  0.00    +0.000 OA
ATOM     10  N   UNL     1       2.496   7.223  19.002  0.00  0.00    +0.000 N 
ATOM     11  C   UNL     1       2.408   8.420  18.306  0.00  0.00    +0.000 A 
ATOM     12  N   UNL     1       1.786   9.511  18.631  0.00  0.00    +0.000 NA
ATOM     13  C   UNL     1       1.104   9.471  19.851  0.00  0.00    +0.000 A 
ATOM     14  C   UNL     1       0.332  10.551  20.430  0.00  0.00    +0.000 A 
ENDROOT
BRANCH  10  15
ATOM     15  C   UNL     1       3.262   6.036  18.482  0.00  0.00    +0.000 C 
ATOM     16  C   UNL     1       4.230   6.442  17.328  0.00  0.00    +0.000 C 
ATOM     17  C   UNL     1       5.013   5.225  16.795  0.00  0.00    +0.000 C 
ATOM     18  C   UNL     1       5.845   4.614  17.930  0.00  0.00    +0.000 C 
ATOM     19  C   UNL     1       4.916   4.145  19.056  0.00  0.00    +0.000 C 
ATOM     20  C   UNL     1       3.915   3.108  18.531  0.00  0.00    +0.000 C 
ATOM     21  C   UNL     1       3.083   3.720  17.398  0.00  0.00    +0.000 C 
ATOM     22  C   UNL     1       4.028   4.167  16.270  0.00  0.00    +0.000 C 
ATOM     23  C   UNL     1       2.300   4.937  17.931  0.00  0.00    +0.000 C 
ATOM     24  C   UNL     1       4.137   5.355  19.586  0.00  0.00    +0.000 C 
ENDBRANCH  10  15
BRANCH   1  26
ATOM     25  C   UNL     1       1.689  13.134  18.720  0.00  0.00    +0.000 C 
ATOM     26  N   UNL     1       0.358  12.555  18.871  0.00  0.00    +0.000 N 
ATOM     27  C   UNL     1      -0.699  13.079  18.015  0.00  0.00    +0.000 C 
ENDBRANCH   1  26
TORSDOF 2
ENDMDL
MODEL 3
REMARK VINA RESULT:      -8.0      0.035      1.441
REMARK  Name = 
REMARK  4 active torsions:
REMARK  status: ('A' for Active; 'I' for Inactive)
REMARK    1  A    between atoms: C_1  and  N_2
REMARK    2  A    between atoms: N_2  and  C_3
REMARK    3  A    between atoms: N_2  and  C_4
REMARK    4  A    between atoms: N_13  and  C_14
REMARK                            x       y       z     vdW  Elec       q    Type
REMARK                         _______ _______ _______ _____ _____    ______ ____
ROOT
ATOM      1  C   UNL     1      -0.002  11.838  19.974  0.00  0.00    +0.000 A 
ATOM      2  C   UNL     1      -0.765  12.545  20.934  0.00  0.00    +0.000 A 
ATOM      3  C   UNL     1      -1.136  11.968  22.134  0.00  0.00    +0.000 A 
ATOM      4  N   UNL     1      -0.825  10.728  22.507  0.00  0.00    +0.000 NA
ATOM      5  C   UNL     1      -0.094  10.048  21.603  0.00  0.00    +0.000 A 
ATOM      6  S   UNL     1       0.363   8.454  21.996  0.00  0.00    +0.000 S 
ATOM      7  C   UNL     1       1.201   8.291  20.546  0.00  0.00    +0.000 A 
ATOM      8  C   UNL     1       1.905   7.094  20.180  0.00  0.00    +0.000 A 
ATOM      9  O   UNL     1       1.923   6.090  20.883  0.00  0.00    +0.000 OA
ATOM     10  N   UNL     1       2.556   7.183  18.936  0.00  0.00    +0.000 N 
ATOM     11  C   UNL     1       2.448   8.373  18.231  0.00  0.00    +0.000 A 
ATOM     12  N   UNL     1       1.813   9.458  18.552  0.00  0.00    +0.000 NA
ATOM     13  C   UNL     1       1.140   9.419  19.776  0.00  0.00    +0.000 A 
ATOM     14  C   UNL     1       0.357  10.494  20.351  0.00  0.00    +0.000 A 
ENDROOT
BRANCH  10  15
ATOM     15  C   UNL     1       3.334   6.001  18.421  0.00  0.00    +0.000 C 
ATOM     16  C   UNL     1       2.386   4.882  17.889  0.00  0.00    +0.000 C 
ATOM     17  C   UNL     1       3.184   3.672  17.363  0.00  0.00    +0.000 C 
ATOM     18  C   UNL     1       4.096   4.119  16.214  0.00  0.00    +0.000 C 
ATOM     19  C   UNL     1       5.084   5.176  16.720  0.00  0.00    +0.000 C 
ATOM     20  C   UNL     1       5.935   4.612  17.865  0.00  0.00    +0.000 C 
ATOM     21  C   UNL     1       5.023   4.167  19.015  0.00  0.00    +0.000 C 
ATOM     22  C   UNL     1       4.051   3.095  18.494  0.00  0.00    +0.000 C 
ATOM     23  C   UNL     1       4.224   5.377  19.540  0.00  0.00    +0.000 C 
ATOM     24  C   UNL     1       4.292   6.380  17.243  0.00  0.00    +0.000 C 
ENDBRANCH  10  15
BRANCH   1  26
ATOM     25  C   UNL     1       1.686  13.039  18.594  0.00  0.00    +0.000 C 
ATOM     26  N   UNL     1       0.347  12.485  18.775  0.00  0.00    +0.000 N 
ATOM     27  C   UNL     1      -0.719  13.031  17.945  0.00  0.00    +0.000 C 
ENDBRANCH   1  26
TORSDOF 2
ENDMDL
MODEL 4
REMARK VINA RESULT:      -8.0      1.779      3.382
REMARK  Name = 
REMARK  4 active torsions:
REMARK  status: ('A' for Active; 'I' for Inactive)
REMARK    1  A    between atoms: C_1  and  N_2
REMARK    2  A    between atoms: N_2  and  C_3
REMARK    3  A    between atoms: N_2  and  C_4
REMARK    4  A    between atoms: N_13  and  C_14
REMARK                            x       y       z     vdW  Elec       q    Type
REMARK                         _______ _______ _______ _____ _____    ______ ____
ROOT
ATOM      1  C   UNL     1      -0.109  11.030  21.444  0.00  0.00    +0.000 A 
ATOM      2  C   UNL     1      -0.323  12.400  21.155  0.00  0.00    +0.000 A 
ATOM      3  C   UNL     1       0.174  12.986  20.007  0.00  0.00    +0.000 A 
ATOM      4  N   UNL     1       0.882  12.349  19.076  0.00  0.00    +0.000 NA
ATOM      5  C   UNL     1       1.087  11.044  19.337  0.00  0.00    +0.000 A 
ATOM      6  S   UNL     1       1.975  10.140  18.198  0.00  0.00    +0.000 S 
ATOM      7  C   UNL     1       1.796   8.735  19.107  0.00  0.00    +0.000 A 
ATOM      8  C   UNL     1       2.337   7.468  18.703  0.00  0.00    +0.000 A 
ATOM      9  O   UNL     1       2.995   7.320  17.680  0.00  0.00    +0.000 OA
ATOM     10  N   UNL     1       2.049   6.423  19.599  0.00  0.00    +0.000 N 
ATOM     11  C   UNL     1       1.302   6.724  20.729  0.00  0.00    +0.000 A 
ATOM     12  N   UNL     1       0.811   7.866  21.104  0.00  0.00    +0.000 NA
ATOM     13  C   UNL     1       1.078   8.942  20.252  0.00  0.00    +0.000 A 
ATOM     14  C   UNL     1       0.649  10.311  20.451  0.00  0.00    +0.000 A 
ENDROOT
BRANCH  10  15
ATOM     15  C   UNL     1       2.554   5.035  19.306  0.00  0.00    +0.000 C 
ATOM     16  C   UNL     1       2.051   4.526  17.919  0.00  0.00    +0.000 C 
ATOM     17  C   UNL     1       2.567   3.104  17.621  0.00  0.00    +0.000 C 
ATOM     18  C   UNL     1       4.101   3.109  17.606  0.00  0.00    +0.000 C 
ATOM     19  C   UNL     1       4.629   3.544  18.977  0.00  0.00    +0.000 C 
ATOM     20  C   UNL     1       4.125   2.598  20.073  0.00  0.00    +0.000 C 
ATOM     21  C   UNL     1       2.592   2.595  20.089  0.00  0.00    +0.000 C 
ATOM     22  C   UNL     1       2.079   2.139  18.713  0.00  0.00    +0.000 C 
ATOM     23  C   UNL     1       2.076   4.018  20.388  0.00  0.00    +0.000 C 
ATOM     24  C   UNL     1       4.116   4.958  19.275  0.00  0.00    +0.000 C 
ENDBRANCH  10  15
BRANCH   1  26
ATOM     25  C   UNL     1      -1.780  11.139  23.285  0.00  0.00    +0.000 C 
ATOM     26  N   UNL     1      -0.647  10.495  22.627  0.00  0.00    +0.000 N 
ATOM     27  C   UNL     1       0.196   9.631  23.444  0.00  0.00    +0.000 C 
ENDBRANCH   1  26
TORSDOF 2
ENDMDL
MODEL 5
REMARK VINA RESULT:      -8.0      1.780      3.042
REMARK  Name = 
REMARK  4 active torsions:
REMARK  status: ('A' for Active; 'I' for Inactive)
REMARK    1  A    between atoms: C_1  and  N_2
REMARK    2  A    between atoms: N_2  and  C_3
REMARK    3  A    between atoms: N_2  and  C_4
REMARK    4  A    between atoms: N_13  and  C_14
REMARK                            x       y       z     vdW  Elec       q    Type
REMARK                         _______ _______ _______ _____ _____    ______ ____
ROOT
ATOM      1  C   UNL     1      -0.091  11.032  21.389  0.00  0.00    +0.000 A 
ATOM      2  C   UNL     1      -0.309  12.399  21.089  0.00  0.00    +0.000 A 
ATOM      3  C   UNL     1       0.179  12.973  19.931  0.00  0.00    +0.000 A 
ATOM      4  N   UNL     1       0.880  12.328  19.001  0.00  0.00    +0.000 NA
ATOM      5  C   UNL     1       1.089  11.026  19.274  0.00  0.00    +0.000 A 
ATOM      6  S   UNL     1       1.969  10.112  18.137  0.00  0.00    +0.000 S 
ATOM      7  C   UNL     1       1.798   8.716  19.062  0.00  0.00    +0.000 A 
ATOM      8  C   UNL     1       2.337   7.445  18.667  0.00  0.00    +0.000 A 
ATOM      9  O   UNL     1       2.988   7.287  17.640  0.00  0.00    +0.000 OA
ATOM     10  N   UNL     1       2.057   6.409  19.575  0.00  0.00    +0.000 N 
ATOM     11  C   UNL     1       1.318   6.721  20.708  0.00  0.00    +0.000 A 
ATOM     12  N   UNL     1       0.830   7.865  21.075  0.00  0.00    +0.000 NA
ATOM     13  C   UNL     1       1.088   8.933  20.210  0.00  0.00    +0.000 A 
ATOM     14  C   UNL     1       0.660  10.303  20.399  0.00  0.00    +0.000 A 
ENDROOT
BRANCH  10  15
ATOM     15  C   UNL     1       2.561   5.019  19.292  0.00  0.00    +0.000 C 
ATOM     16  C   UNL     1       2.032   3.995  20.343  0.00  0.00    +0.000 C 
ATOM     17  C   UNL     1       2.551   2.571  20.053  0.00  0.00    +0.000 C 
ATOM     18  C   UNL     1       2.075   2.126  18.664  0.00  0.00    +0.000 C 
ATOM     19  C   UNL     1       2.631   3.078  17.599  0.00  0.00    +0.000 C 
ATOM     20  C   UNL     1       4.164   3.094  17.640  0.00  0.00    +0.000 C 
ATOM     21  C   UNL     1       4.639   3.541  19.028  0.00  0.00    +0.000 C 
ATOM     22  C   UNL     1       4.088   2.567  20.082  0.00  0.00    +0.000 C 
ATOM     23  C   UNL     1       4.120   4.965  19.318  0.00  0.00    +0.000 C 
ATOM     24  C   UNL     1       2.117   4.493  17.886  0.00  0.00    +0.000 C 
ENDBRANCH  10  15
BRANCH   1  26
ATOM     25  C   UNL     1      -1.731  11.174  23.257  0.00  0.00    +0.000 C 
ATOM     26  N   UNL     1      -0.620  10.508  22.582  0.00  0.00    +0.000 N 
ATOM     27  C   UNL     1       0.220   9.631  23.387  0.00  0.00    +0.000 C 
ENDBRANCH   1  26
TORSDOF 2
ENDMDL
MODEL 6
REMARK VINA RESULT:      -8.0      1.768      3.071
REMARK  Name = 
REMARK  4 active torsions:
REMARK  status: ('A' for Active; 'I' for Inactive)
REMARK    1  A    between atoms: C_1  and  N_2
REMARK    2  A    between atoms: N_2  and  C_3
REMARK    3  A    between atoms: N_2  and  C_4
REMARK    4  A    between atoms: N_13  and  C_14
REMARK                            x       y       z     vdW  Elec       q    Type
REMARK                         _______ _______ _______ _____ _____    ______ ____
ROOT
ATOM      1  C   UNL     1      -0.078  11.079  21.371  0.00  0.00    +0.000 A 
ATOM      2  C   UNL     1      -0.291  12.449  21.080  0.00  0.00    +0.000 A 
ATOM      3  C   UNL     1       0.209  13.033  19.933  0.00  0.00    +0.000 A 
ATOM      4  N   UNL     1       0.919  12.395  19.004  0.00  0.00    +0.000 NA
ATOM      5  C   UNL     1       1.123  11.090  19.267  0.00  0.00    +0.000 A 
ATOM      6  S   UNL     1       2.014  10.186  18.130  0.00  0.00    +0.000 S 
ATOM      7  C   UNL     1       1.831   8.781  19.041  0.00  0.00    +0.000 A 
ATOM      8  C   UNL     1       2.372   7.514  18.639  0.00  0.00    +0.000 A 
ATOM      9  O   UNL     1       3.033   7.364  17.618  0.00  0.00    +0.000 OA
ATOM     10  N   UNL     1       2.082   6.469  19.535  0.00  0.00    +0.000 N 
ATOM     11  C   UNL     1       1.332   6.772  20.663  0.00  0.00    +0.000 A 
ATOM     12  N   UNL     1       0.841   7.913  21.035  0.00  0.00    +0.000 NA
ATOM     13  C   UNL     1       1.110   8.989  20.183  0.00  0.00    +0.000 A 
ATOM     14  C   UNL     1       0.682  10.358  20.380  0.00  0.00    +0.000 A 
ENDROOT
BRANCH  10  15
ATOM     15  C   UNL     1       2.586   5.081  19.243  0.00  0.00    +0.000 C 
ATOM     16  C   UNL     1       4.145   5.036  19.209  0.00  0.00    +0.000 C 
ATOM     17  C   UNL     1       4.661   3.614  18.909  0.00  0.00    +0.000 C 
ATOM     18  C   UNL     1       4.175   2.652  20.000  0.00  0.00    +0.000 C 
ATOM     19  C   UNL     1       2.642   2.624  20.018  0.00  0.00    +0.000 C 
ATOM     20  C   UNL     1       2.096   2.180  18.655  0.00  0.00    +0.000 C 
ATOM     21  C   UNL     1       2.581   3.143  17.565  0.00  0.00    +0.000 C 
ATOM     22  C   UNL     1       4.119   3.145  17.549  0.00  0.00    +0.000 C 
ATOM     23  C   UNL     1       2.066   4.566  17.866  0.00  0.00    +0.000 C 
ATOM     24  C   UNL     1       2.128   4.038  20.316  0.00  0.00    +0.000 C 
ENDBRANCH  10  15
BRANCH   1  26
ATOM     25  C   UNL     1      -1.747  11.197  23.214  0.00  0.00    +0.000 C 
ATOM     26  N   UNL     1      -0.620  10.544  22.553  0.00  0.00    +0.000 N 
ATOM     27  C   UNL     1       0.216   9.670  23.366  0.00  0.00    +0.000 C 
ENDBRANCH   1  26
TORSDOF 2
ENDMDL
MODEL 7
REMARK VINA RESULT:      -7.7      1.723      7.584
REMARK  Name = 
REMARK  4 active torsions:
REMARK  status: ('A' for Active; 'I' for Inactive)
REMARK    1  A    between atoms: C_1  and  N_2
REMARK    2  A    between atoms: N_2  and  C_3
REMARK    3  A    between atoms: N_2  and  C_4
REMARK    4  A    between atoms: N_13  and  C_14
REMARK                            x       y       z     vdW  Elec       q    Type
REMARK                         _______ _______ _______ _____ _____    ______ ____
ROOT
ATOM      1  C   UNL     1       4.478   4.867  17.771  0.00  0.00    +0.000 A 
ATOM      2  C   UNL     1       4.798   3.521  18.073  0.00  0.00    +0.000 A 
ATOM      3  C   UNL     1       4.259   2.876  19.169  0.00  0.00    +0.000 A 
ATOM      4  N   UNL     1       3.407   3.428  20.031  0.00  0.00    +0.000 NA
ATOM      5  C   UNL     1       3.091   4.706  19.750  0.00  0.00    +0.000 A 
ATOM      6  S   UNL     1       1.997   5.496  20.791  0.00  0.00    +0.000 S 
ATOM      7  C   UNL     1       2.058   6.898  19.862  0.00  0.00    +0.000 A 
ATOM      8  C   UNL     1       1.306   8.080  20.179  0.00  0.00    +0.000 A 
ATOM      9  O   UNL     1       0.586   8.166  21.166  0.00  0.00    +0.000 OA
ATOM     10  N   UNL     1       1.488   9.126  19.256  0.00  0.00    +0.000 N 
ATOM     11  C   UNL     1       2.341   8.905  18.185  0.00  0.00    +0.000 A 
ATOM     12  N   UNL     1       3.026   7.843  17.891  0.00  0.00    +0.000 NA
ATOM     13  C   UNL     1       2.889   6.775  18.783  0.00  0.00    +0.000 A 
ATOM     14  C   UNL     1       3.551   5.491  18.681  0.00  0.00    +0.000 A 
ENDROOT
BRANCH  10  15
ATOM     15  C   UNL     1       0.762  10.429  19.461  0.00  0.00    +0.000 C 
ATOM     16  C   UNL     1      -0.736  10.320  19.038  0.00  0.00    +0.000 C 
ATOM     17  C   UNL     1      -1.478  11.656  19.247  0.00  0.00    +0.000 C 
ATOM     18  C   UNL     1      -1.423  12.046  20.729  0.00  0.00    +0.000 C 
ATOM     19  C   UNL     1       0.037  12.224  21.162  0.00  0.00    +0.000 C 
ATOM     20  C   UNL     1       0.722  13.305  20.316  0.00  0.00    +0.000 C 
ATOM     21  C   UNL     1       0.668  12.912  18.835  0.00  0.00    +0.000 C 
ATOM     22  C   UNL     1      -0.802  12.757  18.413  0.00  0.00    +0.000 C 
ATOM     23  C   UNL     1       1.410  11.576  18.626  0.00  0.00    +0.000 C 
ATOM     24  C   UNL     1       0.776  10.896  20.955  0.00  0.00    +0.000 C 
ENDBRANCH  10  15
BRANCH   1  26
ATOM     25  C   UNL     1       5.133   4.734  15.373  0.00  0.00    +0.000 C 
ATOM     26  N   UNL     1       5.056   5.463  16.636  0.00  0.00    +0.000 N 
ATOM     27  C   UNL     1       5.993   6.561  16.831  0.00  0.00    +0.000 C 
ENDBRANCH   1  26
TORSDOF 2
ENDMDL
MODEL 8
REMARK VINA RESULT:      -7.7      1.722      7.583
REMARK  Name = 
REMARK  4 active torsions:
REMARK  status: ('A' for Active; 'I' for Inactive)
REMARK    1  A    between atoms: C_1  and  N_2
REMARK    2  A    between atoms: N_2  and  C_3
REMARK    3  A    between atoms: N_2  and  C_4
REMARK    4  A    between atoms: N_13  and  C_14
REMARK                            x       y       z     vdW  Elec       q    Type
REMARK                         _______ _______ _______ _____ _____    ______ ____
ROOT
ATOM      1  C   UNL     1       4.469   4.879  17.779  0.00  0.00    +0.000 A 
ATOM      2  C   UNL     1       4.792   3.536  18.090  0.00  0.00    +0.000 A 
ATOM      3  C   UNL     1       4.259   2.898  19.193  0.00  0.00    +0.000 A 
ATOM      4  N   UNL     1       3.408   3.455  20.054  0.00  0.00    +0.000 NA
ATOM      5  C   UNL     1       3.089   4.731  19.764  0.00  0.00    +0.000 A 
ATOM      6  S   UNL     1       1.998   5.527  20.803  0.00  0.00    +0.000 S 
ATOM      7  C   UNL     1       2.054   6.922  19.864  0.00  0.00    +0.000 A 
ATOM      8  C   UNL     1       1.301   8.105  20.175  0.00  0.00    +0.000 A 
ATOM      9  O   UNL     1       0.583   8.197  21.165  0.00  0.00    +0.000 OA
ATOM     10  N   UNL     1       1.477   9.144  19.245  0.00  0.00    +0.000 N 
ATOM     11  C   UNL     1       2.327   8.917  18.172  0.00  0.00    +0.000 A 
ATOM     12  N   UNL     1       3.014   7.854  17.883  0.00  0.00    +0.000 NA
ATOM     13  C   UNL     1       2.881   6.793  18.784  0.00  0.00    +0.000 A 
ATOM     14  C   UNL     1       3.545   5.509  18.689  0.00  0.00    +0.000 A 
ENDROOT
BRANCH  10  15
ATOM     15  C   UNL     1       0.750  10.448  19.443  0.00  0.00    +0.000 C 
ATOM     16  C   UNL     1       0.781  10.897  20.936  0.00  0.00    +0.000 C 
ATOM     17  C   UNL     1       0.034  12.231  21.138  0.00  0.00    +0.000 C 
ATOM     18  C   UNL     1       0.700  13.324  20.292  0.00  0.00    +0.000 C 
ATOM     19  C   UNL     1       0.630  12.942  18.808  0.00  0.00    +0.000 C 
ATOM     20  C   UNL     1      -0.828  12.762  18.367  0.00  0.00    +0.000 C 
ATOM     21  C   UNL     1      -1.492  11.668  19.213  0.00  0.00    +0.000 C 
ATOM     22  C   UNL     1      -1.429  12.075  20.694  0.00  0.00    +0.000 C 
ATOM     23  C   UNL     1      -0.745  10.334  19.011  0.00  0.00    +0.000 C 
ATOM     24  C   UNL     1       1.371  11.616  18.607  0.00  0.00    +0.000 C 
ENDBRANCH  10  15
BRANCH   1  26
ATOM     25  C   UNL     1       5.130   4.725  15.385  0.00  0.00    +0.000 C 
ATOM     26  N   UNL     1       5.042   5.468  16.638  0.00  0.00    +0.000 N 
ATOM     27  C   UNL     1       5.967   6.580  16.821  0.00  0.00    +0.000 C 
ENDBRANCH   1  26
TORSDOF 2
ENDMDL
MODEL 9
REMARK VINA RESULT:      -7.7      1.722      7.583
REMARK  Name = 
REMARK  4 active torsions:
REMARK  status: ('A' for Active; 'I' for Inactive)
REMARK    1  A    between atoms: C_1  and  N_2
REMARK    2  A    between atoms: N_2  and  C_3
REMARK    3  A    between atoms: N_2  and  C_4
REMARK    4  A    between atoms: N_13  and  C_14
REMARK                            x       y       z     vdW  Elec       q    Type
REMARK                         _______ _______ _______ _____ _____    ______ ____
ROOT
ATOM      1  C   UNL     1       4.474   4.870  17.788  0.00  0.00    +0.000 A 
ATOM      2  C   UNL     1       4.799   3.527  18.096  0.00  0.00    +0.000 A 
ATOM      3  C   UNL     1       4.263   2.884  19.194  0.00  0.00    +0.000 A 
ATOM      4  N   UNL     1       3.409   3.436  20.054  0.00  0.00    +0.000 NA
ATOM      5  C   UNL     1       3.088   4.712  19.769  0.00  0.00    +0.000 A 
ATOM      6  S   UNL     1       1.992   5.502  20.807  0.00  0.00    +0.000 S 
ATOM      7  C   UNL     1       2.048   6.901  19.873  0.00  0.00    +0.000 A 
ATOM      8  C   UNL     1       1.292   8.081  20.186  0.00  0.00    +0.000 A 
ATOM      9  O   UNL     1       0.571   8.168  21.173  0.00  0.00    +0.000 OA
ATOM     10  N   UNL     1       1.469   9.124  19.260  0.00  0.00    +0.000 N 
ATOM     11  C   UNL     1       2.323   8.902  18.188  0.00  0.00    +0.000 A 
ATOM     12  N   UNL     1       3.012   7.842  17.899  0.00  0.00    +0.000 NA
ATOM     13  C   UNL     1       2.879   6.777  18.795  0.00  0.00    +0.000 A 
ATOM     14  C   UNL     1       3.545   5.495  18.697  0.00  0.00    +0.000 A 
ENDROOT
BRANCH  10  15
ATOM     15  C   UNL     1       0.739  10.425  19.460  0.00  0.00    +0.000 C 
ATOM     16  C   UNL     1       1.369  11.571  18.609  0.00  0.00    +0.000 C 
ATOM     17  C   UNL     1       0.621  12.903  18.817  0.00  0.00    +0.000 C 
ATOM     18  C   UNL     1      -0.844  12.739  18.394  0.00  0.00    +0.000 C 
ATOM     19  C   UNL     1      -1.513  11.662  19.257  0.00  0.00    +0.000 C 
ATOM     20  C   UNL     1      -1.441  12.041  20.741  0.00  0.00    +0.000 C 
ATOM     21  C   UNL     1       0.024  12.202  21.163  0.00  0.00    +0.000 C 
ATOM     22  C   UNL     1       0.674  13.298  20.302  0.00  0.00    +0.000 C 
ATOM     23  C   UNL     1       0.772  10.870  20.955  0.00  0.00    +0.000 C 
ATOM     24  C   UNL     1      -0.769  10.337  19.051  0.00  0.00    +0.000 C 
ENDBRANCH  10  15
BRANCH   1  26
ATOM     25  C   UNL     1       5.137   4.728  15.394  0.00  0.00    +0.000 C 
ATOM     26  N   UNL     1       5.050   5.464  16.651  0.00  0.00    +0.000 N 
ATOM     27  C   UNL     1       5.976   6.573  16.842  0.00  0.00    +0.000 C 
ENDBRANCH   1  26
TORSDOF 2
ENDMDL
