MODEL 1
REMARK VINA RESULT:      -8.0      0.000      0.000
REMARK  Name = 
REMARK  4 active torsions:
REMARK  status: ('A' for Active; 'I' for Inactive)
REMARK    1  A    between atoms: C_2  and  C_17
REMARK    2  A    between atoms: N_3  and  C_4
REMARK    3  A    between atoms: C_4  and  C_5
REMARK    4  A    between atoms: C_5  and  N_6
REMARK                            x       y       z     vdW  Elec       q    Type
REMARK                         _______ _______ _______ _____ _____    ______ ____
ROOT
ATOM      1  C   UNL     1       6.335   5.630  18.883  0.00  0.00    +0.000 C 
ENDROOT
BRANCH   1   2
ATOM      2  N   UNL     1       4.963   5.199  18.650  0.00  0.00    +0.000 N 
ATOM      3  C   UNL     1       4.136   6.022  17.890  0.00  0.00    +0.000 A 
ATOM      4  O   UNL     1       4.504   7.089  17.396  0.00  0.00    +0.000 OA
ATOM      5  N   UNL     1       2.846   5.597  17.679  0.00  0.00    +0.000 N 
ATOM      6  C   UNL     1       2.381   4.396  18.160  0.00  0.00    +0.000 A 
ATOM      7  C   UNL     1       1.091   3.831  18.008  0.00  0.00    +0.000 A 
ATOM      8  C   UNL     1       1.008   2.600  18.629  0.00  0.00    +0.000 A 
ATOM      9  S   UNL     1       2.486   2.152  19.378  0.00  0.00    +0.000 S 
ATOM     10  C   UNL     1       3.226   3.591  18.872  0.00  0.00    +0.000 A 
ATOM     11  C   UNL     1       4.595   3.936  19.147  0.00  0.00    +0.000 A 
ATOM     12  O   UNL     1       5.379   3.198  19.739  0.00  0.00    +0.000 OA
ATOM     13  H   UNL     1       2.243   6.202  17.138  0.00  0.00    +0.000 HD
ENDBRANCH   1   2
BRANCH   1  14
ATOM     14  C   UNL     1       7.354   4.705  18.201  0.00  0.00    +0.000 C 
BRANCH  14  17
ATOM     15  O   UNL     1       7.563   6.280  15.890  0.00  0.00    +0.000 OA
ATOM     16  C   UNL     1       7.160   5.126  15.781  0.00  0.00    +0.000 C 
ATOM     17  N   UNL     1       6.959   4.298  16.864  0.00  0.00    +0.000 N 
ATOM     18  H   UNL     1       6.747   3.321  16.701  0.00  0.00    +0.000 HD
BRANCH  16  19
ATOM     19  C   UNL     1       6.818   4.614  14.432  0.00  0.00    +0.000 A 
ATOM     20  C   UNL     1       5.647   3.838  14.352  0.00  0.00    +0.000 A 
ATOM     21  C   UNL     1       5.197   3.343  13.129  0.00  0.00    +0.000 A 
ATOM     22  C   UNL     1       5.909   3.622  11.967  0.00  0.00    +0.000 A 
ATOM     23  C   UNL     1       7.076   4.387  12.033  0.00  0.00    +0.000 A 
ATOM     24  C   UNL     1       7.537   4.884  13.260  0.00  0.00    +0.000 A 
ATOM     25 CL   UNL     1       8.970   5.849  13.214  0.00  0.00    +0.000 Cl
ENDBRANCH  16  19
ENDBRANCH  14  17
ENDBRANCH   1  14
TORSDOF 4
ENDMDL
MODEL 2
REMARK VINA RESULT:      -8.0      3.848      6.582
REMARK  Name = 
REMARK  4 active torsions:
REMARK  status: ('A' for Active; 'I' for Inactive)
REMARK    1  A    between atoms: C_2  and  C_17
REMARK    2  A    between atoms: N_3  and  C_4
REMARK    3  A    between atoms: C_4  and  C_5
REMARK    4  A    between atoms: C_5  and  N_6
REMARK                            x       y       z     vdW  Elec       q    Type
REMARK                         _______ _______ _______ _____ _____    ______ ____
ROOT
ATOM      1  C   UNL     1       2.079   2.188  19.169  0.00  0.00    +0.000 C 
ENDROOT
BRANCH   1   2
ATOM      2  N   UNL     1       3.325   2.826  18.763  0.00  0.00    +0.000 N 
ATOM      3  C   UNL     1       4.398   2.793  19.649  0.00  0.00    +0.000 A 
ATOM      4  O   UNL     1       4.356   2.245  20.752  0.00  0.00    +0.000 OA
ATOM      5  N   UNL     1       5.565   3.397  19.247  0.00  0.00    +0.000 N 
ATOM      6  C   UNL     1       5.699   3.986  18.013  0.00  0.00    +0.000 A 
ATOM      7  C   UNL     1       6.838   4.628  17.467  0.00  0.00    +0.000 A 
ATOM      8  C   UNL     1       6.588   5.089  16.189  0.00  0.00    +0.000 A 
ATOM      9  S   UNL     1       4.988   4.735  15.675  0.00  0.00    +0.000 S 
ATOM     10  C   UNL     1       4.640   3.972  17.149  0.00  0.00    +0.000 A 
ATOM     11  C   UNL     1       3.376   3.364  17.465  0.00  0.00    +0.000 A 
ATOM     12  O   UNL     1       2.435   3.296  16.677  0.00  0.00    +0.000 OA
ATOM     13  H   UNL     1       6.340   3.384  19.897  0.00  0.00    +0.000 HD
ENDBRANCH   1   2
BRANCH   1  14
ATOM     14  C   UNL     1       1.171   3.145  19.956  0.00  0.00    +0.000 C 
BRANCH  14  17
ATOM     15  O   UNL     1       2.450   5.306  21.207  0.00  0.00    +0.000 OA
ATOM     16  C   UNL     1       1.914   5.490  20.118  0.00  0.00    +0.000 C 
ATOM     17  N   UNL     1       1.204   4.510  19.459  0.00  0.00    +0.000 N 
ATOM     18  H   UNL     1       0.894   4.684  18.510  0.00  0.00    +0.000 HD
BRANCH  16  19
ATOM     19  C   UNL     1       1.983   6.839  19.507  0.00  0.00    +0.000 A 
ATOM     20  C   UNL     1       2.652   6.918  18.272  0.00  0.00    +0.000 A 
ATOM     21  C   UNL     1       2.738   8.123  17.578  0.00  0.00    +0.000 A 
ATOM     22  C   UNL     1       2.150   9.267  18.107  0.00  0.00    +0.000 A 
ATOM     23  C   UNL     1       1.488   9.205  19.335  0.00  0.00    +0.000 A 
ATOM     24  C   UNL     1       1.402   7.997  20.040  0.00  0.00    +0.000 A 
ATOM     25 CL   UNL     1       0.524   8.032  21.530  0.00  0.00    +0.000 Cl
ENDBRANCH  16  19
ENDBRANCH  14  17
ENDBRANCH   1  14
TORSDOF 4
ENDMDL
MODEL 3
REMARK VINA RESULT:      -8.0      1.331      2.043
REMARK  Name = 
REMARK  4 active torsions:
REMARK  status: ('A' for Active; 'I' for Inactive)
REMARK    1  A    between atoms: C_2  and  C_17
REMARK    2  A    between atoms: N_3  and  C_4
REMARK    3  A    between atoms: C_4  and  C_5
REMARK    4  A    between atoms: C_5  and  N_6
REMARK                            x       y       z     vdW  Elec       q    Type
REMARK                         _______ _______ _______ _____ _____    ______ ____
ROOT
ATOM      1  C   UNL     1       5.265   6.974  18.054  0.00  0.00    +0.000 C 
ENDROOT
BRANCH   1   2
ATOM      2  N   UNL     1       4.775   5.641  18.383  0.00  0.00    +0.000 N 
ATOM      3  C   UNL     1       5.644   4.763  19.026  0.00  0.00    +0.000 A 
ATOM      4  O   UNL     1       6.799   5.054  19.340  0.00  0.00    +0.000 OA
ATOM      5  N   UNL     1       5.163   3.512  19.330  0.00  0.00    +0.000 N 
ATOM      6  C   UNL     1       3.871   3.135  19.052  0.00  0.00    +0.000 A 
ATOM      7  C   UNL     1       3.244   1.894  19.320  0.00  0.00    +0.000 A 
ATOM      8  C   UNL     1       1.928   1.897  18.900  0.00  0.00    +0.000 A 
ATOM      9  S   UNL     1       1.478   3.396  18.194  0.00  0.00    +0.000 S 
ATOM     10  C   UNL     1       3.030   4.030  18.453  0.00  0.00    +0.000 A 
ATOM     11  C   UNL     1       3.427   5.365  18.096  0.00  0.00    +0.000 A 
ATOM     12  O   UNL     1       2.665   6.196  17.609  0.00  0.00    +0.000 OA
ATOM     13  H   UNL     1       5.800   2.871  19.785  0.00  0.00    +0.000 HD
ENDBRANCH   1   2
BRANCH   1  14
ATOM     14  C   UNL     1       6.570   6.924  17.243  0.00  0.00    +0.000 C 
BRANCH  14  17
ATOM     15  O   UNL     1       7.833   4.612  16.281  0.00  0.00    +0.000 OA
ATOM     16  C   UNL     1       7.021   5.182  15.559  0.00  0.00    +0.000 C 
ATOM     17  N   UNL     1       6.401   6.360  15.915  0.00  0.00    +0.000 N 
ATOM     18  H   UNL     1       5.651   6.714  15.334  0.00  0.00    +0.000 HD
BRANCH  16  19
ATOM     19  C   UNL     1       6.734   4.614  14.220  0.00  0.00    +0.000 A 
ATOM     20  C   UNL     1       5.570   3.828  14.127  0.00  0.00    +0.000 A 
ATOM     21  C   UNL     1       5.169   3.281  12.909  0.00  0.00    +0.000 A 
ATOM     22  C   UNL     1       5.924   3.517  11.765  0.00  0.00    +0.000 A 
ATOM     23  C   UNL     1       7.084   4.291  11.844  0.00  0.00    +0.000 A 
ATOM     24  C   UNL     1       7.495   4.840  13.067  0.00  0.00    +0.000 A 
ATOM     25 CL   UNL     1       8.925   5.811  13.036  0.00  0.00    +0.000 Cl
ENDBRANCH  16  19
ENDBRANCH  14  17
ENDBRANCH   1  14
TORSDOF 4
ENDMDL
MODEL 4
REMARK VINA RESULT:      -7.8      1.175      1.543
REMARK  Name = 
REMARK  4 active torsions:
REMARK  status: ('A' for Active; 'I' for Inactive)
REMARK    1  A    between atoms: C_2  and  C_17
REMARK    2  A    between atoms: N_3  and  C_4
REMARK    3  A    between atoms: C_4  and  C_5
REMARK    4  A    between atoms: C_5  and  N_6
REMARK                            x       y       z     vdW  Elec       q    Type
REMARK                         _______ _______ _______ _____ _____    ______ ____
ROOT
ATOM      1  C   UNL     1       6.470   5.628  19.072  0.00  0.00    +0.000 C 
ENDROOT
BRANCH   1   2
ATOM      2  N   UNL     1       5.098   5.231  18.782  0.00  0.00    +0.000 N 
ATOM      3  C   UNL     1       4.307   6.100  18.034  0.00  0.00    +0.000 A 
ATOM      4  O   UNL     1       4.707   7.180  17.597  0.00  0.00    +0.000 OA
ATOM      5  N   UNL     1       3.018   5.707  17.768  0.00  0.00    +0.000 N 
ATOM      6  C   UNL     1       2.519   4.495  18.184  0.00  0.00    +0.000 A 
ATOM      7  C   UNL     1       1.225   3.960  17.971  0.00  0.00    +0.000 A 
ATOM      8  C   UNL     1       1.104   2.705  18.536  0.00  0.00    +0.000 A 
ATOM      9  S   UNL     1       2.552   2.200  19.308  0.00  0.00    +0.000 S 
ATOM     10  C   UNL     1       3.329   3.646  18.885  0.00  0.00    +0.000 A 
ATOM     11  C   UNL     1       4.695   3.955  19.214  0.00  0.00    +0.000 A 
ATOM     12  O   UNL     1       5.450   3.179  19.795  0.00  0.00    +0.000 OA
ATOM     13  H   UNL     1       2.441   6.345  17.237  0.00  0.00    +0.000 HD
ENDBRANCH   1   2
BRANCH   1  14
ATOM     14  C   UNL     1       7.493   4.746  18.340  0.00  0.00    +0.000 C 
BRANCH  14  17
ATOM     15  O   UNL     1       7.582   6.403  16.079  0.00  0.00    +0.000 OA
ATOM     16  C   UNL     1       7.217   5.239  15.941  0.00  0.00    +0.000 C 
ATOM     17  N   UNL     1       7.075   4.370  17.001  0.00  0.00    +0.000 N 
ATOM     18  H   UNL     1       6.893   3.392  16.811  0.00  0.00    +0.000 HD
BRANCH  16  19
ATOM     19  C   UNL     1       6.856   4.759  14.585  0.00  0.00    +0.000 A 
ATOM     20  C   UNL     1       7.761   5.091  13.560  0.00  0.00    +0.000 A 
ATOM     21  C   UNL     1       7.555   4.653  12.252  0.00  0.00    +0.000 A 
ATOM     22  C   UNL     1       6.443   3.873  11.953  0.00  0.00    +0.000 A 
ATOM     23  C   UNL     1       5.534   3.541  12.960  0.00  0.00    +0.000 A 
ATOM     24  C   UNL     1       5.733   3.982  14.276  0.00  0.00    +0.000 A 
ATOM     25 CL   UNL     1       4.564   3.477  15.446  0.00  0.00    +0.000 Cl
ENDBRANCH  16  19
ENDBRANCH  14  17
ENDBRANCH   1  14
TORSDOF 4
ENDMDL
MODEL 5
REMARK VINA RESULT:      -7.8      4.946      6.460
REMARK  Name = 
REMARK  4 active torsions:
REMARK  status: ('A' for Active; 'I' for Inactive)
REMARK    1  A    between atoms: C_2  and  C_17
REMARK    2  A    between atoms: N_3  and  C_4
REMARK    3  A    between atoms: C_4  and  C_5
REMARK    4  A    between atoms: C_5  and  N_6
REMARK                            x       y       z     vdW  Elec       q    Type
REMARK                         _______ _______ _______ _____ _____    ______ ____
ROOT
ATOM      1  C   UNL     1       7.746   6.514  17.828  0.00  0.00    +0.000 C 
ENDROOT
BRANCH   1   2
ATOM      2  N   UNL     1       6.521   5.749  17.631  0.00  0.00    +0.000 N 
ATOM      3  C   UNL     1       6.062   5.570  16.329  0.00  0.00    +0.000 A 
ATOM      4  O   UNL     1       6.639   6.013  15.335  0.00  0.00    +0.000 OA
ATOM      5  N   UNL     1       4.906   4.844  16.164  0.00  0.00    +0.000 N 
ATOM      6  C   UNL     1       4.236   4.281  17.223  0.00  0.00    +0.000 A 
ATOM      7  C   UNL     1       3.052   3.504  17.197  0.00  0.00    +0.000 A 
ATOM      8  C   UNL     1       2.687   3.106  18.468  0.00  0.00    +0.000 A 
ATOM      9  S   UNL     1       3.779   3.675  19.664  0.00  0.00    +0.000 S 
ATOM     10  C   UNL     1       4.729   4.442  18.487  0.00  0.00    +0.000 A 
ATOM     11  C   UNL     1       5.932   5.178  18.773  0.00  0.00    +0.000 A 
ATOM     12  O   UNL     1       6.416   5.284  19.897  0.00  0.00    +0.000 OA
ATOM     13  H   UNL     1       4.567   4.726  15.219  0.00  0.00    +0.000 HD
ENDBRANCH   1   2
BRANCH   1  14
ATOM     14  C   UNL     1       7.490   8.029  17.806  0.00  0.00    +0.000 C 
BRANCH  14  17
ATOM     15  O   UNL     1       7.727  10.817  17.609  0.00  0.00    +0.000 OA
ATOM     16  C   UNL     1       8.626  10.188  18.158  0.00  0.00    +0.000 C 
ATOM     17  N   UNL     1       8.633   8.813  18.242  0.00  0.00    +0.000 N 
ATOM     18  H   UNL     1       9.336   8.360  18.815  0.00  0.00    +0.000 HD
BRANCH  16  19
ATOM     19  C   UNL     1       9.787  10.931  18.705  0.00  0.00    +0.000 A 
ATOM     20  C   UNL     1      10.733  11.368  17.760  0.00  0.00    +0.000 A 
ATOM     21  C   UNL     1      11.841  12.119  18.148  0.00  0.00    +0.000 A 
ATOM     22  C   UNL     1      12.015  12.449  19.488  0.00  0.00    +0.000 A 
ATOM     23  C   UNL     1      11.086  12.019  20.438  0.00  0.00    +0.000 A 
ATOM     24  C   UNL     1       9.972  11.259  20.054  0.00  0.00    +0.000 A 
ATOM     25 CL   UNL     1       8.870  10.814  21.310  0.00  0.00    +0.000 Cl
ENDBRANCH  16  19
ENDBRANCH  14  17
ENDBRANCH   1  14
TORSDOF 4
ENDMDL
MODEL 6
REMARK VINA RESULT:      -7.7      5.164      6.815
REMARK  Name = 
REMARK  4 active torsions:
REMARK  status: ('A' for Active; 'I' for Inactive)
REMARK    1  A    between atoms: C_2  and  C_17
REMARK    2  A    between atoms: N_3  and  C_4
REMARK    3  A    between atoms: C_4  and  C_5
REMARK    4  A    between atoms: C_5  and  N_6
REMARK                            x       y       z     vdW  Elec       q    Type
REMARK                         _______ _______ _______ _____ _____    ______ ____
ROOT
ATOM      1  C   UNL     1       7.569   7.111  17.270  0.00  0.00    +0.000 C 
ENDROOT
BRANCH   1   2
ATOM      2  N   UNL     1       6.636   6.191  17.909  0.00  0.00    +0.000 N 
ATOM      3  C   UNL     1       7.082   5.461  19.008  0.00  0.00    +0.000 A 
ATOM      4  O   UNL     1       8.217   5.559  19.476  0.00  0.00    +0.000 OA
ATOM      5  N   UNL     1       6.187   4.601  19.598  0.00  0.00    +0.000 N 
ATOM      6  C   UNL     1       4.891   4.476  19.159  0.00  0.00    +0.000 A 
ATOM      7  C   UNL     1       3.866   3.646  19.676  0.00  0.00    +0.000 A 
ATOM      8  C   UNL     1       2.689   3.805  18.971  0.00  0.00    +0.000 A 
ATOM      9  S   UNL     1       2.844   4.952  17.703  0.00  0.00    +0.000 S 
ATOM     10  C   UNL     1       4.469   5.231  18.100  0.00  0.00    +0.000 A 
ATOM     11  C   UNL     1       5.320   6.165  17.413  0.00  0.00    +0.000 A 
ATOM     12  O   UNL     1       4.939   6.889  16.496  0.00  0.00    +0.000 OA
ATOM     13  H   UNL     1       6.516   4.062  20.387  0.00  0.00    +0.000 HD
ENDBRANCH   1   2
BRANCH   1  14
ATOM     14  C   UNL     1       7.350   8.562  17.725  0.00  0.00    +0.000 C 
BRANCH  14  17
ATOM     15  O   UNL     1       7.923  11.298  17.500  0.00  0.00    +0.000 OA
ATOM     16  C   UNL     1       8.725  10.575  18.083  0.00  0.00    +0.000 C 
ATOM     17  N   UNL     1       8.565   9.211  18.185  0.00  0.00    +0.000 N 
ATOM     18  H   UNL     1       9.193   8.687  18.784  0.00  0.00    +0.000 HD
BRANCH  16  19
ATOM     19  C   UNL     1       9.951  11.184  18.655  0.00  0.00    +0.000 A 
ATOM     20  C   UNL     1      10.927  11.583  17.723  0.00  0.00    +0.000 A 
ATOM     21  C   UNL     1      12.099  12.212  18.136  0.00  0.00    +0.000 A 
ATOM     22  C   UNL     1      12.310  12.457  19.490  0.00  0.00    +0.000 A 
ATOM     23  C   UNL     1      11.353  12.062  20.426  0.00  0.00    +0.000 A 
ATOM     24  C   UNL     1      10.173  11.424  20.017  0.00  0.00    +0.000 A 
ATOM     25 CL   UNL     1       9.043  11.015  21.260  0.00  0.00    +0.000 Cl
ENDBRANCH  16  19
ENDBRANCH  14  17
ENDBRANCH   1  14
TORSDOF 4
ENDMDL
MODEL 7
REMARK VINA RESULT:      -7.6      5.073      6.491
REMARK  Name = 
REMARK  4 active torsions:
REMARK  status: ('A' for Active; 'I' for Inactive)
REMARK    1  A    between atoms: C_2  and  C_17
REMARK    2  A    between atoms: N_3  and  C_4
REMARK    3  A    between atoms: C_4  and  C_5
REMARK    4  A    between atoms: C_5  and  N_6
REMARK                            x       y       z     vdW  Elec       q    Type
REMARK                         _______ _______ _______ _____ _____    ______ ____
ROOT
ATOM      1  C   UNL     1       7.428   7.119  17.170  0.00  0.00    +0.000 C 
ENDROOT
BRANCH   1   2
ATOM      2  N   UNL     1       6.505   6.077  17.601  0.00  0.00    +0.000 N 
ATOM      3  C   UNL     1       7.040   4.873  18.055  0.00  0.00    +0.000 A 
ATOM      4  O   UNL     1       8.249   4.646  18.122  0.00  0.00    +0.000 OA
ATOM      5  N   UNL     1       6.154   3.904  18.459  0.00  0.00    +0.000 N 
ATOM      6  C   UNL     1       4.795   4.104  18.457  0.00  0.00    +0.000 A 
ATOM      7  C   UNL     1       3.775   3.206  18.856  0.00  0.00    +0.000 A 
ATOM      8  C   UNL     1       2.524   3.775  18.717  0.00  0.00    +0.000 A 
ATOM      9  S   UNL     1       2.606   5.379  18.111  0.00  0.00    +0.000 S 
ATOM     10  C   UNL     1       4.299   5.308  18.040  0.00  0.00    +0.000 A 
ATOM     11  C   UNL     1       5.136   6.393  17.601  0.00  0.00    +0.000 A 
ATOM     12  O   UNL     1       4.706   7.498  17.277  0.00  0.00    +0.000 OA
ATOM     13  H   UNL     1       6.543   3.026  18.776  0.00  0.00    +0.000 HD
ENDBRANCH   1   2
BRANCH   1  14
ATOM     14  C   UNL     1       7.917   7.979  18.346  0.00  0.00    +0.000 C 
BRANCH  14  17
ATOM     15  O   UNL     1       8.916   9.959  20.062  0.00  0.00    +0.000 OA
ATOM     16  C   UNL     1       9.091  10.085  18.855  0.00  0.00    +0.000 C 
ATOM     17  N   UNL     1       8.579   9.202  17.929  0.00  0.00    +0.000 N 
ATOM     18  H   UNL     1       8.862   9.289  16.960  0.00  0.00    +0.000 HD
BRANCH  16  19
ATOM     19  C   UNL     1       9.835  11.269  18.360  0.00  0.00    +0.000 A 
ATOM     20  C   UNL     1      11.217  11.276  18.626  0.00  0.00    +0.000 A 
ATOM     21  C   UNL     1      12.030  12.311  18.168  0.00  0.00    +0.000 A 
ATOM     22  C   UNL     1      11.473  13.352  17.432  0.00  0.00    +0.000 A 
ATOM     23  C   UNL     1      10.103  13.361  17.166  0.00  0.00    +0.000 A 
ATOM     24  C   UNL     1       9.278  12.325  17.628  0.00  0.00    +0.000 A 
ATOM     25 CL   UNL     1       7.605  12.421  17.205  0.00  0.00    +0.000 Cl
ENDBRANCH  16  19
ENDBRANCH  14  17
ENDBRANCH   1  14
TORSDOF 4
ENDMDL
MODEL 8
REMARK VINA RESULT:      -7.4      5.878      7.771
REMARK  Name = 
REMARK  4 active torsions:
REMARK  status: ('A' for Active; 'I' for Inactive)
REMARK    1  A    between atoms: C_2  and  C_17
REMARK    2  A    between atoms: N_3  and  C_4
REMARK    3  A    between atoms: C_4  and  C_5
REMARK    4  A    between atoms: C_5  and  N_6
REMARK                            x       y       z     vdW  Elec       q    Type
REMARK                         _______ _______ _______ _____ _____    ______ ____
ROOT
ATOM      1  C   UNL     1       0.402   9.121  20.445  0.00  0.00    +0.000 C 
ENDROOT
BRANCH   1   2
ATOM      2  N   UNL     1       0.984  10.315  19.846  0.00  0.00    +0.000 N 
ATOM      3  C   UNL     1       1.355  10.262  18.505  0.00  0.00    +0.000 A 
ATOM      4  O   UNL     1       1.209   9.265  17.796  0.00  0.00    +0.000 OA
ATOM      5  N   UNL     1       1.900  11.398  17.957  0.00  0.00    +0.000 N 
ATOM      6  C   UNL     1       2.050  12.560  18.675  0.00  0.00    +0.000 A 
ATOM      7  C   UNL     1       2.579  13.799  18.238  0.00  0.00    +0.000 A 
ATOM      8  C   UNL     1       2.556  14.738  19.250  0.00  0.00    +0.000 A 
ATOM      9  S   UNL     1       1.896  14.107  20.704  0.00  0.00    +0.000 S 
ATOM     10  C   UNL     1       1.643  12.595  19.980  0.00  0.00    +0.000 A 
ATOM     11  C   UNL     1       1.056  11.466  20.650  0.00  0.00    +0.000 A 
ATOM     12  O   UNL     1       0.637  11.500  21.804  0.00  0.00    +0.000 OA
ATOM     13  H   UNL     1       2.182  11.354  16.987  0.00  0.00    +0.000 HD
ENDBRANCH   1   2
BRANCH   1  14
ATOM     14  C   UNL     1       1.475   8.172  20.999  0.00  0.00    +0.000 C 
BRANCH  14  17
ATOM     15  O   UNL     1       1.744   5.381  20.906  0.00  0.00    +0.000 OA
ATOM     16  C   UNL     1       2.194   6.047  19.978  0.00  0.00    +0.000 C 
ATOM     17  N   UNL     1       2.171   7.424  19.966  0.00  0.00    +0.000 N 
ATOM     18  H   UNL     1       2.443   7.912  19.120  0.00  0.00    +0.000 HD
BRANCH  16  19
ATOM     19  C   UNL     1       2.843   5.344  18.845  0.00  0.00    +0.000 A 
ATOM     20  C   UNL     1       4.012   5.946  18.342  0.00  0.00    +0.000 A 
ATOM     21  C   UNL     1       4.737   5.353  17.311  0.00  0.00    +0.000 A 
ATOM     22  C   UNL     1       4.307   4.145  16.770  0.00  0.00    +0.000 A 
ATOM     23  C   UNL     1       3.147   3.539  17.256  0.00  0.00    +0.000 A 
ATOM     24  C   UNL     1       2.410   4.133  18.290  0.00  0.00    +0.000 A 
ATOM     25 CL   UNL     1       1.012   3.274  18.836  0.00  0.00    +0.000 Cl
ENDBRANCH  16  19
ENDBRANCH  14  17
ENDBRANCH   1  14
TORSDOF 4
ENDMDL
MODEL 9
REMARK VINA RESULT:      -7.4      1.784      2.125
REMARK  Name = 
REMARK  4 active torsions:
REMARK  status: ('A' for Active; 'I' for Inactive)
REMARK    1  A    between atoms: C_2  and  C_17
REMARK    2  A    between atoms: N_3  and  C_4
REMARK    3  A    between atoms: C_4  and  C_5
REMARK    4  A    between atoms: C_5  and  N_6
REMARK                            x       y       z     vdW  Elec       q    Type
REMARK                         _______ _______ _______ _____ _____    ______ ____
ROOT
ATOM      1  C   UNL     1       3.695   6.916  17.226  0.00  0.00    +0.000 C 
ENDROOT
BRANCH   1   2
ATOM      2  N   UNL     1       3.303   6.139  18.395  0.00  0.00    +0.000 N 
ATOM      3  C   UNL     1       2.599   6.787  19.407  0.00  0.00    +0.000 A 
ATOM      4  O   UNL     1       2.282   7.976  19.364  0.00  0.00    +0.000 OA
ATOM      5  N   UNL     1       2.236   6.037  20.500  0.00  0.00    +0.000 N 
ATOM      6  C   UNL     1       2.515   4.695  20.595  0.00  0.00    +0.000 A 
ATOM      7  C   UNL     1       2.191   3.804  21.648  0.00  0.00    +0.000 A 
ATOM      8  C   UNL     1       2.632   2.525  21.375  0.00  0.00    +0.000 A 
ATOM      9  S   UNL     1       3.426   2.424  19.855  0.00  0.00    +0.000 S 
ATOM     10  C   UNL     1       3.175   4.077  19.570  0.00  0.00    +0.000 A 
ATOM     11  C   UNL     1       3.597   4.765  18.379  0.00  0.00    +0.000 A 
ATOM     12  O   UNL     1       4.142   4.210  17.428  0.00  0.00    +0.000 OA
ATOM     13  H   UNL     1       1.737   6.512  21.240  0.00  0.00    +0.000 HD
ENDBRANCH   1   2
BRANCH   1  14
ATOM     14  C   UNL     1       5.179   6.723  16.877  0.00  0.00    +0.000 C 
BRANCH  14  17
ATOM     15  O   UNL     1       7.349   5.102  16.151  0.00  0.00    +0.000 OA
ATOM     16  C   UNL     1       6.460   5.297  15.328  0.00  0.00    +0.000 C 
ATOM     17  N   UNL     1       5.391   6.132  15.567  0.00  0.00    +0.000 N 
ATOM     18  H   UNL     1       4.629   6.156  14.901  0.00  0.00    +0.000 HD
BRANCH  16  19
ATOM     19  C   UNL     1       6.567   4.655  13.996  0.00  0.00    +0.000 A 
ATOM     20  C   UNL     1       5.540   3.750  13.671  0.00  0.00    +0.000 A 
ATOM     21  C   UNL     1       5.505   3.121  12.428  0.00  0.00    +0.000 A 
ATOM     22  C   UNL     1       6.494   3.394  11.488  0.00  0.00    +0.000 A 
ATOM     23  C   UNL     1       7.522   4.287  11.799  0.00  0.00    +0.000 A 
ATOM     24  C   UNL     1       7.566   4.919  13.050  0.00  0.00    +0.000 A 
ATOM     25 CL   UNL     1       8.862   6.033  13.309  0.00  0.00    +0.000 Cl
ENDBRANCH  16  19
ENDBRANCH  14  17
ENDBRANCH   1  14
TORSDOF 4
ENDMDL
