MODEL 1
REMARK VINA RESULT:      -7.9      0.000      0.000
REMARK  Name = 
REMARK  5 active torsions:
REMARK  status: ('A' for Active; 'I' for Inactive)
REMARK    1  A    between atoms: C_1  and  C_2
REMARK    2  A    between atoms: C_5  and  C_7
REMARK    3  A    between atoms: C_7  and  C_8
REMARK    4  A    between atoms: N_12  and  C_13
REMARK    5  A    between atoms: C_22  and  C_23
REMARK                            x       y       z     vdW  Elec       q    Type
REMARK                         _______ _______ _______ _____ _____    ______ ____
ROOT
ATOM      1  C   UNL     1       6.065   6.107  18.157  0.00  0.00    +0.000 C 
ATOM      2  N   UNL     1       5.167   6.898  17.371  0.00  0.00    +0.000 N 
ATOM      3  C   UNL     1       5.255   6.624  16.029  0.00  0.00    +0.000 C 
ATOM      4  O   UNL     1       4.581   7.234  15.215  0.00  0.00    +0.000 OA
ATOM      5  N   UNL     1       6.120   5.567  15.850  0.00  0.00    +0.000 N 
ATOM      6  C   UNL     1       6.544   5.113  17.093  0.00  0.00    +0.000 C 
ATOM      7  O   UNL     1       7.238   4.140  17.361  0.00  0.00    +0.000 OA
ATOM      8  H   UNL     1       4.635   7.687  17.718  0.00  0.00    +0.000 HD
ENDROOT
BRANCH   5   9
ATOM      9  C   UNL     1       6.456   5.009  14.581  0.00  0.00    +0.000 A 
ATOM     10  C   UNL     1       5.682   3.971  14.027  0.00  0.00    +0.000 A 
ATOM     11  C   UNL     1       6.001   3.396  12.792  0.00  0.00    +0.000 A 
ATOM     12  C   UNL     1       7.106   3.850  12.094  0.00  0.00    +0.000 A 
ATOM     13  F   UNL     1       7.423   3.295  10.918  0.00  0.00    +0.000 F 
ATOM     14  C   UNL     1       7.884   4.879  12.603  0.00  0.00    +0.000 A 
ATOM     15  C   UNL     1       7.554   5.465  13.832  0.00  0.00    +0.000 A 
ENDBRANCH   5   9
BRANCH   1  16
ATOM     16  C   UNL     1       5.397   5.448  19.355  0.00  0.00    +0.000 C 
BRANCH  16  21
ATOM     17  C   UNL     1       1.228   3.449  20.980  0.00  0.00    +0.000 C 
ATOM     18  C   UNL     1       1.177   3.185  19.477  0.00  0.00    +0.000 C 
ATOM     19  C   UNL     1       1.777   4.343  18.662  0.00  0.00    +0.000 C 
ATOM     20  N   UNL     1       3.243   4.352  18.754  0.00  0.00    +0.000 N 
ATOM     21  C   UNL     1       3.881   5.487  19.223  0.00  0.00    +0.000 C 
ATOM     22  O   UNL     1       3.252   6.505  19.526  0.00  0.00    +0.000 OA
ATOM     23  C   UNL     1       3.878   3.056  18.430  0.00  0.00    +0.000 C 
ATOM     24  C   UNL     1       3.776   2.752  16.933  0.00  0.00    +0.000 C 
ATOM     25  C   UNL     1       3.222   1.938  19.267  0.00  0.00    +0.000 C 
ATOM     26  O   UNL     1       1.792   1.927  19.139  0.00  0.00    +0.000 OA
ENDBRANCH  16  21
ENDBRANCH   1  16
TORSDOF 3
ENDMDL
MODEL 2
REMARK VINA RESULT:      -7.4      5.352      8.136
REMARK  Name = 
REMARK  5 active torsions:
REMARK  status: ('A' for Active; 'I' for Inactive)
REMARK    1  A    between atoms: C_1  and  C_2
REMARK    2  A    between atoms: C_5  and  C_7
REMARK    3  A    between atoms: C_7  and  C_8
REMARK    4  A    between atoms: N_12  and  C_13
REMARK    5  A    between atoms: C_22  and  C_23
REMARK                            x       y       z     vdW  Elec       q    Type
REMARK                         _______ _______ _______ _____ _____    ______ ____
ROOT
ATOM      1  C   UNL     1       2.812   7.342  18.956  0.00  0.00    +0.000 C 
ATOM      2  N   UNL     1       2.237   7.147  20.252  0.00  0.00    +0.000 N 
ATOM      3  C   UNL     1       1.406   8.174  20.623  0.00  0.00    +0.000 C 
ATOM      4  O   UNL     1       0.859   8.182  21.714  0.00  0.00    +0.000 OA
ATOM      5  N   UNL     1       1.286   9.049  19.565  0.00  0.00    +0.000 N 
ATOM      6  C   UNL     1       1.995   8.547  18.480  0.00  0.00    +0.000 C 
ATOM      7  O   UNL     1       2.057   8.980  17.336  0.00  0.00    +0.000 OA
ATOM      8  H   UNL     1       2.516   6.427  20.908  0.00  0.00    +0.000 HD
ENDROOT
BRANCH   5   9
ATOM      9  C   UNL     1       0.499  10.238  19.591  0.00  0.00    +0.000 A 
ATOM     10  C   UNL     1       0.993  11.411  20.195  0.00  0.00    +0.000 A 
ATOM     11  C   UNL     1       0.233  12.585  20.250  0.00  0.00    +0.000 A 
ATOM     12  C   UNL     1      -1.037  12.600  19.702  0.00  0.00    +0.000 A 
ATOM     13  F   UNL     1      -1.773  13.716  19.763  0.00  0.00    +0.000 F 
ATOM     14  C   UNL     1      -1.552  11.467  19.090  0.00  0.00    +0.000 A 
ATOM     15  C   UNL     1      -0.784  10.298  19.021  0.00  0.00    +0.000 A 
ENDBRANCH   5   9
BRANCH   1  16
ATOM     16  C   UNL     1       2.691   6.123  18.053  0.00  0.00    +0.000 C 
BRANCH  16  21
ATOM     17  C   UNL     1       7.353   5.684  19.498  0.00  0.00    +0.000 C 
ATOM     18  C   UNL     1       7.354   5.027  18.119  0.00  0.00    +0.000 C 
ATOM     19  C   UNL     1       6.051   4.259  17.840  0.00  0.00    +0.000 C 
ATOM     20  N   UNL     1       4.942   5.181  17.557  0.00  0.00    +0.000 N 
ATOM     21  C   UNL     1       3.802   5.121  18.337  0.00  0.00    +0.000 C 
ATOM     22  O   UNL     1       3.675   4.285  19.237  0.00  0.00    +0.000 OA
ATOM     23  C   UNL     1       5.238   6.178  16.505  0.00  0.00    +0.000 C 
ATOM     24  C   UNL     1       5.304   5.519  15.124  0.00  0.00    +0.000 C 
ATOM     25  C   UNL     1       6.561   6.899  16.836  0.00  0.00    +0.000 C 
ATOM     26  O   UNL     1       7.638   5.981  17.079  0.00  0.00    +0.000 OA
ENDBRANCH  16  21
ENDBRANCH   1  16
TORSDOF 3
ENDMDL
MODEL 3
REMARK VINA RESULT:      -7.3      5.100      7.693
REMARK  Name = 
REMARK  5 active torsions:
REMARK  status: ('A' for Active; 'I' for Inactive)
REMARK    1  A    between atoms: C_1  and  C_2
REMARK    2  A    between atoms: C_5  and  C_7
REMARK    3  A    between atoms: C_7  and  C_8
REMARK    4  A    between atoms: N_12  and  C_13
REMARK    5  A    between atoms: C_22  and  C_23
REMARK                            x       y       z     vdW  Elec       q    Type
REMARK                         _______ _______ _______ _____ _____    ______ ____
ROOT
ATOM      1  C   UNL     1       2.913   7.008  19.054  0.00  0.00    +0.000 C 
ATOM      2  N   UNL     1       2.166   7.040  20.274  0.00  0.00    +0.000 N 
ATOM      3  C   UNL     1       1.427   8.188  20.414  0.00  0.00    +0.000 C 
ATOM      4  O   UNL     1       0.757   8.391  21.413  0.00  0.00    +0.000 OA
ATOM      5  N   UNL     1       1.542   8.930  19.258  0.00  0.00    +0.000 N 
ATOM      6  C   UNL     1       2.310   8.223  18.341  0.00  0.00    +0.000 C 
ATOM      7  O   UNL     1       2.562   8.499  17.175  0.00  0.00    +0.000 OA
ATOM      8  H   UNL     1       2.275   6.383  21.038  0.00  0.00    +0.000 HD
ENDROOT
BRANCH   5   9
ATOM      9  C   UNL     1       0.907  10.190  19.046  0.00  0.00    +0.000 A 
ATOM     10  C   UNL     1      -0.453  10.256  18.686  0.00  0.00    +0.000 A 
ATOM     11  C   UNL     1      -1.093  11.478  18.454  0.00  0.00    +0.000 A 
ATOM     12  C   UNL     1      -0.377  12.656  18.577  0.00  0.00    +0.000 A 
ATOM     13  F   UNL     1      -0.982  13.827  18.344  0.00  0.00    +0.000 F 
ATOM     14  C   UNL     1       0.960  12.630  18.941  0.00  0.00    +0.000 A 
ATOM     15  C   UNL     1       1.596  11.406  19.188  0.00  0.00    +0.000 A 
ENDBRANCH   5   9
BRANCH   1  16
ATOM     16  C   UNL     1       2.755   5.704  18.284  0.00  0.00    +0.000 C 
BRANCH  16  21
ATOM     17  C   UNL     1       7.494   5.714  19.531  0.00  0.00    +0.000 C 
ATOM     18  C   UNL     1       7.512   5.174  18.102  0.00  0.00    +0.000 C 
ATOM     19  C   UNL     1       6.297   4.281  17.803  0.00  0.00    +0.000 C 
ATOM     20  N   UNL     1       5.077   5.082  17.635  0.00  0.00    +0.000 N 
ATOM     21  C   UNL     1       3.986   4.824  18.446  0.00  0.00    +0.000 C 
ATOM     22  O   UNL     1       3.997   3.909  19.275  0.00  0.00    +0.000 OA
ATOM     23  C   UNL     1       5.208   6.189  16.663  0.00  0.00    +0.000 C 
ATOM     24  C   UNL     1       5.291   5.655  15.230  0.00  0.00    +0.000 C 
ATOM     25  C   UNL     1       6.452   7.035  17.009  0.00  0.00    +0.000 C 
ATOM     26  O   UNL     1       7.638   6.236  17.137  0.00  0.00    +0.000 OA
ENDBRANCH  16  21
ENDBRANCH   1  16
TORSDOF 3
ENDMDL
MODEL 4
REMARK VINA RESULT:      -7.1      5.746      8.032
REMARK  Name = 
REMARK  5 active torsions:
REMARK  status: ('A' for Active; 'I' for Inactive)
REMARK    1  A    between atoms: C_1  and  C_2
REMARK    2  A    between atoms: C_5  and  C_7
REMARK    3  A    between atoms: C_7  and  C_8
REMARK    4  A    between atoms: N_12  and  C_13
REMARK    5  A    between atoms: C_22  and  C_23
REMARK                            x       y       z     vdW  Elec       q    Type
REMARK                         _______ _______ _______ _____ _____    ______ ____
ROOT
ATOM      1  C   UNL     1       1.953   7.865  20.736  0.00  0.00    +0.000 C 
ATOM      2  N   UNL     1       1.372   8.434  21.913  0.00  0.00    +0.000 N 
ATOM      3  C   UNL     1       0.884   9.700  21.706  0.00  0.00    +0.000 C 
ATOM      4  O   UNL     1       0.385  10.342  22.615  0.00  0.00    +0.000 OA
ATOM      5  N   UNL     1       1.003  10.004  20.367  0.00  0.00    +0.000 N 
ATOM      6  C   UNL     1       1.512   8.900  19.695  0.00  0.00    +0.000 C 
ATOM      7  O   UNL     1       1.675   8.740  18.492  0.00  0.00    +0.000 OA
ATOM      8  H   UNL     1       1.443   8.038  22.843  0.00  0.00    +0.000 HD
ENDROOT
BRANCH   5   9
ATOM      9  C   UNL     1       0.597  11.242  19.785  0.00  0.00    +0.000 A 
ATOM     10  C   UNL     1       1.442  12.368  19.833  0.00  0.00    +0.000 A 
ATOM     11  C   UNL     1       1.060  13.597  19.286  0.00  0.00    +0.000 A 
ATOM     12  C   UNL     1      -0.180  13.719  18.685  0.00  0.00    +0.000 A 
ATOM     13  F   UNL     1      -0.556  14.896  18.172  0.00  0.00    +0.000 F 
ATOM     14  C   UNL     1      -1.034  12.629  18.609  0.00  0.00    +0.000 A 
ATOM     15  C   UNL     1      -0.643  11.394  19.143  0.00  0.00    +0.000 A 
ENDBRANCH   5   9
BRANCH   1  16
ATOM     16  C   UNL     1       1.464   6.454  20.443  0.00  0.00    +0.000 C 
BRANCH  16  21
ATOM     17  C   UNL     1       2.754   3.170  17.041  0.00  0.00    +0.000 C 
ATOM     18  C   UNL     1       2.965   2.414  18.351  0.00  0.00    +0.000 C 
ATOM     19  C   UNL     1       3.487   3.328  19.473  0.00  0.00    +0.000 C 
ATOM     20  N   UNL     1       2.422   4.202  19.984  0.00  0.00    +0.000 N 
ATOM     21  C   UNL     1       2.605   5.572  19.954  0.00  0.00    +0.000 C 
ATOM     22  O   UNL     1       3.656   6.077  19.548  0.00  0.00    +0.000 OA
ATOM     23  C   UNL     1       1.189   3.487  20.377  0.00  0.00    +0.000 C 
ATOM     24  C   UNL     1       1.407   2.673  21.656  0.00  0.00    +0.000 C 
ATOM     25  C   UNL     1       0.728   2.578  19.217  0.00  0.00    +0.000 C 
ATOM     26  O   UNL     1       1.774   1.711  18.754  0.00  0.00    +0.000 OA
ENDBRANCH  16  21
ENDBRANCH   1  16
TORSDOF 3
ENDMDL
MODEL 5
REMARK VINA RESULT:      -7.1      5.553      7.991
REMARK  Name = 
REMARK  5 active torsions:
REMARK  status: ('A' for Active; 'I' for Inactive)
REMARK    1  A    between atoms: C_1  and  C_2
REMARK    2  A    between atoms: C_5  and  C_7
REMARK    3  A    between atoms: C_7  and  C_8
REMARK    4  A    between atoms: N_12  and  C_13
REMARK    5  A    between atoms: C_22  and  C_23
REMARK                            x       y       z     vdW  Elec       q    Type
REMARK                         _______ _______ _______ _____ _____    ______ ____
ROOT
ATOM      1  C   UNL     1       2.636   7.725  18.987  0.00  0.00    +0.000 C 
ATOM      2  N   UNL     1       2.117   7.488  20.299  0.00  0.00    +0.000 N 
ATOM      3  C   UNL     1       1.249   8.468  20.712  0.00  0.00    +0.000 C 
ATOM      4  O   UNL     1       0.741   8.436  21.820  0.00  0.00    +0.000 OA
ATOM      5  N   UNL     1       1.048   9.347  19.669  0.00  0.00    +0.000 N 
ATOM      6  C   UNL     1       1.743   8.893  18.555  0.00  0.00    +0.000 C 
ATOM      7  O   UNL     1       1.743   9.340  17.415  0.00  0.00    +0.000 OA
ATOM      8  H   UNL     1       2.455   6.776  20.936  0.00  0.00    +0.000 HD
ENDROOT
BRANCH   5   9
ATOM      9  C   UNL     1       0.204  10.494  19.737  0.00  0.00    +0.000 A 
ATOM     10  C   UNL     1       0.629  11.658  20.406  0.00  0.00    +0.000 A 
ATOM     11  C   UNL     1      -0.187  12.790  20.502  0.00  0.00    +0.000 A 
ATOM     12  C   UNL     1      -1.447  12.771  19.931  0.00  0.00    +0.000 A 
ATOM     13  F   UNL     1      -2.237  13.847  20.031  0.00  0.00    +0.000 F 
ATOM     14  C   UNL     1      -1.895  11.647  19.255  0.00  0.00    +0.000 A 
ATOM     15  C   UNL     1      -1.070  10.520  19.146  0.00  0.00    +0.000 A 
ENDBRANCH   5   9
BRANCH   1  16
ATOM     16  C   UNL     1       2.545   6.511  18.074  0.00  0.00    +0.000 C 
BRANCH  16  21
ATOM     17  C   UNL     1       3.733   1.799  17.443  0.00  0.00    +0.000 C 
ATOM     18  C   UNL     1       3.354   1.866  18.921  0.00  0.00    +0.000 C 
ATOM     19  C   UNL     1       3.785   3.191  19.572  0.00  0.00    +0.000 C 
ATOM     20  N   UNL     1       2.914   4.297  19.152  0.00  0.00    +0.000 N 
ATOM     21  C   UNL     1       3.478   5.404  18.544  0.00  0.00    +0.000 C 
ATOM     22  O   UNL     1       4.698   5.504  18.384  0.00  0.00    +0.000 OA
ATOM     23  C   UNL     1       1.470   4.032  19.332  0.00  0.00    +0.000 C 
ATOM     24  C   UNL     1       1.091   4.035  20.816  0.00  0.00    +0.000 C 
ATOM     25  C   UNL     1       1.107   2.685  18.672  0.00  0.00    +0.000 C 
ATOM     26  O   UNL     1       1.949   1.613  19.119  0.00  0.00    +0.000 OA
ENDBRANCH  16  21
ENDBRANCH   1  16
TORSDOF 3
ENDMDL
MODEL 6
REMARK VINA RESULT:      -6.9      6.324      7.891
REMARK  Name = 
REMARK  5 active torsions:
REMARK  status: ('A' for Active; 'I' for Inactive)
REMARK    1  A    between atoms: C_1  and  C_2
REMARK    2  A    between atoms: C_5  and  C_7
REMARK    3  A    between atoms: C_7  and  C_8
REMARK    4  A    between atoms: N_12  and  C_13
REMARK    5  A    between atoms: C_22  and  C_23
REMARK                            x       y       z     vdW  Elec       q    Type
REMARK                         _______ _______ _______ _____ _____    ______ ____
ROOT
ATOM      1  C   UNL     1       1.159   9.202  20.555  0.00  0.00    +0.000 C 
ATOM      2  N   UNL     1       1.243   9.764  19.242  0.00  0.00    +0.000 N 
ATOM      3  C   UNL     1       1.872   8.934  18.349  0.00  0.00    +0.000 C 
ATOM      4  O   UNL     1       2.057   9.275  17.192  0.00  0.00    +0.000 OA
ATOM      5  N   UNL     1       2.140   7.735  18.973  0.00  0.00    +0.000 N 
ATOM      6  C   UNL     1       1.621   7.770  20.262  0.00  0.00    +0.000 C 
ATOM      7  O   UNL     1       1.571   6.874  21.095  0.00  0.00    +0.000 OA
ATOM      8  H   UNL     1       1.018  10.724  19.007  0.00  0.00    +0.000 HD
ENDROOT
BRANCH   5   9
ATOM      9  C   UNL     1       2.792   6.632  18.348  0.00  0.00    +0.000 A 
ATOM     10  C   UNL     1       2.123   5.403  18.184  0.00  0.00    +0.000 A 
ATOM     11  C   UNL     1       2.746   4.301  17.590  0.00  0.00    +0.000 A 
ATOM     12  C   UNL     1       4.054   4.411  17.154  0.00  0.00    +0.000 A 
ATOM     13  F   UNL     1       4.660   3.355  16.597  0.00  0.00    +0.000 F 
ATOM     14  C   UNL     1       4.741   5.608  17.289  0.00  0.00    +0.000 A 
ATOM     15  C   UNL     1       4.110   6.716  17.869  0.00  0.00    +0.000 A 
ENDBRANCH   5   9
BRANCH   1  16
ATOM     16  C   UNL     1      -0.236   9.285  21.159  0.00  0.00    +0.000 C 
BRANCH  16  21
ATOM     17  C   UNL     1      -3.299  12.268  23.554  0.00  0.00    +0.000 C 
ATOM     18  C   UNL     1      -2.348  13.236  22.854  0.00  0.00    +0.000 C 
ATOM     19  C   UNL     1      -0.908  12.700  22.800  0.00  0.00    +0.000 C 
ATOM     20  N   UNL     1      -0.777  11.629  21.803  0.00  0.00    +0.000 N 
ATOM     21  C   UNL     1      -0.312  10.390  22.204  0.00  0.00    +0.000 C 
ATOM     22  O   UNL     1       0.037  10.174  23.369  0.00  0.00    +0.000 OA
ATOM     23  C   UNL     1      -1.289  11.985  20.462  0.00  0.00    +0.000 C 
ATOM     24  C   UNL     1      -0.376  13.005  19.776  0.00  0.00    +0.000 C 
ATOM     25  C   UNL     1      -2.728  12.529  20.588  0.00  0.00    +0.000 C 
ATOM     26  O   UNL     1      -2.827  13.595  21.544  0.00  0.00    +0.000 OA
ENDBRANCH  16  21
ENDBRANCH   1  16
TORSDOF 3
ENDMDL
MODEL 7
REMARK VINA RESULT:      -6.6      6.056      7.880
REMARK  Name = 
REMARK  5 active torsions:
REMARK  status: ('A' for Active; 'I' for Inactive)
REMARK    1  A    between atoms: C_1  and  C_2
REMARK    2  A    between atoms: C_5  and  C_7
REMARK    3  A    between atoms: C_7  and  C_8
REMARK    4  A    between atoms: N_12  and  C_13
REMARK    5  A    between atoms: C_22  and  C_23
REMARK                            x       y       z     vdW  Elec       q    Type
REMARK                         _______ _______ _______ _____ _____    ______ ____
ROOT
ATOM      1  C   UNL     1       1.276   9.141  20.381  0.00  0.00    +0.000 C 
ATOM      2  N   UNL     1       1.453   9.632  19.049  0.00  0.00    +0.000 N 
ATOM      3  C   UNL     1       2.063   8.721  18.225  0.00  0.00    +0.000 C 
ATOM      4  O   UNL     1       2.320   8.991  17.063  0.00  0.00    +0.000 OA
ATOM      5  N   UNL     1       2.224   7.539  18.915  0.00  0.00    +0.000 N 
ATOM      6  C   UNL     1       1.653   7.670  20.176  0.00  0.00    +0.000 C 
ATOM      7  O   UNL     1       1.508   6.821  21.046  0.00  0.00    +0.000 OA
ATOM      8  H   UNL     1       1.302  10.592  18.760  0.00  0.00    +0.000 HD
ENDROOT
BRANCH   5   9
ATOM      9  C   UNL     1       2.827   6.366  18.372  0.00  0.00    +0.000 A 
ATOM     10  C   UNL     1       2.047   5.232  18.073  0.00  0.00    +0.000 A 
ATOM     11  C   UNL     1       2.617   4.064  17.557  0.00  0.00    +0.000 A 
ATOM     12  C   UNL     1       3.982   4.012  17.335  0.00  0.00    +0.000 A 
ATOM     13  F   UNL     1       4.534   2.893  16.853  0.00  0.00    +0.000 F 
ATOM     14  C   UNL     1       4.779   5.114  17.606  0.00  0.00    +0.000 A 
ATOM     15  C   UNL     1       4.204   6.289  18.108  0.00  0.00    +0.000 A 
ENDBRANCH   5   9
BRANCH   1  16
ATOM     16  C   UNL     1      -0.135   9.343  20.917  0.00  0.00    +0.000 C 
BRANCH  16  21
ATOM     17  C   UNL     1       0.286  13.659  18.633  0.00  0.00    +0.000 C 
ATOM     18  C   UNL     1      -0.834  13.908  19.642  0.00  0.00    +0.000 C 
ATOM     19  C   UNL     1      -1.730  12.673  19.832  0.00  0.00    +0.000 C 
ATOM     20  N   UNL     1      -1.051  11.641  20.627  0.00  0.00    +0.000 N 
ATOM     21  C   UNL     1      -0.888  10.377  20.090  0.00  0.00    +0.000 C 
ATOM     22  O   UNL     1      -1.337  10.082  18.978  0.00  0.00    +0.000 OA
ATOM     23  C   UNL     1      -0.498  12.130  21.909  0.00  0.00    +0.000 C 
ATOM     24  C   UNL     1      -1.616  12.443  22.907  0.00  0.00    +0.000 C 
ATOM     25  C   UNL     1       0.376  13.376  21.651  0.00  0.00    +0.000 C 
ATOM     26  O   UNL     1      -0.317  14.384  20.900  0.00  0.00    +0.000 OA
ENDBRANCH  16  21
ENDBRANCH   1  16
TORSDOF 3
ENDMDL
MODEL 8
REMARK VINA RESULT:      -6.4      4.715      6.471
REMARK  Name = 
REMARK  5 active torsions:
REMARK  status: ('A' for Active; 'I' for Inactive)
REMARK    1  A    between atoms: C_1  and  C_2
REMARK    2  A    between atoms: C_5  and  C_7
REMARK    3  A    between atoms: C_7  and  C_8
REMARK    4  A    between atoms: N_12  and  C_13
REMARK    5  A    between atoms: C_22  and  C_23
REMARK                            x       y       z     vdW  Elec       q    Type
REMARK                         _______ _______ _______ _____ _____    ______ ____
ROOT
ATOM      1  C   UNL     1       1.693   7.336  19.919  0.00  0.00    +0.000 C 
ATOM      2  N   UNL     1       2.105   6.133  20.576  0.00  0.00    +0.000 N 
ATOM      3  C   UNL     1       3.040   5.431  19.858  0.00  0.00    +0.000 C 
ATOM      4  O   UNL     1       3.474   4.364  20.260  0.00  0.00    +0.000 OA
ATOM      5  N   UNL     1       3.392   6.169  18.749  0.00  0.00    +0.000 N 
ATOM      6  C   UNL     1       2.724   7.387  18.786  0.00  0.00    +0.000 C 
ATOM      7  O   UNL     1       2.838   8.349  18.037  0.00  0.00    +0.000 OA
ATOM      8  H   UNL     1       1.659   5.739  21.396  0.00  0.00    +0.000 HD
ENDROOT
BRANCH   5   9
ATOM      9  C   UNL     1       4.341   5.748  17.771  0.00  0.00    +0.000 A 
ATOM     10  C   UNL     1       5.574   6.415  17.636  0.00  0.00    +0.000 A 
ATOM     11  C   UNL     1       6.514   6.033  16.673  0.00  0.00    +0.000 A 
ATOM     12  C   UNL     1       6.230   4.977  15.826  0.00  0.00    +0.000 A 
ATOM     13  F   UNL     1       7.121   4.615  14.894  0.00  0.00    +0.000 F 
ATOM     14  C   UNL     1       5.031   4.290  15.937  0.00  0.00    +0.000 A 
ATOM     15  C   UNL     1       4.097   4.663  16.913  0.00  0.00    +0.000 A 
ENDBRANCH   5   9
BRANCH   1  16
ATOM     16  C   UNL     1       1.717   8.558  20.826  0.00  0.00    +0.000 C 
BRANCH  16  21
ATOM     17  C   UNL     1      -2.042  10.365  18.253  0.00  0.00    +0.000 C 
ATOM     18  C   UNL     1      -1.635  11.538  19.144  0.00  0.00    +0.000 C 
ATOM     19  C   UNL     1      -1.176  11.077  20.538  0.00  0.00    +0.000 C 
ATOM     20  N   UNL     1       0.161  10.471  20.483  0.00  0.00    +0.000 N 
ATOM     21  C   UNL     1       0.332   9.177  20.943  0.00  0.00    +0.000 C 
ATOM     22  O   UNL     1      -0.601   8.536  21.436  0.00  0.00    +0.000 OA
ATOM     23  C   UNL     1       1.178  11.307  19.811  0.00  0.00    +0.000 C 
ATOM     24  C   UNL     1       1.547  12.522  20.668  0.00  0.00    +0.000 C 
ATOM     25  C   UNL     1       0.651  11.748  18.428  0.00  0.00    +0.000 C 
ATOM     26  O   UNL     1      -0.642  12.366  18.508  0.00  0.00    +0.000 OA
ENDBRANCH  16  21
ENDBRANCH   1  16
TORSDOF 3
ENDMDL
MODEL 9
REMARK VINA RESULT:      -6.4      5.327      7.434
REMARK  Name = 
REMARK  5 active torsions:
REMARK  status: ('A' for Active; 'I' for Inactive)
REMARK    1  A    between atoms: C_1  and  C_2
REMARK    2  A    between atoms: C_5  and  C_7
REMARK    3  A    between atoms: C_7  and  C_8
REMARK    4  A    between atoms: N_12  and  C_13
REMARK    5  A    between atoms: C_22  and  C_23
REMARK                            x       y       z     vdW  Elec       q    Type
REMARK                         _______ _______ _______ _____ _____    ______ ____
ROOT
ATOM      1  C   UNL     1       1.656   7.057  19.648  0.00  0.00    +0.000 C 
ATOM      2  N   UNL     1       2.343   7.443  18.453  0.00  0.00    +0.000 N 
ATOM      3  C   UNL     1       2.073   8.735  18.080  0.00  0.00    +0.000 C 
ATOM      4  O   UNL     1       2.551   9.213  17.065  0.00  0.00    +0.000 OA
ATOM      5  N   UNL     1       1.291   9.322  19.052  0.00  0.00    +0.000 N 
ATOM      6  C   UNL     1       1.111   8.418  20.093  0.00  0.00    +0.000 C 
ATOM      7  O   UNL     1       0.560   8.590  21.173  0.00  0.00    +0.000 OA
ATOM      8  H   UNL     1       2.848   6.809  17.845  0.00  0.00    +0.000 HD
ENDROOT
BRANCH   5   9
ATOM      9  C   UNL     1       0.815  10.665  18.999  0.00  0.00    +0.000 A 
ATOM     10  C   UNL     1      -0.521  10.938  18.645  0.00  0.00    +0.000 A 
ATOM     11  C   UNL     1      -1.007  12.247  18.568  0.00  0.00    +0.000 A 
ATOM     12  C   UNL     1      -0.159  13.306  18.841  0.00  0.00    +0.000 A 
ATOM     13  F   UNL     1      -0.615  14.561  18.756  0.00  0.00    +0.000 F 
ATOM     14  C   UNL     1       1.159  13.075  19.203  0.00  0.00    +0.000 A 
ATOM     15  C   UNL     1       1.641  11.762  19.296  0.00  0.00    +0.000 A 
ENDBRANCH   5   9
BRANCH   1  16
ATOM     16  C   UNL     1       2.561   6.393  20.676  0.00  0.00    +0.000 C 
BRANCH  16  21
ATOM     17  C   UNL     1       2.647   3.097  17.050  0.00  0.00    +0.000 C 
ATOM     18  C   UNL     1       2.785   2.236  18.305  0.00  0.00    +0.000 C 
ATOM     19  C   UNL     1       3.626   2.925  19.393  0.00  0.00    +0.000 C 
ATOM     20  N   UNL     1       2.871   4.004  20.044  0.00  0.00    +0.000 N 
ATOM     21  C   UNL     1       3.390   5.286  20.039  0.00  0.00    +0.000 C 
ATOM     22  O   UNL     1       4.490   5.538  19.539  0.00  0.00    +0.000 OA
ATOM     23  C   UNL     1       1.540   3.595  20.544  0.00  0.00    +0.000 C 
ATOM     24  C   UNL     1       1.669   2.680  21.765  0.00  0.00    +0.000 C 
ATOM     25  C   UNL     1       0.756   2.899  19.412  0.00  0.00    +0.000 C 
ATOM     26  O   UNL     1       1.499   1.828  18.811  0.00  0.00    +0.000 OA
ENDBRANCH  16  21
ENDBRANCH   1  16
TORSDOF 3
ENDMDL
