MODEL 1
REMARK VINA RESULT:      -6.9      0.000      0.000
REMARK  Name = 
REMARK  4 active torsions:
REMARK  status: ('A' for Active; 'I' for Inactive)
REMARK    1  A    between atoms: N_2  and  C_4
REMARK    2  A    between atoms: N_6  and  C_7
REMARK    3  A    between atoms: C_11  and  C_12
REMARK    4  A    between atoms: C_16  and  N_17
REMARK                            x       y       z     vdW  Elec       q    Type
REMARK                         _______ _______ _______ _____ _____    ______ ____
ROOT
ATOM      1  C   UNL     1       5.050   5.360  17.750  0.00  0.00    +0.000 A 
ATOM      2  C   UNL     1       6.080   6.127  17.225  0.00  0.00    +0.000 A 
ATOM      3  N   UNL     1       6.469   7.349  17.828  0.00  0.00    +0.000 N 
ATOM      4  N   UNL     1       6.757   5.692  16.145  0.00  0.00    +0.000 NA
ATOM      5  C   UNL     1       6.360   4.544  15.564  0.00  0.00    +0.000 A 
ATOM      6  N   UNL     1       5.361   3.775  16.047  0.00  0.00    +0.000 NA
ATOM      7  C   UNL     1       4.688   4.164  17.152  0.00  0.00    +0.000 A 
ATOM      8  H   UNL     1       5.668   7.947  18.024  0.00  0.00    +0.000 HD
ENDROOT
BRANCH   7   9
ATOM      9  N   UNL     1       3.623   3.367  17.580  0.00  0.00    +0.000 N 
ATOM     10  C   UNL     1       2.334   3.556  16.903  0.00  0.00    +0.000 C 
ATOM     11  C   UNL     1       1.350   4.142  17.917  0.00  0.00    +0.000 C 
ATOM     12  C   UNL     1       0.875   3.158  18.989  0.00  0.00    +0.000 C 
ATOM     13  C   UNL     1       1.976   2.403  19.740  0.00  0.00    +0.000 C 
ATOM     14  C   UNL     1       2.734   1.409  18.854  0.00  0.00    +0.000 C 
ATOM     15  C   UNL     1       3.906   2.010  18.063  0.00  0.00    +0.000 C 
ENDBRANCH   7   9
BRANCH   1  17
ATOM     16  O   UNL     1       3.480   6.793  18.578  0.00  0.00    +0.000 OA
ATOM     17  N   UNL     1       4.291   5.894  18.836  0.00  0.00    +0.000 N 
ATOM     18  O   UNL     1       4.456   5.380  19.952  0.00  0.00    +0.000 OA
ENDBRANCH   1  17
BRANCH   3  19
ATOM     19  C   UNL     1       7.685   8.054  17.428  0.00  0.00    +0.000 C 
ATOM     20  C   UNL     1       7.937   9.509  17.697  0.00  0.00    +0.000 C 
ATOM     21  C   UNL     1       8.639   8.473  18.520  0.00  0.00    +0.000 C 
ENDBRANCH   3  19
BRANCH   5  22
ATOM     22  C   UNL     1       7.044   4.110  14.286  0.00  0.00    +0.000 C 
ATOM     23  C   UNL     1       6.232   3.701  13.075  0.00  0.00    +0.000 C 
ATOM     24  C   UNL     1       6.978   5.001  13.063  0.00  0.00    +0.000 C 
ENDBRANCH   5  22
TORSDOF 4
ENDMDL
MODEL 2
REMARK VINA RESULT:      -6.8      1.932      4.533
REMARK  Name = 
REMARK  4 active torsions:
REMARK  status: ('A' for Active; 'I' for Inactive)
REMARK    1  A    between atoms: N_2  and  C_4
REMARK    2  A    between atoms: N_6  and  C_7
REMARK    3  A    between atoms: C_11  and  C_12
REMARK    4  A    between atoms: C_16  and  N_17
REMARK                            x       y       z     vdW  Elec       q    Type
REMARK                         _______ _______ _______ _____ _____    ______ ____
ROOT
ATOM      1  C   UNL     1       4.330   4.246  16.928  0.00  0.00    +0.000 A 
ATOM      2  C   UNL     1       5.194   4.382  15.851  0.00  0.00    +0.000 A 
ATOM      3  N   UNL     1       5.026   3.615  14.671  0.00  0.00    +0.000 N 
ATOM      4  N   UNL     1       6.191   5.287  15.901  0.00  0.00    +0.000 NA
ATOM      5  C   UNL     1       6.358   5.989  17.037  0.00  0.00    +0.000 A 
ATOM      6  N   UNL     1       5.538   5.880  18.105  0.00  0.00    +0.000 NA
ATOM      7  C   UNL     1       4.504   5.009  18.070  0.00  0.00    +0.000 A 
ATOM      8  H   UNL     1       4.896   2.626  14.877  0.00  0.00    +0.000 HD
ENDROOT
BRANCH   7   9
ATOM      9  N   UNL     1       3.720   4.887  19.221  0.00  0.00    +0.000 N 
ATOM     10  C   UNL     1       4.235   4.025  20.291  0.00  0.00    +0.000 C 
ATOM     11  C   UNL     1       3.306   2.815  20.412  0.00  0.00    +0.000 C 
ATOM     12  C   UNL     1       1.941   3.117  21.032  0.00  0.00    +0.000 C 
ATOM     13  C   UNL     1       1.165   4.281  20.409  0.00  0.00    +0.000 C 
ATOM     14  C   UNL     1       1.821   5.642  20.661  0.00  0.00    +0.000 C 
ATOM     15  C   UNL     1       2.908   6.033  19.648  0.00  0.00    +0.000 C 
ENDBRANCH   7   9
BRANCH   1  17
ATOM     16  O   UNL     1       3.698   2.072  17.204  0.00  0.00    +0.000 OA
ATOM     17  N   UNL     1       3.344   3.214  16.882  0.00  0.00    +0.000 N 
ATOM     18  O   UNL     1       2.189   3.543  16.578  0.00  0.00    +0.000 OA
ENDBRANCH   1  17
BRANCH   3  19
ATOM     19  C   UNL     1       5.780   3.900  13.452  0.00  0.00    +0.000 C 
ATOM     20  C   UNL     1       6.235   2.848  12.484  0.00  0.00    +0.000 C 
ATOM     21  C   UNL     1       5.068   3.719  12.134  0.00  0.00    +0.000 C 
ENDBRANCH   3  19
BRANCH   5  22
ATOM     22  C   UNL     1       7.543   6.923  17.138  0.00  0.00    +0.000 C 
ATOM     23  C   UNL     1       7.385   8.313  17.717  0.00  0.00    +0.000 C 
ATOM     24  C   UNL     1       8.114   7.264  18.499  0.00  0.00    +0.000 C 
ENDBRANCH   5  22
TORSDOF 4
ENDMDL
MODEL 3
REMARK VINA RESULT:      -6.4      2.952      5.998
REMARK  Name = 
REMARK  4 active torsions:
REMARK  status: ('A' for Active; 'I' for Inactive)
REMARK    1  A    between atoms: N_2  and  C_4
REMARK    2  A    between atoms: N_6  and  C_7
REMARK    3  A    between atoms: C_11  and  C_12
REMARK    4  A    between atoms: C_16  and  N_17
REMARK                            x       y       z     vdW  Elec       q    Type
REMARK                         _______ _______ _______ _____ _____    ______ ____
ROOT
ATOM      1  C   UNL     1       3.265   6.490  18.597  0.00  0.00    +0.000 A 
ATOM      2  C   UNL     1       2.409   6.902  19.609  0.00  0.00    +0.000 A 
ATOM      3  N   UNL     1       1.906   8.225  19.654  0.00  0.00    +0.000 N 
ATOM      4  N   UNL     1       2.011   6.023  20.549  0.00  0.00    +0.000 NA
ATOM      5  C   UNL     1       2.519   4.777  20.512  0.00  0.00    +0.000 A 
ATOM      6  N   UNL     1       3.355   4.344  19.544  0.00  0.00    +0.000 NA
ATOM      7  C   UNL     1       3.741   5.190  18.564  0.00  0.00    +0.000 A 
ATOM      8  H   UNL     1       2.644   8.917  19.533  0.00  0.00    +0.000 HD
ENDROOT
BRANCH   7   9
ATOM      9  N   UNL     1       4.654   4.716  17.618  0.00  0.00    +0.000 N 
ATOM     10  C   UNL     1       5.884   4.098  18.129  0.00  0.00    +0.000 C 
ATOM     11  C   UNL     1       7.060   4.995  17.742  0.00  0.00    +0.000 C 
ATOM     12  C   UNL     1       7.422   4.969  16.255  0.00  0.00    +0.000 C 
ATOM     13  C   UNL     1       6.266   5.212  15.281  0.00  0.00    +0.000 C 
ATOM     14  C   UNL     1       5.238   4.076  15.273  0.00  0.00    +0.000 C 
ATOM     15  C   UNL     1       4.145   4.186  16.348  0.00  0.00    +0.000 C 
ENDBRANCH   7   9
BRANCH   1  17
ATOM     16  O   UNL     1       4.968   7.573  17.534  0.00  0.00    +0.000 OA
ATOM     17  N   UNL     1       3.742   7.468  17.672  0.00  0.00    +0.000 N 
ATOM     18  O   UNL     1       2.895   8.103  17.027  0.00  0.00    +0.000 OA
ENDBRANCH   1  17
BRANCH   3  19
ATOM     19  C   UNL     1       0.837   8.614  20.573  0.00  0.00    +0.000 C 
ATOM     20  C   UNL     1       1.072   9.084  21.979  0.00  0.00    +0.000 C 
ATOM     21  C   UNL     1       0.712  10.078  20.917  0.00  0.00    +0.000 C 
ENDBRANCH   3  19
BRANCH   5  22
ATOM     22  C   UNL     1       2.163   3.822  21.630  0.00  0.00    +0.000 C 
ATOM     23  C   UNL     1       1.217   2.664  21.385  0.00  0.00    +0.000 C 
ATOM     24  C   UNL     1       2.678   2.398  21.590  0.00  0.00    +0.000 C 
ENDBRANCH   5  22
TORSDOF 4
ENDMDL
MODEL 4
REMARK VINA RESULT:      -6.2      2.528      4.028
REMARK  Name = 
REMARK  4 active torsions:
REMARK  status: ('A' for Active; 'I' for Inactive)
REMARK    1  A    between atoms: N_2  and  C_4
REMARK    2  A    between atoms: N_6  and  C_7
REMARK    3  A    between atoms: C_11  and  C_12
REMARK    4  A    between atoms: C_16  and  N_17
REMARK                            x       y       z     vdW  Elec       q    Type
REMARK                         _______ _______ _______ _____ _____    ______ ____
ROOT
ATOM      1  C   UNL     1       4.228   5.469  18.509  0.00  0.00    +0.000 A 
ATOM      2  C   UNL     1       4.974   6.539  18.035  0.00  0.00    +0.000 A 
ATOM      3  N   UNL     1       6.381   6.452  17.896  0.00  0.00    +0.000 N 
ATOM      4  N   UNL     1       4.353   7.673  17.657  0.00  0.00    +0.000 NA
ATOM      5  C   UNL     1       3.019   7.754  17.820  0.00  0.00    +0.000 A 
ATOM      6  N   UNL     1       2.264   6.734  18.281  0.00  0.00    +0.000 NA
ATOM      7  C   UNL     1       2.853   5.568  18.631  0.00  0.00    +0.000 A 
ATOM      8  H   UNL     1       6.823   6.078  18.734  0.00  0.00    +0.000 HD
ENDROOT
BRANCH   7   9
ATOM      9  N   UNL     1       2.039   4.562  19.159  0.00  0.00    +0.000 N 
ATOM     10  C   UNL     1       1.437   4.813  20.475  0.00  0.00    +0.000 C 
ATOM     11  C   UNL     1       2.053   3.830  21.471  0.00  0.00    +0.000 C 
ATOM     12  C   UNL     1       1.590   2.381  21.309  0.00  0.00    +0.000 C 
ATOM     13  C   UNL     1       1.703   1.797  19.897  0.00  0.00    +0.000 C 
ATOM     14  C   UNL     1       0.737   2.445  18.901  0.00  0.00    +0.000 C 
ATOM     15  C   UNL     1       1.256   3.730  18.238  0.00  0.00    +0.000 C 
ENDBRANCH   7   9
BRANCH   1  17
ATOM     16  O   UNL     1       4.695   3.237  18.429  0.00  0.00    +0.000 OA
ATOM     17  N   UNL     1       4.924   4.317  18.989  0.00  0.00    +0.000 N 
ATOM     18  O   UNL     1       5.753   4.489  19.895  0.00  0.00    +0.000 OA
ENDBRANCH   1  17
BRANCH   3  19
ATOM     19  C   UNL     1       7.152   7.477  17.194  0.00  0.00    +0.000 C 
ATOM     20  C   UNL     1       7.168   8.926  17.584  0.00  0.00    +0.000 C 
ATOM     21  C   UNL     1       8.347   8.061  17.909  0.00  0.00    +0.000 C 
ENDBRANCH   3  19
BRANCH   5  22
ATOM     22  C   UNL     1       2.334   9.065  17.504  0.00  0.00    +0.000 C 
ATOM     23  C   UNL     1       0.872   9.274  17.838  0.00  0.00    +0.000 C 
ATOM     24  C   UNL     1       1.923   9.986  18.634  0.00  0.00    +0.000 C 
ENDBRANCH   5  22
TORSDOF 4
ENDMDL
MODEL 5
REMARK VINA RESULT:      -6.1      8.126     10.021
REMARK  Name = 
REMARK  4 active torsions:
REMARK  status: ('A' for Active; 'I' for Inactive)
REMARK    1  A    between atoms: N_2  and  C_4
REMARK    2  A    between atoms: N_6  and  C_7
REMARK    3  A    between atoms: C_11  and  C_12
REMARK    4  A    between atoms: C_16  and  N_17
REMARK                            x       y       z     vdW  Elec       q    Type
REMARK                         _______ _______ _______ _____ _____    ______ ____
ROOT
ATOM      1  C   UNL     1      -0.032  11.146  19.878  0.00  0.00    +0.000 A 
ATOM      2  C   UNL     1       0.284  10.245  18.871  0.00  0.00    +0.000 A 
ATOM      3  N   UNL     1       1.567   9.649  18.792  0.00  0.00    +0.000 N 
ATOM      4  N   UNL     1      -0.653   9.891  17.970  0.00  0.00    +0.000 NA
ATOM      5  C   UNL     1      -1.859  10.485  18.038  0.00  0.00    +0.000 A 
ATOM      6  N   UNL     1      -2.198  11.368  19.002  0.00  0.00    +0.000 NA
ATOM      7  C   UNL     1      -1.293  11.713  19.944  0.00  0.00    +0.000 A 
ATOM      8  H   UNL     1       2.311  10.339  18.873  0.00  0.00    +0.000 HD
ENDROOT
BRANCH   7   9
ATOM      9  N   UNL     1      -1.670  12.675  20.886  0.00  0.00    +0.000 N 
ATOM     10  C   UNL     1      -1.838  14.052  20.402  0.00  0.00    +0.000 C 
ATOM     11  C   UNL     1      -0.746  14.913  21.037  0.00  0.00    +0.000 C 
ATOM     12  C   UNL     1      -0.940  15.195  22.528  0.00  0.00    +0.000 C 
ATOM     13  C   UNL     1      -1.189  13.971  23.414  0.00  0.00    +0.000 C 
ATOM     14  C   UNL     1      -2.539  13.299  23.145  0.00  0.00    +0.000 C 
ATOM     15  C   UNL     1      -2.533  12.273  22.002  0.00  0.00    +0.000 C 
ENDBRANCH   7   9
BRANCH   1  17
ATOM     16  O   UNL     1       1.163  10.936  21.810  0.00  0.00    +0.000 OA
ATOM     17  N   UNL     1       1.009  11.572  20.758  0.00  0.00    +0.000 N 
ATOM     18  O   UNL     1       1.725  12.511  20.381  0.00  0.00    +0.000 OA
ENDBRANCH   1  17
BRANCH   3  19
ATOM     19  C   UNL     1       1.847   8.538  17.883  0.00  0.00    +0.000 C 
ATOM     20  C   UNL     1       3.228   8.049  17.560  0.00  0.00    +0.000 C 
ATOM     21  C   UNL     1       2.362   7.255  18.489  0.00  0.00    +0.000 C 
ENDBRANCH   3  19
BRANCH   5  22
ATOM     22  C   UNL     1      -2.876  10.175  16.962  0.00  0.00    +0.000 C 
ATOM     23  C   UNL     1      -3.951  11.178  16.602  0.00  0.00    +0.000 C 
ATOM     24  C   UNL     1      -2.825  10.924  15.647  0.00  0.00    +0.000 C 
ENDBRANCH   5  22
TORSDOF 4
ENDMDL
MODEL 6
REMARK VINA RESULT:      -6.0      5.014      7.170
REMARK  Name = 
REMARK  4 active torsions:
REMARK  status: ('A' for Active; 'I' for Inactive)
REMARK    1  A    between atoms: N_2  and  C_4
REMARK    2  A    between atoms: N_6  and  C_7
REMARK    3  A    between atoms: C_11  and  C_12
REMARK    4  A    between atoms: C_16  and  N_17
REMARK                            x       y       z     vdW  Elec       q    Type
REMARK                         _______ _______ _______ _____ _____    ______ ____
ROOT
ATOM      1  C   UNL     1       1.349   8.020  20.146  0.00  0.00    +0.000 A 
ATOM      2  C   UNL     1       2.077   6.839  20.108  0.00  0.00    +0.000 A 
ATOM      3  N   UNL     1       1.959   5.869  21.134  0.00  0.00    +0.000 N 
ATOM      4  N   UNL     1       2.883   6.582  19.060  0.00  0.00    +0.000 NA
ATOM      5  C   UNL     1       3.008   7.524  18.106  0.00  0.00    +0.000 A 
ATOM      6  N   UNL     1       2.317   8.684  18.113  0.00  0.00    +0.000 NA
ATOM      7  C   UNL     1       1.470   8.954  19.131  0.00  0.00    +0.000 A 
ATOM      8  H   UNL     1       2.038   6.284  22.060  0.00  0.00    +0.000 HD
ENDROOT
BRANCH   7   9
ATOM      9  N   UNL     1       0.824  10.194  19.127  0.00  0.00    +0.000 N 
ATOM     10  C   UNL     1       1.674  11.390  19.159  0.00  0.00    +0.000 C 
ATOM     11  C   UNL     1       1.447  12.095  20.497  0.00  0.00    +0.000 C 
ATOM     12  C   UNL     1       0.097  12.802  20.626  0.00  0.00    +0.000 C 
ATOM     13  C   UNL     1      -1.136  11.956  20.293  0.00  0.00    +0.000 C 
ATOM     14  C   UNL     1      -1.227  11.587  18.809  0.00  0.00    +0.000 C 
ATOM     15  C   UNL     1      -0.449  10.324  18.408  0.00  0.00    +0.000 C 
ENDBRANCH   7   9
BRANCH   1  17
ATOM     16  O   UNL     1      -0.589   7.895  21.342  0.00  0.00    +0.000 OA
ATOM     17  N   UNL     1       0.579   8.305  21.315  0.00  0.00    +0.000 N 
ATOM     18  O   UNL     1       1.150   8.892  22.245  0.00  0.00    +0.000 OA
ENDBRANCH   1  17
BRANCH   3  19
ATOM     19  C   UNL     1       2.539   4.533  21.002  0.00  0.00    +0.000 C 
ATOM     20  C   UNL     1       2.136   3.359  21.845  0.00  0.00    +0.000 C 
ATOM     21  C   UNL     1       1.663   3.447  20.426  0.00  0.00    +0.000 C 
ENDBRANCH   3  19
BRANCH   5  22
ATOM     22  C   UNL     1       3.997   7.286  16.986  0.00  0.00    +0.000 C 
ATOM     23  C   UNL     1       5.436   6.928  17.289  0.00  0.00    +0.000 C 
ATOM     24  C   UNL     1       4.516   5.887  16.730  0.00  0.00    +0.000 C 
ENDBRANCH   5  22
TORSDOF 4
ENDMDL
MODEL 7
REMARK VINA RESULT:      -5.9      8.237     10.095
REMARK  Name = 
REMARK  4 active torsions:
REMARK  status: ('A' for Active; 'I' for Inactive)
REMARK    1  A    between atoms: N_2  and  C_4
REMARK    2  A    between atoms: N_6  and  C_7
REMARK    3  A    between atoms: C_11  and  C_12
REMARK    4  A    between atoms: C_16  and  N_17
REMARK                            x       y       z     vdW  Elec       q    Type
REMARK                         _______ _______ _______ _____ _____    ______ ____
ROOT
ATOM      1  C   UNL     1      -0.085  11.242  19.601  0.00  0.00    +0.000 A 
ATOM      2  C   UNL     1       0.255  10.266  18.675  0.00  0.00    +0.000 A 
ATOM      3  N   UNL     1       1.546   9.682  18.662  0.00  0.00    +0.000 N 
ATOM      4  N   UNL     1      -0.665   9.829  17.794  0.00  0.00    +0.000 NA
ATOM      5  C   UNL     1      -1.878  10.412  17.798  0.00  0.00    +0.000 A 
ATOM      6  N   UNL     1      -2.241  11.365  18.683  0.00  0.00    +0.000 NA
ATOM      7  C   UNL     1      -1.353  11.797  19.605  0.00  0.00    +0.000 A 
ATOM      8  H   UNL     1       2.281  10.385  18.696  0.00  0.00    +0.000 HD
ENDROOT
BRANCH   7   9
ATOM      9  N   UNL     1      -1.754  12.828  20.460  0.00  0.00    +0.000 N 
ATOM     10  C   UNL     1      -1.982  12.477  21.867  0.00  0.00    +0.000 C 
ATOM     11  C   UNL     1      -3.475  12.640  22.159  0.00  0.00    +0.000 C 
ATOM     12  C   UNL     1      -3.958  14.090  22.229  0.00  0.00    +0.000 C 
ATOM     13  C   UNL     1      -3.581  14.979  21.040  0.00  0.00    +0.000 C 
ATOM     14  C   UNL     1      -2.078  15.257  20.951  0.00  0.00    +0.000 C 
ATOM     15  C   UNL     1      -1.266  14.188  20.204  0.00  0.00    +0.000 C 
ENDBRANCH   7   9
BRANCH   1  17
ATOM     16  O   UNL     1       1.077  11.213  21.565  0.00  0.00    +0.000 OA
ATOM     17  N   UNL     1       0.939  11.751  20.458  0.00  0.00    +0.000 N 
ATOM     18  O   UNL     1       1.658  12.656  20.011  0.00  0.00    +0.000 OA
ENDBRANCH   1  17
BRANCH   3  19
ATOM     19  C   UNL     1       1.852   8.505  17.850  0.00  0.00    +0.000 C 
ATOM     20  C   UNL     1       3.241   7.988  17.614  0.00  0.00    +0.000 C 
ATOM     21  C   UNL     1       2.337   7.269  18.569  0.00  0.00    +0.000 C 
ENDBRANCH   3  19
BRANCH   5  22
ATOM     22  C   UNL     1      -2.876  10.003  16.737  0.00  0.00    +0.000 C 
ATOM     23  C   UNL     1      -4.004  10.931  16.338  0.00  0.00    +0.000 C 
ATOM     24  C   UNL     1      -2.865  10.699  15.392  0.00  0.00    +0.000 C 
ENDBRANCH   5  22
TORSDOF 4
ENDMDL
MODEL 8
REMARK VINA RESULT:      -5.8      2.069      4.460
REMARK  Name = 
REMARK  4 active torsions:
REMARK  status: ('A' for Active; 'I' for Inactive)
REMARK    1  A    between atoms: N_2  and  C_4
REMARK    2  A    between atoms: N_6  and  C_7
REMARK    3  A    between atoms: C_11  and  C_12
REMARK    4  A    between atoms: C_16  and  N_17
REMARK                            x       y       z     vdW  Elec       q    Type
REMARK                         _______ _______ _______ _____ _____    ______ ____
ROOT
ATOM      1  C   UNL     1       4.287   3.834  17.407  0.00  0.00    +0.000 A 
ATOM      2  C   UNL     1       5.329   3.850  16.490  0.00  0.00    +0.000 A 
ATOM      3  N   UNL     1       5.181   3.286  15.198  0.00  0.00    +0.000 N 
ATOM      4  N   UNL     1       6.493   4.447  16.808  0.00  0.00    +0.000 NA
ATOM      5  C   UNL     1       6.632   4.953  18.048  0.00  0.00    +0.000 A 
ATOM      6  N   UNL     1       5.640   4.952  18.965  0.00  0.00    +0.000 NA
ATOM      7  C   UNL     1       4.446   4.396  18.662  0.00  0.00    +0.000 A 
ATOM      8  H   UNL     1       4.779   2.352  15.236  0.00  0.00    +0.000 HD
ENDROOT
BRANCH   7   9
ATOM      9  N   UNL     1       3.471   4.364  19.663  0.00  0.00    +0.000 N 
ATOM     10  C   UNL     1       3.708   3.461  20.796  0.00  0.00    +0.000 C 
ATOM     11  C   UNL     1       2.653   2.355  20.747  0.00  0.00    +0.000 C 
ATOM     12  C   UNL     1       1.241   2.800  21.133  0.00  0.00    +0.000 C 
ATOM     13  C   UNL     1       0.705   4.035  20.401  0.00  0.00    +0.000 C 
ATOM     14  C   UNL     1       1.447   5.322  20.773  0.00  0.00    +0.000 C 
ATOM     15  C   UNL     1       2.723   5.591  19.960  0.00  0.00    +0.000 C 
ENDBRANCH   7   9
BRANCH   1  17
ATOM     16  O   UNL     1       3.091   1.894  17.300  0.00  0.00    +0.000 OA
ATOM     17  N   UNL     1       3.101   3.111  17.074  0.00  0.00    +0.000 N 
ATOM     18  O   UNL     1       2.142   3.763  16.636  0.00  0.00    +0.000 OA
ENDBRANCH   1  17
BRANCH   3  19
ATOM     19  C   UNL     1       6.178   3.490  14.149  0.00  0.00    +0.000 C 
ATOM     20  C   UNL     1       5.868   3.458  12.681  0.00  0.00    +0.000 C 
ATOM     21  C   UNL     1       6.105   4.773  13.358  0.00  0.00    +0.000 C 
ENDBRANCH   3  19
BRANCH   5  22
ATOM     22  C   UNL     1       7.975   5.523  18.447  0.00  0.00    +0.000 C 
ATOM     23  C   UNL     1       8.135   7.002  18.727  0.00  0.00    +0.000 C 
ATOM     24  C   UNL     1       8.185   6.023  19.861  0.00  0.00    +0.000 C 
ENDBRANCH   5  22
TORSDOF 4
ENDMDL
MODEL 9
REMARK VINA RESULT:      -5.8      2.929      5.865
REMARK  Name = 
REMARK  4 active torsions:
REMARK  status: ('A' for Active; 'I' for Inactive)
REMARK    1  A    between atoms: N_2  and  C_4
REMARK    2  A    between atoms: N_6  and  C_7
REMARK    3  A    between atoms: C_11  and  C_12
REMARK    4  A    between atoms: C_16  and  N_17
REMARK                            x       y       z     vdW  Elec       q    Type
REMARK                         _______ _______ _______ _____ _____    ______ ____
ROOT
ATOM      1  C   UNL     1       3.506   6.598  18.097  0.00  0.00    +0.000 A 
ATOM      2  C   UNL     1       2.514   7.188  18.866  0.00  0.00    +0.000 A 
ATOM      3  N   UNL     1       2.207   8.566  18.742  0.00  0.00    +0.000 N 
ATOM      4  N   UNL     1       1.794   6.438  19.723  0.00  0.00    +0.000 NA
ATOM      5  C   UNL     1       2.113   5.137  19.854  0.00  0.00    +0.000 A 
ATOM      6  N   UNL     1       3.074   4.531  19.122  0.00  0.00    +0.000 NA
ATOM      7  C   UNL     1       3.787   5.248  18.226  0.00  0.00    +0.000 A 
ATOM      8  H   UNL     1       3.044   9.145  18.768  0.00  0.00    +0.000 HD
ENDROOT
BRANCH   7   9
ATOM      9  N   UNL     1       4.811   4.593  17.536  0.00  0.00    +0.000 N 
ATOM     10  C   UNL     1       5.917   4.054  18.338  0.00  0.00    +0.000 C 
ATOM     11  C   UNL     1       7.180   4.844  17.991  0.00  0.00    +0.000 C 
ATOM     12  C   UNL     1       7.764   4.542  16.610  0.00  0.00    +0.000 C 
ATOM     13  C   UNL     1       6.784   4.627  15.436  0.00  0.00    +0.000 C 
ATOM     14  C   UNL     1       5.716   3.529  15.464  0.00  0.00    +0.000 C 
ATOM     15  C   UNL     1       4.478   3.852  16.314  0.00  0.00    +0.000 C 
ENDBRANCH   7   9
BRANCH   1  17
ATOM     16  O   UNL     1       5.397   7.820  17.729  0.00  0.00    +0.000 OA
ATOM     17  N   UNL     1       4.313   7.437  17.269  0.00  0.00    +0.000 N 
ATOM     18  O   UNL     1       3.899   7.677  16.126  0.00  0.00    +0.000 OA
ENDBRANCH   1  17
BRANCH   3  19
ATOM     19  C   UNL     1       1.027   9.154  19.373  0.00  0.00    +0.000 C 
ATOM     20  C   UNL     1       0.882  10.616  19.679  0.00  0.00    +0.000 C 
ATOM     21  C   UNL     1       0.141  10.026  18.518  0.00  0.00    +0.000 C 
ENDBRANCH   3  19
BRANCH   5  22
ATOM     22  C   UNL     1       1.384   4.318  20.895  0.00  0.00    +0.000 C 
ATOM     23  C   UNL     1       1.187   2.828  20.708  0.00  0.00    +0.000 C 
ATOM     24  C   UNL     1       2.154   3.324  21.740  0.00  0.00    +0.000 C 
ENDBRANCH   5  22
TORSDOF 4
ENDMDL
