MODEL 1
REMARK VINA RESULT:      -6.2      0.000      0.000
REMARK  Name = 
REMARK  4 active torsions:
REMARK  status: ('A' for Active; 'I' for Inactive)
REMARK    1  A    between atoms: C_1  and  N_2
REMARK    2  A    between atoms: C_6  and  C_7
REMARK    3  A    between atoms: N_16  and  C_17
REMARK    4  A    between atoms: C_17  and  C_18
REMARK                            x       y       z     vdW  Elec       q    Type
REMARK                         _______ _______ _______ _____ _____    ______ ____
ROOT
ATOM      1  C   UNL     1       4.057   3.265  19.182  0.00  0.00    +0.000 C 
ATOM      2  O   UNL     1       4.669   2.300  18.754  0.00  0.00    +0.000 OA
ATOM      3  N   UNL     1       4.493   4.590  18.903  0.00  0.00    +0.000 N 
ATOM      4  C   UNL     1       3.775   5.822  19.222  0.00  0.00    +0.000 C 
ATOM      5  C   UNL     1       3.687   6.809  18.070  0.00  0.00    +0.000 C 
ATOM      6  C   UNL     1       4.978   6.962  17.287  0.00  0.00    +0.000 C 
ATOM      7  C   UNL     1       5.729   5.634  17.029  0.00  0.00    +0.000 C 
ATOM      8  C   UNL     1       7.080   5.979  16.390  0.00  0.00    +0.000 C 
ATOM      9  C   UNL     1       7.368   4.860  15.413  0.00  0.00    +0.000 C 
ATOM     10  N   UNL     1       6.077   4.302  15.017  0.00  0.00    +0.000 NA
ATOM     11  C   UNL     1       5.053   4.747  15.973  0.00  0.00    +0.000 C 
ATOM     12  C   UNL     1       5.836   4.826  18.341  0.00  0.00    +0.000 C 
ENDROOT
BRANCH   1  18
ATOM     13  C   UNL     1       0.984   3.439  18.337  0.00  0.00    +0.000 C 
ATOM     14  N   UNL     1       1.532   3.147  19.646  0.00  0.00    +0.000 N 
ATOM     15  C   UNL     1       0.711   2.858  20.718  0.00  0.00    +0.000 A 
ATOM     16  C   UNL     1       1.495   2.616  21.813  0.00  0.00    +0.000 A 
ATOM     17  C   UNL     1       2.827   2.719  21.377  0.00  0.00    +0.000 A 
ATOM     18  C   UNL     1       2.865   3.085  20.036  0.00  0.00    +0.000 A 
ENDBRANCH   1  18
BRANCH  10  19
ATOM     19  C   UNL     1       5.663   4.624  13.641  0.00  0.00    +0.000 C 
BRANCH  19  20
ATOM     20  C   UNL     1       5.883   3.519  12.638  0.00  0.00    +0.000 A 
ATOM     21  N   UNL     1       7.068   3.013  12.353  0.00  0.00    +0.000 NA
ATOM     22  C   UNL     1       6.939   2.047  11.376  0.00  0.00    +0.000 A 
ATOM     23  C   UNL     1       5.655   1.811  10.936  0.00  0.00    +0.000 A 
ATOM     24  S   UNL     1       4.565   2.853  11.749  0.00  0.00    +0.000 S 
ENDBRANCH  19  20
ENDBRANCH  10  19
TORSDOF 3
ENDMDL
MODEL 2
REMARK VINA RESULT:      -6.0      4.468      8.122
REMARK  Name = 
REMARK  4 active torsions:
REMARK  status: ('A' for Active; 'I' for Inactive)
REMARK    1  A    between atoms: C_1  and  N_2
REMARK    2  A    between atoms: C_6  and  C_7
REMARK    3  A    between atoms: N_16  and  C_17
REMARK    4  A    between atoms: C_17  and  C_18
REMARK                            x       y       z     vdW  Elec       q    Type
REMARK                         _______ _______ _______ _____ _____    ______ ____
ROOT
ATOM      1  C   UNL     1       5.187   6.340  17.368  0.00  0.00    +0.000 C 
ATOM      2  O   UNL     1       5.571   7.457  17.671  0.00  0.00    +0.000 OA
ATOM      3  N   UNL     1       4.145   5.702  18.097  0.00  0.00    +0.000 N 
ATOM      4  C   UNL     1       3.491   4.443  17.749  0.00  0.00    +0.000 C 
ATOM      5  C   UNL     1       1.973   4.491  17.804  0.00  0.00    +0.000 C 
ATOM      6  C   UNL     1       1.422   5.228  19.009  0.00  0.00    +0.000 C 
ATOM      7  C   UNL     1       2.187   6.524  19.371  0.00  0.00    +0.000 C 
ATOM      8  C   UNL     1       1.619   7.046  20.696  0.00  0.00    +0.000 C 
ATOM      9  C   UNL     1       1.667   8.556  20.596  0.00  0.00    +0.000 C 
ATOM     10  N   UNL     1       1.614   8.885  19.173  0.00  0.00    +0.000 NA
ATOM     11  C   UNL     1       1.924   7.679  18.393  0.00  0.00    +0.000 C 
ATOM     12  C   UNL     1       3.706   6.248  19.395  0.00  0.00    +0.000 C 
ENDROOT
BRANCH   1  18
ATOM     13  C   UNL     1       7.732   4.418  17.482  0.00  0.00    +0.000 C 
ATOM     14  N   UNL     1       6.919   4.751  16.330  0.00  0.00    +0.000 N 
ATOM     15  C   UNL     1       7.167   4.193  15.092  0.00  0.00    +0.000 A 
ATOM     16  C   UNL     1       6.246   4.677  14.203  0.00  0.00    +0.000 A 
ATOM     17  C   UNL     1       5.390   5.515  14.938  0.00  0.00    +0.000 A 
ATOM     18  C   UNL     1       5.819   5.599  16.258  0.00  0.00    +0.000 A 
ENDBRANCH   1  18
BRANCH  10  19
ATOM     19  C   UNL     1       0.339   9.468  18.724  0.00  0.00    +0.000 C 
BRANCH  19  20
ATOM     20  C   UNL     1       0.323  10.974  18.644  0.00  0.00    +0.000 A 
ATOM     21  N   UNL     1       1.409  11.723  18.700  0.00  0.00    +0.000 NA
ATOM     22  C   UNL     1       1.058  13.056  18.635  0.00  0.00    +0.000 A 
ATOM     23  C   UNL     1      -0.289  13.314  18.510  0.00  0.00    +0.000 A 
ATOM     24  S   UNL     1      -1.161  11.840  18.503  0.00  0.00    +0.000 S 
ENDBRANCH  19  20
ENDBRANCH  10  19
TORSDOF 3
ENDMDL
MODEL 3
REMARK VINA RESULT:      -5.9      6.711      8.830
REMARK  Name = 
REMARK  4 active torsions:
REMARK  status: ('A' for Active; 'I' for Inactive)
REMARK    1  A    between atoms: C_1  and  N_2
REMARK    2  A    between atoms: C_6  and  C_7
REMARK    3  A    between atoms: N_16  and  C_17
REMARK    4  A    between atoms: C_17  and  C_18
REMARK                            x       y       z     vdW  Elec       q    Type
REMARK                         _______ _______ _______ _____ _____    ______ ____
ROOT
ATOM      1  C   UNL     1       0.867  12.503  20.940  0.00  0.00    +0.000 C 
ATOM      2  O   UNL     1       2.011  12.274  21.295  0.00  0.00    +0.000 OA
ATOM      3  N   UNL     1       0.339  11.923  19.754  0.00  0.00    +0.000 N 
ATOM      4  C   UNL     1      -1.048  11.991  19.300  0.00  0.00    +0.000 C 
ATOM      5  C   UNL     1      -1.631  10.655  18.872  0.00  0.00    +0.000 C 
ATOM      6  C   UNL     1      -0.689   9.807  18.040  0.00  0.00    +0.000 C 
ATOM      7  C   UNL     1       0.780   9.818  18.527  0.00  0.00    +0.000 C 
ATOM      8  C   UNL     1       1.621   9.065  17.489  0.00  0.00    +0.000 C 
ATOM      9  C   UNL     1       2.697   8.347  18.276  0.00  0.00    +0.000 C 
ATOM     10  N   UNL     1       2.165   8.136  19.621  0.00  0.00    +0.000 NA
ATOM     11  C   UNL     1       0.999   9.010  19.815  0.00  0.00    +0.000 C 
ATOM     12  C   UNL     1       1.238  11.270  18.784  0.00  0.00    +0.000 C 
ENDROOT
BRANCH   1  18
ATOM     13  C   UNL     1      -1.365  11.765  23.098  0.00  0.00    +0.000 C 
ATOM     14  N   UNL     1      -0.950  13.083  22.663  0.00  0.00    +0.000 N 
ATOM     15  C   UNL     1      -1.497  14.225  23.213  0.00  0.00    +0.000 A 
ATOM     16  C   UNL     1      -0.915  15.314  22.623  0.00  0.00    +0.000 A 
ATOM     17  C   UNL     1       0.043  14.813  21.724  0.00  0.00    +0.000 A 
ATOM     18  C   UNL     1       0.006  13.423  21.713  0.00  0.00    +0.000 A 
ENDBRANCH   1  18
BRANCH  10  19
ATOM     19  C   UNL     1       1.811   6.740  19.930  0.00  0.00    +0.000 C 
BRANCH  19  20
ATOM     20  C   UNL     1       2.699   5.704  19.287  0.00  0.00    +0.000 A 
ATOM     21  N   UNL     1       3.961   5.509  19.623  0.00  0.00    +0.000 NA
ATOM     22  C   UNL     1       4.505   4.519  18.831  0.00  0.00    +0.000 A 
ATOM     23  C   UNL     1       3.651   3.953  17.910  0.00  0.00    +0.000 A 
ATOM     24  S   UNL     1       2.114   4.703  18.012  0.00  0.00    +0.000 S 
ENDBRANCH  19  20
ENDBRANCH  10  19
TORSDOF 3
ENDMDL
MODEL 4
REMARK VINA RESULT:      -5.9      9.811     12.965
REMARK  Name = 
REMARK  4 active torsions:
REMARK  status: ('A' for Active; 'I' for Inactive)
REMARK    1  A    between atoms: C_1  and  N_2
REMARK    2  A    between atoms: C_6  and  C_7
REMARK    3  A    between atoms: N_16  and  C_17
REMARK    4  A    between atoms: C_17  and  C_18
REMARK                            x       y       z     vdW  Elec       q    Type
REMARK                         _______ _______ _______ _____ _____    ______ ____
ROOT
ATOM      1  C   UNL     1      -0.473  12.467  19.412  0.00  0.00    +0.000 C 
ATOM      2  O   UNL     1      -1.020  13.302  18.711  0.00  0.00    +0.000 OA
ATOM      3  N   UNL     1      -0.619  12.490  20.827  0.00  0.00    +0.000 N 
ATOM      4  C   UNL     1      -0.149  11.471  21.763  0.00  0.00    +0.000 C 
ATOM      5  C   UNL     1      -1.184  11.038  22.787  0.00  0.00    +0.000 C 
ATOM      6  C   UNL     1      -1.983  12.183  23.380  0.00  0.00    +0.000 C 
ATOM      7  C   UNL     1      -2.404  13.265  22.358  0.00  0.00    +0.000 C 
ATOM      8  C   UNL     1      -3.042  14.421  23.139  0.00  0.00    +0.000 C 
ATOM      9  C   UNL     1      -4.142  14.959  22.249  0.00  0.00    +0.000 C 
ATOM     10  N   UNL     1      -4.558  13.859  21.381  0.00  0.00    +0.000 NA
ATOM     11  C   UNL     1      -3.530  12.808  21.418  0.00  0.00    +0.000 C 
ATOM     12  C   UNL     1      -1.191  13.674  21.495  0.00  0.00    +0.000 C 
ENDROOT
BRANCH   1  18
ATOM     13  C   UNL     1       2.561  12.738  18.459  0.00  0.00    +0.000 C 
ATOM     14  N   UNL     1       1.718  11.560  18.422  0.00  0.00    +0.000 N 
ATOM     15  C   UNL     1       2.201  10.347  17.972  0.00  0.00    +0.000 A 
ATOM     16  C   UNL     1       1.197   9.420  18.057  0.00  0.00    +0.000 A 
ATOM     17  C   UNL     1       0.092  10.084  18.616  0.00  0.00    +0.000 A 
ATOM     18  C   UNL     1       0.391  11.428  18.815  0.00  0.00    +0.000 A 
ENDBRANCH   1  18
BRANCH  10  19
ATOM     19  C   UNL     1      -5.878  13.290  21.699  0.00  0.00    +0.000 C 
BRANCH  19  20
ATOM     20  C   UNL     1      -6.381  12.265  20.713  0.00  0.00    +0.000 A 
ATOM     21  N   UNL     1      -6.855  11.083  21.061  0.00  0.00    +0.000 NA
ATOM     22  C   UNL     1      -7.199  10.370  19.932  0.00  0.00    +0.000 A 
ATOM     23  C   UNL     1      -7.004  11.018  18.732  0.00  0.00    +0.000 A 
ATOM     24  S   UNL     1      -6.337  12.570  19.017  0.00  0.00    +0.000 S 
ENDBRANCH  19  20
ENDBRANCH  10  19
TORSDOF 3
ENDMDL
MODEL 5
REMARK VINA RESULT:      -5.8      9.412     12.206
REMARK  Name = 
REMARK  4 active torsions:
REMARK  status: ('A' for Active; 'I' for Inactive)
REMARK    1  A    between atoms: C_1  and  N_2
REMARK    2  A    between atoms: C_6  and  C_7
REMARK    3  A    between atoms: N_16  and  C_17
REMARK    4  A    between atoms: C_17  and  C_18
REMARK                            x       y       z     vdW  Elec       q    Type
REMARK                         _______ _______ _______ _____ _____    ______ ____
ROOT
ATOM      1  C   UNL     1       8.392  13.373  17.886  0.00  0.00    +0.000 C 
ATOM      2  O   UNL     1       7.561  12.923  17.114  0.00  0.00    +0.000 OA
ATOM      3  N   UNL     1       8.205  14.641  18.504  0.00  0.00    +0.000 N 
ATOM      4  C   UNL     1       9.038  15.223  19.553  0.00  0.00    +0.000 C 
ATOM      5  C   UNL     1       8.258  15.791  20.727  0.00  0.00    +0.000 C 
ATOM      6  C   UNL     1       7.025  16.579  20.327  0.00  0.00    +0.000 C 
ATOM      7  C   UNL     1       6.212  15.950  19.170  0.00  0.00    +0.000 C 
ATOM      8  C   UNL     1       5.114  16.946  18.777  0.00  0.00    +0.000 C 
ATOM      9  C   UNL     1       3.919  16.104  18.385  0.00  0.00    +0.000 C 
ATOM     10  N   UNL     1       4.045  14.835  19.098  0.00  0.00    +0.000 NA
ATOM     11  C   UNL     1       5.423  14.701  19.592  0.00  0.00    +0.000 C 
ATOM     12  C   UNL     1       7.158  15.557  18.015  0.00  0.00    +0.000 C 
ENDROOT
BRANCH   1  18
ATOM     13  C   UNL     1      11.263  13.760  16.548  0.00  0.00    +0.000 C 
ATOM     14  N   UNL     1      10.885  12.827  17.590  0.00  0.00    +0.000 N 
ATOM     15  C   UNL     1      11.813  11.984  18.170  0.00  0.00    +0.000 A 
ATOM     16  C   UNL     1      11.182  11.229  19.120  0.00  0.00    +0.000 A 
ATOM     17  C   UNL     1       9.845  11.661  19.145  0.00  0.00    +0.000 A 
ATOM     18  C   UNL     1       9.637  12.632  18.171  0.00  0.00    +0.000 A 
ENDBRANCH   1  18
BRANCH  10  19
ATOM     19  C   UNL     1       3.089  14.652  20.203  0.00  0.00    +0.000 C 
BRANCH  19  20
ATOM     20  C   UNL     1       2.240  13.408  20.107  0.00  0.00    +0.000 A 
ATOM     21  N   UNL     1       1.631  12.855  21.139  0.00  0.00    +0.000 NA
ATOM     22  C   UNL     1       0.967  11.716  20.732  0.00  0.00    +0.000 A 
ATOM     23  C   UNL     1       1.058  11.420  19.390  0.00  0.00    +0.000 A 
ATOM     24  S   UNL     1       2.035  12.588  18.605  0.00  0.00    +0.000 S 
ENDBRANCH  19  20
ENDBRANCH  10  19
TORSDOF 3
ENDMDL
MODEL 6
REMARK VINA RESULT:      -5.8      6.159      8.661
REMARK  Name = 
REMARK  4 active torsions:
REMARK  status: ('A' for Active; 'I' for Inactive)
REMARK    1  A    between atoms: C_1  and  N_2
REMARK    2  A    between atoms: C_6  and  C_7
REMARK    3  A    between atoms: N_16  and  C_17
REMARK    4  A    between atoms: C_17  and  C_18
REMARK                            x       y       z     vdW  Elec       q    Type
REMARK                         _______ _______ _______ _____ _____    ______ ____
ROOT
ATOM      1  C   UNL     1       2.233   7.616  18.348  0.00  0.00    +0.000 C 
ATOM      2  O   UNL     1       2.399   8.375  17.407  0.00  0.00    +0.000 OA
ATOM      3  N   UNL     1       1.894   8.112  19.637  0.00  0.00    +0.000 N 
ATOM      4  C   UNL     1       1.521   7.312  20.801  0.00  0.00    +0.000 C 
ATOM      5  C   UNL     1       0.273   7.798  21.520  0.00  0.00    +0.000 C 
ATOM      6  C   UNL     1       0.203   9.305  21.684  0.00  0.00    +0.000 C 
ATOM      7  C   UNL     1       0.667  10.105  20.443  0.00  0.00    +0.000 C 
ATOM      8  C   UNL     1       0.700  11.588  20.832  0.00  0.00    +0.000 C 
ATOM      9  C   UNL     1       0.285  12.347  19.589  0.00  0.00    +0.000 C 
ATOM     10  N   UNL     1      -0.541  11.437  18.797  0.00  0.00    +0.000 NA
ATOM     11  C   UNL     1      -0.339  10.065  19.283  0.00  0.00    +0.000 C 
ATOM     12  C   UNL     1       2.015   9.551  19.934  0.00  0.00    +0.000 C 
ENDROOT
BRANCH   1  18
ATOM     13  C   UNL     1       4.820   5.871  19.017  0.00  0.00    +0.000 C 
ATOM     14  N   UNL     1       3.548   5.413  18.498  0.00  0.00    +0.000 N 
ATOM     15  C   UNL     1       3.308   4.073  18.266  0.00  0.00    +0.000 A 
ATOM     16  C   UNL     1       2.033   3.934  17.791  0.00  0.00    +0.000 A 
ATOM     17  C   UNL     1       1.472   5.223  17.780  0.00  0.00    +0.000 A 
ATOM     18  C   UNL     1       2.417   6.159  18.184  0.00  0.00    +0.000 A 
ENDBRANCH   1  18
BRANCH  10  19
ATOM     19  C   UNL     1      -1.976  11.765  18.782  0.00  0.00    +0.000 C 
BRANCH  19  20
ATOM     20  C   UNL     1      -2.700  11.383  17.515  0.00  0.00    +0.000 A 
ATOM     21  N   UNL     1      -2.090  11.038  16.397  0.00  0.00    +0.000 NA
ATOM     22  C   UNL     1      -3.026  10.780  15.417  0.00  0.00    +0.000 A 
ATOM     23  C   UNL     1      -4.343  10.911  15.799  0.00  0.00    +0.000 A 
ATOM     24  S   UNL     1      -4.422  11.404  17.437  0.00  0.00    +0.000 S 
ENDBRANCH  19  20
ENDBRANCH  10  19
TORSDOF 3
ENDMDL
MODEL 7
REMARK VINA RESULT:      -5.7      9.585     12.207
REMARK  Name = 
REMARK  4 active torsions:
REMARK  status: ('A' for Active; 'I' for Inactive)
REMARK    1  A    between atoms: C_1  and  N_2
REMARK    2  A    between atoms: C_6  and  C_7
REMARK    3  A    between atoms: N_16  and  C_17
REMARK    4  A    between atoms: C_17  and  C_18
REMARK                            x       y       z     vdW  Elec       q    Type
REMARK                         _______ _______ _______ _____ _____    ______ ____
ROOT
ATOM      1  C   UNL     1       8.517  13.464  17.979  0.00  0.00    +0.000 C 
ATOM      2  O   UNL     1       7.689  12.962  17.238  0.00  0.00    +0.000 OA
ATOM      3  N   UNL     1       8.301  14.747  18.555  0.00  0.00    +0.000 N 
ATOM      4  C   UNL     1       9.132  15.391  19.569  0.00  0.00    +0.000 C 
ATOM      5  C   UNL     1       8.354  15.977  20.736  0.00  0.00    +0.000 C 
ATOM      6  C   UNL     1       7.092  16.713  20.328  0.00  0.00    +0.000 C 
ATOM      7  C   UNL     1       6.280  16.019  19.209  0.00  0.00    +0.000 C 
ATOM      8  C   UNL     1       5.147  16.967  18.799  0.00  0.00    +0.000 C 
ATOM      9  C   UNL     1       3.971  16.077  18.456  0.00  0.00    +0.000 C 
ATOM     10  N   UNL     1       4.147  14.838  19.211  0.00  0.00    +0.000 NA
ATOM     11  C   UNL     1       5.537  14.763  19.687  0.00  0.00    +0.000 C 
ATOM     12  C   UNL     1       7.219  15.614  18.052  0.00  0.00    +0.000 C 
ENDROOT
BRANCH   1  18
ATOM     13  C   UNL     1       9.300  11.798  20.586  0.00  0.00    +0.000 C 
ATOM     14  N   UNL     1      10.106  12.034  19.406  0.00  0.00    +0.000 N 
ATOM     15  C   UNL     1      11.366  11.485  19.276  0.00  0.00    +0.000 A 
ATOM     16  C   UNL     1      11.885  11.865  18.068  0.00  0.00    +0.000 A 
ATOM     17  C   UNL     1      10.890  12.628  17.433  0.00  0.00    +0.000 A 
ATOM     18  C   UNL     1       9.789  12.772  18.270  0.00  0.00    +0.000 A 
ENDBRANCH   1  18
BRANCH  10  19
ATOM     19  C   UNL     1       3.214  14.666  20.338  0.00  0.00    +0.000 C 
BRANCH  19  20
ATOM     20  C   UNL     1       2.282  13.487  20.214  0.00  0.00    +0.000 A 
ATOM     21  N   UNL     1       1.605  12.979  21.227  0.00  0.00    +0.000 NA
ATOM     22  C   UNL     1       0.873  11.891  20.797  0.00  0.00    +0.000 A 
ATOM     23  C   UNL     1       0.982  11.588  19.458  0.00  0.00    +0.000 A 
ATOM     24  S   UNL     1       2.064  12.683  18.705  0.00  0.00    +0.000 S 
ENDBRANCH  19  20
ENDBRANCH  10  19
TORSDOF 3
ENDMDL
MODEL 8
REMARK VINA RESULT:      -5.7      9.783     12.801
REMARK  Name = 
REMARK  4 active torsions:
REMARK  status: ('A' for Active; 'I' for Inactive)
REMARK    1  A    between atoms: C_1  and  N_2
REMARK    2  A    between atoms: C_6  and  C_7
REMARK    3  A    between atoms: N_16  and  C_17
REMARK    4  A    between atoms: C_17  and  C_18
REMARK                            x       y       z     vdW  Elec       q    Type
REMARK                         _______ _______ _______ _____ _____    ______ ____
ROOT
ATOM      1  C   UNL     1      -1.148  11.216  19.983  0.00  0.00    +0.000 C 
ATOM      2  O   UNL     1      -1.561  11.447  18.858  0.00  0.00    +0.000 OA
ATOM      3  N   UNL     1      -1.523  12.038  21.082  0.00  0.00    +0.000 N 
ATOM      4  C   UNL     1      -1.227  11.786  22.491  0.00  0.00    +0.000 C 
ATOM      5  C   UNL     1      -2.422  11.937  23.417  0.00  0.00    +0.000 C 
ATOM      6  C   UNL     1      -3.290  13.144  23.114  0.00  0.00    +0.000 C 
ATOM      7  C   UNL     1      -3.523  13.401  21.605  0.00  0.00    +0.000 C 
ATOM      8  C   UNL     1      -4.262  14.737  21.469  0.00  0.00    +0.000 C 
ATOM      9  C   UNL     1      -5.194  14.571  20.288  0.00  0.00    +0.000 C 
ATOM     10  N   UNL     1      -5.479  13.142  20.174  0.00  0.00    +0.000 NA
ATOM     11  C   UNL     1      -4.486  12.394  20.959  0.00  0.00    +0.000 C 
ATOM     12  C   UNL     1      -2.179  13.338  20.848  0.00  0.00    +0.000 C 
ENDROOT
BRANCH   1  18
ATOM     13  C   UNL     1       1.564  10.540  18.442  0.00  0.00    +0.000 C 
ATOM     14  N   UNL     1       0.974   9.831  19.559  0.00  0.00    +0.000 N 
ATOM     15  C   UNL     1       1.600   8.738  20.125  0.00  0.00    +0.000 A 
ATOM     16  C   UNL     1       0.827   8.280  21.157  0.00  0.00    +0.000 A 
ATOM     17  C   UNL     1      -0.274   9.149  21.244  0.00  0.00    +0.000 A 
ATOM     18  C   UNL     1      -0.213  10.099  20.230  0.00  0.00    +0.000 A 
ENDBRANCH   1  18
BRANCH  10  19
ATOM     19  C   UNL     1      -6.842  12.753  20.572  0.00  0.00    +0.000 C 
BRANCH  19  20
ATOM     20  C   UNL     1      -7.145  11.281  20.440  0.00  0.00    +0.000 A 
ATOM     21  N   UNL     1      -7.731  10.566  21.382  0.00  0.00    +0.000 NA
ATOM     22  C   UNL     1      -7.835   9.253  20.971  0.00  0.00    +0.000 A 
ATOM     23  C   UNL     1      -7.344   8.979  19.714  0.00  0.00    +0.000 A 
ATOM     24  S   UNL     1      -6.700  10.408  19.023  0.00  0.00    +0.000 S 
ENDBRANCH  19  20
ENDBRANCH  10  19
TORSDOF 3
ENDMDL
MODEL 9
REMARK VINA RESULT:      -5.6      6.394      8.680
REMARK  Name = 
REMARK  4 active torsions:
REMARK  status: ('A' for Active; 'I' for Inactive)
REMARK    1  A    between atoms: C_1  and  N_2
REMARK    2  A    between atoms: C_6  and  C_7
REMARK    3  A    between atoms: N_16  and  C_17
REMARK    4  A    between atoms: C_17  and  C_18
REMARK                            x       y       z     vdW  Elec       q    Type
REMARK                         _______ _______ _______ _____ _____    ______ ____
ROOT
ATOM      1  C   UNL     1       2.017   7.843  19.466  0.00  0.00    +0.000 C 
ATOM      2  O   UNL     1       2.251   8.314  18.365  0.00  0.00    +0.000 OA
ATOM      3  N   UNL     1       1.518   8.659  20.519  0.00  0.00    +0.000 N 
ATOM      4  C   UNL     1       1.056   8.198  21.826  0.00  0.00    +0.000 C 
ATOM      5  C   UNL     1      -0.283   8.775  22.255  0.00  0.00    +0.000 C 
ATOM      6  C   UNL     1      -0.439  10.256  21.967  0.00  0.00    +0.000 C 
ATOM      7  C   UNL     1       0.121  10.702  20.595  0.00  0.00    +0.000 C 
ATOM      8  C   UNL     1       0.045  12.233  20.537  0.00  0.00    +0.000 C 
ATOM      9  C   UNL     1      -0.266  12.573  19.096  0.00  0.00    +0.000 C 
ATOM     10  N   UNL     1      -0.958  11.417  18.530  0.00  0.00    +0.000 NA
ATOM     11  C   UNL     1      -0.749  10.258  19.410  0.00  0.00    +0.000 C 
ATOM     12  C   UNL     1       1.541  10.128  20.395  0.00  0.00    +0.000 C 
ENDROOT
BRANCH   1  18
ATOM     13  C   UNL     1       4.469   6.061  18.467  0.00  0.00    +0.000 C 
ATOM     14  N   UNL     1       3.368   5.662  19.321  0.00  0.00    +0.000 N 
ATOM     15  C   UNL     1       3.297   4.389  19.850  0.00  0.00    +0.000 A 
ATOM     16  C   UNL     1       2.167   4.300  20.617  0.00  0.00    +0.000 A 
ATOM     17  C   UNL     1       1.564   5.569  20.585  0.00  0.00    +0.000 A 
ATOM     18  C   UNL     1       2.284   6.419  19.751  0.00  0.00    +0.000 A 
ENDBRANCH   1  18
BRANCH  10  19
ATOM     19  C   UNL     1      -2.397  11.619  18.289  0.00  0.00    +0.000 C 
BRANCH  19  20
ATOM     20  C   UNL     1      -2.903  11.072  16.977  0.00  0.00    +0.000 A 
ATOM     21  N   UNL     1      -2.171  10.342  16.156  0.00  0.00    +0.000 NA
ATOM     22  C   UNL     1      -2.907  10.026  15.033  0.00  0.00    +0.000 A 
ATOM     23  C   UNL     1      -4.200  10.501  15.013  0.00  0.00    +0.000 A 
ATOM     24  S   UNL     1      -4.505  11.403  16.437  0.00  0.00    +0.000 S 
ENDBRANCH  19  20
ENDBRANCH  10  19
TORSDOF 3
ENDMDL
