MODEL 1
REMARK VINA RESULT:      -6.2      0.000      0.000
REMARK  Name = 
REMARK  5 active torsions:
REMARK  status: ('A' for Active; 'I' for Inactive)
REMARK    1  A    between atoms: C_1  and  N_2
REMARK    2  A    between atoms: N_2  and  C_3
REMARK    3  A    between atoms: C_4  and  O_6
REMARK    4  A    between atoms: O_6  and  C_7
REMARK    5  A    between atoms: C_12  and  N_13
REMARK                            x       y       z     vdW  Elec       q    Type
REMARK                         _______ _______ _______ _____ _____    ______ ____
ROOT
ATOM      1  C   UNL     1       3.971   4.576  19.215  0.00  0.00    +0.000 A 
ATOM      2  C   UNL     1       3.258   5.776  19.364  0.00  0.00    +0.000 A 
ATOM      3  C   UNL     1       2.120   5.830  20.167  0.00  0.00    +0.000 A 
ATOM      4  C   UNL     1       1.665   4.682  20.807  0.00  0.00    +0.000 A 
ATOM      5  C   UNL     1       2.350   3.475  20.649  0.00  0.00    +0.000 A 
ATOM      6  C   UNL     1       3.509   3.415  19.848  0.00  0.00    +0.000 A 
ENDROOT
BRANCH   6   7
ATOM      7  N   UNL     1       4.177   2.116  19.696  0.00  0.00    +0.000 N 
ATOM      8  O   UNL     1       5.083   1.812  20.481  0.00  0.00    +0.000 OA
ATOM      9  O   UNL     1       3.789   1.382  18.773  0.00  0.00    +0.000 OA
ENDBRANCH   6   7
BRANCH   1  10
ATOM     10  O   UNL     1       5.044   4.559  18.303  0.00  0.00    +0.000 OA
BRANCH  10  14
ATOM     11  C   UNL     1       7.718   7.012  18.113  0.00  0.00    +0.000 C 
ATOM     12  N   UNL     1       6.742   6.024  17.699  0.00  0.00    +0.000 N 
ATOM     13  C   UNL     1       5.971   6.293  16.499  0.00  0.00    +0.000 C 
ATOM     14  C   UNL     1       6.222   5.200  18.697  0.00  0.00    +0.000 C 
ATOM     15  O   UNL     1       6.700   5.119  19.824  0.00  0.00    +0.000 OA
ENDBRANCH  10  14
ENDBRANCH   1  10
TORSDOF 3
ENDMDL
MODEL 2
REMARK VINA RESULT:      -6.1      1.207      1.793
REMARK  Name = 
REMARK  5 active torsions:
REMARK  status: ('A' for Active; 'I' for Inactive)
REMARK    1  A    between atoms: C_1  and  N_2
REMARK    2  A    between atoms: N_2  and  C_3
REMARK    3  A    between atoms: C_4  and  O_6
REMARK    4  A    between atoms: O_6  and  C_7
REMARK    5  A    between atoms: C_12  and  N_13
REMARK                            x       y       z     vdW  Elec       q    Type
REMARK                         _______ _______ _______ _____ _____    ______ ____
ROOT
ATOM      1  C   UNL     1       3.900   4.490  19.527  0.00  0.00    +0.000 A 
ATOM      2  C   UNL     1       3.107   5.632  19.726  0.00  0.00    +0.000 A 
ATOM      3  C   UNL     1       1.853   5.529  20.324  0.00  0.00    +0.000 A 
ATOM      4  C   UNL     1       1.365   4.283  20.706  0.00  0.00    +0.000 A 
ATOM      5  C   UNL     1       2.133   3.136  20.493  0.00  0.00    +0.000 A 
ATOM      6  C   UNL     1       3.407   3.233  19.899  0.00  0.00    +0.000 A 
ENDROOT
BRANCH   6   7
ATOM      7  N   UNL     1       4.162   1.994  19.676  0.00  0.00    +0.000 N 
ATOM      8  O   UNL     1       5.087   1.708  20.444  0.00  0.00    +0.000 OA
ATOM      9  O   UNL     1       3.824   1.287  18.711  0.00  0.00    +0.000 OA
ENDBRANCH   6   7
BRANCH   1  10
ATOM     10  O   UNL     1       5.106   4.645  18.816  0.00  0.00    +0.000 OA
BRANCH  10  14
ATOM     11  C   UNL     1       6.417   4.108  15.470  0.00  0.00    +0.000 C 
ATOM     12  N   UNL     1       6.301   4.609  16.825  0.00  0.00    +0.000 N 
ATOM     13  C   UNL     1       7.501   4.647  17.640  0.00  0.00    +0.000 C 
ATOM     14  C   UNL     1       5.048   4.503  17.427  0.00  0.00    +0.000 C 
ATOM     15  O   UNL     1       4.022   4.229  16.811  0.00  0.00    +0.000 OA
ENDBRANCH  10  14
ENDBRANCH   1  10
TORSDOF 3
ENDMDL
MODEL 3
REMARK VINA RESULT:      -6.0      1.201      1.506
REMARK  Name = 
REMARK  5 active torsions:
REMARK  status: ('A' for Active; 'I' for Inactive)
REMARK    1  A    between atoms: C_1  and  N_2
REMARK    2  A    between atoms: N_2  and  C_3
REMARK    3  A    between atoms: C_4  and  O_6
REMARK    4  A    between atoms: O_6  and  C_7
REMARK    5  A    between atoms: C_12  and  N_13
REMARK                            x       y       z     vdW  Elec       q    Type
REMARK                         _______ _______ _______ _____ _____    ______ ____
ROOT
ATOM      1  C   UNL     1       3.138   4.124  19.251  0.00  0.00    +0.000 A 
ATOM      2  C   UNL     1       2.139   5.048  19.598  0.00  0.00    +0.000 A 
ATOM      3  C   UNL     1       1.162   4.719  20.536  0.00  0.00    +0.000 A 
ATOM      4  C   UNL     1       1.155   3.455  21.118  0.00  0.00    +0.000 A 
ATOM      5  C   UNL     1       2.129   2.518  20.766  0.00  0.00    +0.000 A 
ATOM      6  C   UNL     1       3.127   2.847  19.827  0.00  0.00    +0.000 A 
ENDROOT
BRANCH   6   7
ATOM      7  N   UNL     1       4.111   1.816  19.474  0.00  0.00    +0.000 N 
ATOM      8  O   UNL     1       3.939   1.147  18.449  0.00  0.00    +0.000 OA
ATOM      9  O   UNL     1       5.080   1.670  20.238  0.00  0.00    +0.000 OA
ENDBRANCH   6   7
BRANCH   1  10
ATOM     10  O   UNL     1       4.026   4.475  18.217  0.00  0.00    +0.000 OA
BRANCH  10  14
ATOM     11  C   UNL     1       7.587   4.959  17.678  0.00  0.00    +0.000 C 
ATOM     12  N   UNL     1       6.257   4.392  17.576  0.00  0.00    +0.000 N 
ATOM     13  C   UNL     1       5.779   4.015  16.258  0.00  0.00    +0.000 C 
ATOM     14  C   UNL     1       5.351   4.736  18.579  0.00  0.00    +0.000 C 
ATOM     15  O   UNL     1       5.678   5.286  19.626  0.00  0.00    +0.000 OA
ENDBRANCH  10  14
ENDBRANCH   1  10
TORSDOF 3
ENDMDL
MODEL 4
REMARK VINA RESULT:      -6.0      1.178      1.329
REMARK  Name = 
REMARK  5 active torsions:
REMARK  status: ('A' for Active; 'I' for Inactive)
REMARK    1  A    between atoms: C_1  and  N_2
REMARK    2  A    between atoms: N_2  and  C_3
REMARK    3  A    between atoms: C_4  and  O_6
REMARK    4  A    between atoms: O_6  and  C_7
REMARK    5  A    between atoms: C_12  and  N_13
REMARK                            x       y       z     vdW  Elec       q    Type
REMARK                         _______ _______ _______ _____ _____    ______ ____
ROOT
ATOM      1  C   UNL     1       3.226   4.544  18.911  0.00  0.00    +0.000 A 
ATOM      2  C   UNL     1       2.814   5.624  19.707  0.00  0.00    +0.000 A 
ATOM      3  C   UNL     1       1.741   5.489  20.585  0.00  0.00    +0.000 A 
ATOM      4  C   UNL     1       1.048   4.284  20.658  0.00  0.00    +0.000 A 
ATOM      5  C   UNL     1       1.432   3.209  19.854  0.00  0.00    +0.000 A 
ATOM      6  C   UNL     1       2.524   3.333  18.972  0.00  0.00    +0.000 A 
ENDROOT
BRANCH   6   7
ATOM      7  N   UNL     1       2.869   2.179  18.132  0.00  0.00    +0.000 N 
ATOM      8  O   UNL     1       3.683   1.350  18.556  0.00  0.00    +0.000 OA
ATOM      9  O   UNL     1       2.316   2.097  17.023  0.00  0.00    +0.000 OA
ENDBRANCH   6   7
BRANCH   1  10
ATOM     10  O   UNL     1       4.243   4.776  17.964  0.00  0.00    +0.000 OA
BRANCH  10  14
ATOM     11  C   UNL     1       7.582   6.093  18.534  0.00  0.00    +0.000 C 
ATOM     12  N   UNL     1       6.340   5.769  17.860  0.00  0.00    +0.000 N 
ATOM     13  C   UNL     1       5.721   6.799  17.045  0.00  0.00    +0.000 C 
ATOM     14  C   UNL     1       5.560   4.764  18.432  0.00  0.00    +0.000 C 
ATOM     15  O   UNL     1       5.966   4.012  19.312  0.00  0.00    +0.000 OA
ENDBRANCH  10  14
ENDBRANCH   1  10
TORSDOF 3
ENDMDL
MODEL 5
REMARK VINA RESULT:      -6.0      1.163      1.163
REMARK  Name = 
REMARK  5 active torsions:
REMARK  status: ('A' for Active; 'I' for Inactive)
REMARK    1  A    between atoms: C_1  and  N_2
REMARK    2  A    between atoms: N_2  and  C_3
REMARK    3  A    between atoms: C_4  and  O_6
REMARK    4  A    between atoms: O_6  and  C_7
REMARK    5  A    between atoms: C_12  and  N_13
REMARK                            x       y       z     vdW  Elec       q    Type
REMARK                         _______ _______ _______ _____ _____    ______ ____
ROOT
ATOM      1  C   UNL     1       4.225   4.193  18.269  0.00  0.00    +0.000 A 
ATOM      2  C   UNL     1       3.520   5.315  17.807  0.00  0.00    +0.000 A 
ATOM      3  C   UNL     1       2.142   5.412  17.992  0.00  0.00    +0.000 A 
ATOM      4  C   UNL     1       1.449   4.379  18.614  0.00  0.00    +0.000 A 
ATOM      5  C   UNL     1       2.134   3.245  19.057  0.00  0.00    +0.000 A 
ATOM      6  C   UNL     1       3.529   3.144  18.885  0.00  0.00    +0.000 A 
ENDROOT
BRANCH   6   7
ATOM      7  N   UNL     1       4.196   1.921  19.347  0.00  0.00    +0.000 N 
ATOM      8  O   UNL     1       4.923   1.974  20.346  0.00  0.00    +0.000 OA
ATOM      9  O   UNL     1       3.990   0.881  18.699  0.00  0.00    +0.000 OA
ENDBRANCH   6   7
BRANCH   1  10
ATOM     10  O   UNL     1       5.595   4.102  17.953  0.00  0.00    +0.000 OA
BRANCH  10  14
ATOM     11  C   UNL     1       7.834   6.955  18.183  0.00  0.00    +0.000 C 
ATOM     12  N   UNL     1       7.209   5.749  17.677  0.00  0.00    +0.000 N 
ATOM     13  C   UNL     1       6.920   5.679  16.256  0.00  0.00    +0.000 C 
ATOM     14  C   UNL     1       6.453   5.007  18.584  0.00  0.00    +0.000 C 
ATOM     15  O   UNL     1       6.479   5.192  19.796  0.00  0.00    +0.000 OA
ENDBRANCH  10  14
ENDBRANCH   1  10
TORSDOF 3
ENDMDL
MODEL 6
REMARK VINA RESULT:      -6.0      1.085      1.915
REMARK  Name = 
REMARK  5 active torsions:
REMARK  status: ('A' for Active; 'I' for Inactive)
REMARK    1  A    between atoms: C_1  and  N_2
REMARK    2  A    between atoms: N_2  and  C_3
REMARK    3  A    between atoms: C_4  and  O_6
REMARK    4  A    between atoms: O_6  and  C_7
REMARK    5  A    between atoms: C_12  and  N_13
REMARK                            x       y       z     vdW  Elec       q    Type
REMARK                         _______ _______ _______ _____ _____    ______ ____
ROOT
ATOM      1  C   UNL     1       3.654   4.355  19.529  0.00  0.00    +0.000 A 
ATOM      2  C   UNL     1       2.774   5.417  19.793  0.00  0.00    +0.000 A 
ATOM      3  C   UNL     1       1.578   5.194  20.472  0.00  0.00    +0.000 A 
ATOM      4  C   UNL     1       1.234   3.907  20.871  0.00  0.00    +0.000 A 
ATOM      5  C   UNL     1       2.088   2.837  20.595  0.00  0.00    +0.000 A 
ATOM      6  C   UNL     1       3.305   3.056  19.919  0.00  0.00    +0.000 A 
ENDROOT
BRANCH   6   7
ATOM      7  N   UNL     1       4.155   1.893  19.632  0.00  0.00    +0.000 N 
ATOM      8  O   UNL     1       3.882   1.175  18.663  0.00  0.00    +0.000 OA
ATOM      9  O   UNL     1       5.118   1.692  20.390  0.00  0.00    +0.000 OA
ENDBRANCH   6   7
BRANCH   1  10
ATOM     10  O   UNL     1       4.790   4.625  18.742  0.00  0.00    +0.000 OA
BRANCH  10  14
ATOM     11  C   UNL     1       5.524   5.653  15.334  0.00  0.00    +0.000 C 
ATOM     12  N   UNL     1       5.340   5.723  16.771  0.00  0.00    +0.000 N 
ATOM     13  C   UNL     1       6.327   6.450  17.547  0.00  0.00    +0.000 C 
ATOM     14  C   UNL     1       4.603   4.696  17.359  0.00  0.00    +0.000 C 
ATOM     15  O   UNL     1       3.933   3.891  16.718  0.00  0.00    +0.000 OA
ENDBRANCH  10  14
ENDBRANCH   1  10
TORSDOF 3
ENDMDL
MODEL 7
REMARK VINA RESULT:      -5.9      1.814      5.130
REMARK  Name = 
REMARK  5 active torsions:
REMARK  status: ('A' for Active; 'I' for Inactive)
REMARK    1  A    between atoms: C_1  and  N_2
REMARK    2  A    between atoms: N_2  and  C_3
REMARK    3  A    between atoms: C_4  and  O_6
REMARK    4  A    between atoms: O_6  and  C_7
REMARK    5  A    between atoms: C_12  and  N_13
REMARK                            x       y       z     vdW  Elec       q    Type
REMARK                         _______ _______ _______ _____ _____    ______ ____
ROOT
ATOM      1  C   UNL     1       5.484   4.825  17.377  0.00  0.00    +0.000 A 
ATOM      2  C   UNL     1       4.765   4.329  16.278  0.00  0.00    +0.000 A 
ATOM      3  C   UNL     1       5.388   4.151  15.044  0.00  0.00    +0.000 A 
ATOM      4  C   UNL     1       6.728   4.491  14.885  0.00  0.00    +0.000 A 
ATOM      5  C   UNL     1       7.450   5.008  15.964  0.00  0.00    +0.000 A 
ATOM      6  C   UNL     1       6.830   5.180  17.218  0.00  0.00    +0.000 A 
ENDROOT
BRANCH   6   7
ATOM      7  N   UNL     1       7.628   5.750  18.310  0.00  0.00    +0.000 N 
ATOM      8  O   UNL     1       7.870   6.963  18.308  0.00  0.00    +0.000 OA
ATOM      9  O   UNL     1       8.024   4.970  19.192  0.00  0.00    +0.000 OA
ENDBRANCH   6   7
BRANCH   1  10
ATOM     10  O   UNL     1       4.772   5.089  18.563  0.00  0.00    +0.000 OA
BRANCH  10  14
ATOM     11  C   UNL     1       2.509   2.710  20.120  0.00  0.00    +0.000 C 
ATOM     12  N   UNL     1       3.055   3.969  19.654  0.00  0.00    +0.000 N 
ATOM     13  C   UNL     1       2.149   4.906  19.015  0.00  0.00    +0.000 C 
ATOM     14  C   UNL     1       4.415   3.988  19.346  0.00  0.00    +0.000 C 
ATOM     15  O   UNL     1       5.191   3.090  19.657  0.00  0.00    +0.000 OA
ENDBRANCH  10  14
ENDBRANCH   1  10
TORSDOF 3
ENDMDL
MODEL 8
REMARK VINA RESULT:      -5.9      2.077      2.744
REMARK  Name = 
REMARK  5 active torsions:
REMARK  status: ('A' for Active; 'I' for Inactive)
REMARK    1  A    between atoms: C_1  and  N_2
REMARK    2  A    between atoms: N_2  and  C_3
REMARK    3  A    between atoms: C_4  and  O_6
REMARK    4  A    between atoms: O_6  and  C_7
REMARK    5  A    between atoms: C_12  and  N_13
REMARK                            x       y       z     vdW  Elec       q    Type
REMARK                         _______ _______ _______ _____ _____    ______ ____
ROOT
ATOM      1  C   UNL     1       3.349   3.330  19.353  0.00  0.00    +0.000 A 
ATOM      2  C   UNL     1       3.617   2.612  20.529  0.00  0.00    +0.000 A 
ATOM      3  C   UNL     1       2.652   2.504  21.529  0.00  0.00    +0.000 A 
ATOM      4  C   UNL     1       1.421   3.135  21.380  0.00  0.00    +0.000 A 
ATOM      5  C   UNL     1       1.150   3.873  20.225  0.00  0.00    +0.000 A 
ATOM      6  C   UNL     1       2.116   3.977  19.204  0.00  0.00    +0.000 A 
ENDROOT
BRANCH   6   7
ATOM      7  N   UNL     1       1.788   4.785  18.023  0.00  0.00    +0.000 N 
ATOM      8  O   UNL     1       2.217   5.942  17.949  0.00  0.00    +0.000 OA
ATOM      9  O   UNL     1       1.086   4.253  17.146  0.00  0.00    +0.000 OA
ENDBRANCH   6   7
BRANCH   1  10
ATOM     10  O   UNL     1       4.402   3.497  18.432  0.00  0.00    +0.000 OA
BRANCH  10  14
ATOM     11  C   UNL     1       6.848   6.045  17.581  0.00  0.00    +0.000 C 
ATOM     12  N   UNL     1       6.153   4.773  17.597  0.00  0.00    +0.000 N 
ATOM     13  C   UNL     1       5.924   4.109  16.328  0.00  0.00    +0.000 C 
ATOM     14  C   UNL     1       5.300   4.539  18.675  0.00  0.00    +0.000 C 
ATOM     15  O   UNL     1       5.285   5.231  19.689  0.00  0.00    +0.000 OA
ENDBRANCH  10  14
ENDBRANCH   1  10
TORSDOF 3
ENDMDL
MODEL 9
REMARK VINA RESULT:      -5.9      1.890      2.374
REMARK  Name = 
REMARK  5 active torsions:
REMARK  status: ('A' for Active; 'I' for Inactive)
REMARK    1  A    between atoms: C_1  and  N_2
REMARK    2  A    between atoms: N_2  and  C_3
REMARK    3  A    between atoms: C_4  and  O_6
REMARK    4  A    between atoms: O_6  and  C_7
REMARK    5  A    between atoms: C_12  and  N_13
REMARK                            x       y       z     vdW  Elec       q    Type
REMARK                         _______ _______ _______ _____ _____    ______ ____
ROOT
ATOM      1  C   UNL     1       2.667   3.612  18.923  0.00  0.00    +0.000 A 
ATOM      2  C   UNL     1       1.283   3.824  19.031  0.00  0.00    +0.000 A 
ATOM      3  C   UNL     1       0.605   3.502  20.205  0.00  0.00    +0.000 A 
ATOM      4  C   UNL     1       1.294   2.940  21.274  0.00  0.00    +0.000 A 
ATOM      5  C   UNL     1       2.667   2.701  21.173  0.00  0.00    +0.000 A 
ATOM      6  C   UNL     1       3.362   3.035  19.994  0.00  0.00    +0.000 A 
ENDROOT
BRANCH   6   7
ATOM      7  N   UNL     1       4.799   2.740  19.932  0.00  0.00    +0.000 N 
ATOM      8  O   UNL     1       5.581   3.636  19.592  0.00  0.00    +0.000 OA
ATOM      9  O   UNL     1       5.157   1.589  20.229  0.00  0.00    +0.000 OA
ENDBRANCH   6   7
BRANCH   1  10
ATOM     10  O   UNL     1       3.273   3.852  17.675  0.00  0.00    +0.000 OA
BRANCH  10  14
ATOM     11  C   UNL     1       5.199   6.447  16.014  0.00  0.00    +0.000 C 
ATOM     12  N   UNL     1       4.873   5.185  16.648  0.00  0.00    +0.000 N 
ATOM     13  C   UNL     1       5.374   3.968  16.035  0.00  0.00    +0.000 C 
ATOM     14  C   UNL     1       3.715   5.154  17.423  0.00  0.00    +0.000 C 
ATOM     15  O   UNL     1       3.106   6.161  17.770  0.00  0.00    +0.000 OA
ENDBRANCH  10  14
ENDBRANCH   1  10
TORSDOF 3
ENDMDL
