MODEL 1
REMARK VINA RESULT:      -8.7      0.000      0.000
REMARK  Name = 
REMARK  4 active torsions:
REMARK  status: ('A' for Active; 'I' for Inactive)
REMARK    1  A    between atoms: C_2  and  O_3
REMARK    2  A    between atoms: C_2  and  C_4
REMARK    3  A    between atoms: C_7  and  C_9
REMARK    4  A    between atoms: C_13  and  C_14
REMARK                            x       y       z     vdW  Elec       q    Type
REMARK                         _______ _______ _______ _____ _____    ______ ____
ROOT
ATOM      1  C   UNL     1       1.337   3.070  19.662  0.00  0.00    +0.000 C 
ATOM      2  C   UNL     1       1.572   4.308  18.798  0.00  0.00    +0.000 C 
ATOM      3  N   UNL     1       2.977   4.529  18.448  0.00  0.00    +0.000 N 
ATOM      4  C   UNL     1       3.595   5.785  18.299  0.00  0.00    +0.000 C 
ATOM      5  O   UNL     1       4.795   5.882  18.037  0.00  0.00    +0.000 OA
ATOM      6  C   UNL     1       3.719   3.356  17.952  0.00  0.00    +0.000 C 
ATOM      7  C   UNL     1       3.476   2.081  18.757  0.00  0.00    +0.000 C 
ATOM      8  F   UNL     1       4.147   2.138  19.942  0.00  0.00    +0.000 F 
ATOM      9  F   UNL     1       3.969   1.006  18.096  0.00  0.00    +0.000 F 
ATOM     10  C   UNL     1       2.015   1.838  19.075  0.00  0.00    +0.000 C 
ENDROOT
BRANCH   4  11
ATOM     11  C   UNL     1       2.830   7.057  18.465  0.00  0.00    +0.000 A 
ATOM     12  C   UNL     1       2.750   8.022  17.460  0.00  0.00    +0.000 A 
ATOM     13  C   UNL     1       1.971   9.161  17.637  0.00  0.00    +0.000 A 
ATOM     14  C   UNL     1       1.351   9.395  18.862  0.00  0.00    +0.000 A 
ATOM     15  C   UNL     1       1.512   8.504  19.935  0.00  0.00    +0.000 A 
ATOM     16  C   UNL     1       2.243   7.325  19.716  0.00  0.00    +0.000 A 
BRANCH  15  17
ATOM     17  C   UNL     1       0.953   8.814  21.249  0.00  0.00    +0.000 A 
ATOM     18  C   UNL     1       1.477   9.250  22.451  0.00  0.00    +0.000 A 
ATOM     19  C   UNL     1       0.387   9.397  23.346  0.00  0.00    +0.000 A 
ATOM     20  C   UNL     1      -0.736   9.039  22.641  0.00  0.00    +0.000 A 
ATOM     21  O   UNL     1      -0.406   8.686  21.374  0.00  0.00    +0.000 OA
ENDBRANCH  15  17
ENDBRANCH   4  11
BRANCH   1  23
ATOM     22  O   UNL     1       1.921   4.564  21.439  0.00  0.00    +0.000 OA
ATOM     23  C   UNL     1       1.584   3.429  21.116  0.00  0.00    +0.000 C 
BRANCH  23  24
ATOM     24  O   UNL     1       1.426   2.470  22.041  0.00  0.00    +0.000 OA
ATOM     25  H   UNL     1       0.796   2.627  22.775  0.00  0.00    +0.000 HD
ENDBRANCH  23  24
ENDBRANCH   1  23
TORSDOF 4
ENDMDL
MODEL 2
REMARK VINA RESULT:      -8.5      3.668      6.679
REMARK  Name = 
REMARK  4 active torsions:
REMARK  status: ('A' for Active; 'I' for Inactive)
REMARK    1  A    between atoms: C_2  and  O_3
REMARK    2  A    between atoms: C_2  and  C_4
REMARK    3  A    between atoms: C_7  and  C_9
REMARK    4  A    between atoms: C_13  and  C_14
REMARK                            x       y       z     vdW  Elec       q    Type
REMARK                         _______ _______ _______ _____ _____    ______ ____
ROOT
ATOM      1  C   UNL     1       3.919   2.382  19.890  0.00  0.00    +0.000 C 
ATOM      2  C   UNL     1       4.507   3.738  19.506  0.00  0.00    +0.000 C 
ATOM      3  N   UNL     1       3.507   4.720  19.080  0.00  0.00    +0.000 N 
ATOM      4  C   UNL     1       3.696   5.707  18.095  0.00  0.00    +0.000 C 
ATOM      5  O   UNL     1       2.788   6.473  17.771  0.00  0.00    +0.000 OA
ATOM      6  C   UNL     1       2.316   4.854  19.940  0.00  0.00    +0.000 C 
ATOM      7  C   UNL     1       1.721   3.521  20.389  0.00  0.00    +0.000 C 
ATOM      8  F   UNL     1       1.045   2.938  19.361  0.00  0.00    +0.000 F 
ATOM      9  F   UNL     1       0.813   3.720  21.375  0.00  0.00    +0.000 F 
ATOM     10  C   UNL     1       2.761   2.529  20.870  0.00  0.00    +0.000 C 
ENDROOT
BRANCH   4  11
ATOM     11  C   UNL     1       5.002   5.862  17.386  0.00  0.00    +0.000 A 
ATOM     12  C   UNL     1       6.028   6.676  17.870  0.00  0.00    +0.000 A 
ATOM     13  C   UNL     1       7.250   6.737  17.209  0.00  0.00    +0.000 A 
ATOM     14  C   UNL     1       7.419   6.068  15.999  0.00  0.00    +0.000 A 
ATOM     15  C   UNL     1       6.367   5.340  15.422  0.00  0.00    +0.000 A 
ATOM     16  C   UNL     1       5.164   5.231  16.138  0.00  0.00    +0.000 A 
BRANCH  15  17
ATOM     17  C   UNL     1       6.517   4.736  14.099  0.00  0.00    +0.000 A 
ATOM     18  C   UNL     1       7.463   4.816  13.095  0.00  0.00    +0.000 A 
ATOM     19  C   UNL     1       7.039   3.944  12.061  0.00  0.00    +0.000 A 
ATOM     20  C   UNL     1       5.859   3.387  12.491  0.00  0.00    +0.000 A 
ATOM     21  O   UNL     1       5.536   3.859  13.721  0.00  0.00    +0.000 OA
ENDBRANCH  15  17
ENDBRANCH   4  11
BRANCH   1  23
ATOM     22  O   UNL     1       2.967   1.928  17.740  0.00  0.00    +0.000 OA
ATOM     23  C   UNL     1       3.723   1.554  18.632  0.00  0.00    +0.000 C 
BRANCH  23  24
ATOM     24  O   UNL     1       4.398   0.400  18.522  0.00  0.00    +0.000 OA
ATOM     25  H   UNL     1       3.902  -0.441  18.601  0.00  0.00    +0.000 HD
ENDBRANCH  23  24
ENDBRANCH   1  23
TORSDOF 4
ENDMDL
MODEL 3
REMARK VINA RESULT:      -8.4      3.303      6.603
REMARK  Name = 
REMARK  4 active torsions:
REMARK  status: ('A' for Active; 'I' for Inactive)
REMARK    1  A    between atoms: C_2  and  O_3
REMARK    2  A    between atoms: C_2  and  C_4
REMARK    3  A    between atoms: C_7  and  C_9
REMARK    4  A    between atoms: C_13  and  C_14
REMARK                            x       y       z     vdW  Elec       q    Type
REMARK                         _______ _______ _______ _____ _____    ______ ____
ROOT
ATOM      1  C   UNL     1       1.199   5.011  19.763  0.00  0.00    +0.000 C 
ATOM      2  C   UNL     1       2.213   4.574  18.707  0.00  0.00    +0.000 C 
ATOM      3  N   UNL     1       3.345   3.818  19.248  0.00  0.00    +0.000 N 
ATOM      4  C   UNL     1       4.666   3.865  18.766  0.00  0.00    +0.000 C 
ATOM      5  O   UNL     1       5.569   3.222  19.303  0.00  0.00    +0.000 OA
ATOM      6  C   UNL     1       3.015   2.729  20.185  0.00  0.00    +0.000 C 
ATOM      7  C   UNL     1       1.967   3.105  21.231  0.00  0.00    +0.000 C 
ATOM      8  F   UNL     1       2.521   3.903  22.186  0.00  0.00    +0.000 F 
ATOM      9  F   UNL     1       1.524   1.998  21.874  0.00  0.00    +0.000 F 
ATOM     10  C   UNL     1       0.778   3.848  20.653  0.00  0.00    +0.000 C 
ENDROOT
BRANCH   4  11
ATOM     11  C   UNL     1       5.039   4.708  17.590  0.00  0.00    +0.000 A 
ATOM     12  C   UNL     1       5.114   6.101  17.657  0.00  0.00    +0.000 A 
ATOM     13  C   UNL     1       5.529   6.838  16.553  0.00  0.00    +0.000 A 
ATOM     14  C   UNL     1       5.768   6.197  15.340  0.00  0.00    +0.000 A 
ATOM     15  C   UNL     1       5.583   4.812  15.206  0.00  0.00    +0.000 A 
ATOM     16  C   UNL     1       5.233   4.074  16.348  0.00  0.00    +0.000 A 
BRANCH  15  17
ATOM     17  C   UNL     1       5.727   4.165  13.903  0.00  0.00    +0.000 A 
ATOM     18  C   UNL     1       4.883   3.451  13.073  0.00  0.00    +0.000 A 
ATOM     19  C   UNL     1       5.629   3.121  11.913  0.00  0.00    +0.000 A 
ATOM     20  C   UNL     1       6.884   3.648  12.105  0.00  0.00    +0.000 A 
ATOM     21  O   UNL     1       6.952   4.281  13.302  0.00  0.00    +0.000 OA
ENDBRANCH  15  17
ENDBRANCH   4  11
BRANCH   1  23
ATOM     22  O   UNL     1       1.011   6.864  21.268  0.00  0.00    +0.000 OA
ATOM     23  C   UNL     1       1.680   6.300  20.406  0.00  0.00    +0.000 C 
BRANCH  23  24
ATOM     24  O   UNL     1       2.855   6.808  20.006  0.00  0.00    +0.000 OA
ATOM     25  H   UNL     1       2.948   7.094  19.074  0.00  0.00    +0.000 HD
ENDBRANCH  23  24
ENDBRANCH   1  23
TORSDOF 4
ENDMDL
MODEL 4
REMARK VINA RESULT:      -8.1      3.669      6.807
REMARK  Name = 
REMARK  4 active torsions:
REMARK  status: ('A' for Active; 'I' for Inactive)
REMARK    1  A    between atoms: C_2  and  O_3
REMARK    2  A    between atoms: C_2  and  C_4
REMARK    3  A    between atoms: C_7  and  C_9
REMARK    4  A    between atoms: C_13  and  C_14
REMARK                            x       y       z     vdW  Elec       q    Type
REMARK                         _______ _______ _______ _____ _____    ______ ____
ROOT
ATOM      1  C   UNL     1       3.381   2.861  19.843  0.00  0.00    +0.000 C 
ATOM      2  C   UNL     1       4.206   4.080  19.436  0.00  0.00    +0.000 C 
ATOM      3  N   UNL     1       3.401   5.216  18.981  0.00  0.00    +0.000 N 
ATOM      4  C   UNL     1       3.769   6.131  17.977  0.00  0.00    +0.000 C 
ATOM      5  O   UNL     1       3.015   7.041  17.629  0.00  0.00    +0.000 OA
ATOM      6  C   UNL     1       2.250   5.581  19.827  0.00  0.00    +0.000 C 
ATOM      7  C   UNL     1       1.423   4.387  20.300  0.00  0.00    +0.000 C 
ATOM      8  F   UNL     1       0.657   3.912  19.278  0.00  0.00    +0.000 F 
ATOM      9  F   UNL     1       0.560   4.768  21.273  0.00  0.00    +0.000 F 
ATOM     10  C   UNL     1       2.264   3.235  20.810  0.00  0.00    +0.000 C 
ENDROOT
BRANCH   4  11
ATOM     11  C   UNL     1       5.085   6.033  17.276  0.00  0.00    +0.000 A 
ATOM     12  C   UNL     1       6.233   6.678  17.740  0.00  0.00    +0.000 A 
ATOM     13  C   UNL     1       7.451   6.504  17.089  0.00  0.00    +0.000 A 
ATOM     14  C   UNL     1       7.507   5.769  15.908  0.00  0.00    +0.000 A 
ATOM     15  C   UNL     1       6.348   5.209  15.348  0.00  0.00    +0.000 A 
ATOM     16  C   UNL     1       5.141   5.335  16.055  0.00  0.00    +0.000 A 
BRANCH  15  17
ATOM     17  C   UNL     1       6.398   4.537  14.051  0.00  0.00    +0.000 A 
ATOM     18  C   UNL     1       5.624   3.581  13.420  0.00  0.00    +0.000 A 
ATOM     19  C   UNL     1       6.189   3.377  12.135  0.00  0.00    +0.000 A 
ATOM     20  C   UNL     1       7.275   4.216  12.059  0.00  0.00    +0.000 A 
ATOM     21  O   UNL     1       7.409   4.921  13.210  0.00  0.00    +0.000 OA
ENDBRANCH  15  17
ENDBRANCH   4  11
BRANCH   1  23
ATOM     22  O   UNL     1       3.767   2.093  17.608  0.00  0.00    +0.000 OA
ATOM     23  C   UNL     1       3.046   2.054  18.601  0.00  0.00    +0.000 C 
BRANCH  23  24
ATOM     24  O   UNL     1       1.938   1.299  18.616  0.00  0.00    +0.000 OA
ATOM     25  H   UNL     1       1.089   1.707  18.346  0.00  0.00    +0.000 HD
ENDBRANCH  23  24
ENDBRANCH   1  23
TORSDOF 4
ENDMDL
MODEL 5
REMARK VINA RESULT:      -8.0      3.914      7.179
REMARK  Name = 
REMARK  4 active torsions:
REMARK  status: ('A' for Active; 'I' for Inactive)
REMARK    1  A    between atoms: C_2  and  O_3
REMARK    2  A    between atoms: C_2  and  C_4
REMARK    3  A    between atoms: C_7  and  C_9
REMARK    4  A    between atoms: C_13  and  C_14
REMARK                            x       y       z     vdW  Elec       q    Type
REMARK                         _______ _______ _______ _____ _____    ______ ____
ROOT
ATOM      1  C   UNL     1       3.582   2.721  19.543  0.00  0.00    +0.000 C 
ATOM      2  C   UNL     1       4.540   3.711  18.884  0.00  0.00    +0.000 C 
ATOM      3  N   UNL     1       3.928   5.001  18.558  0.00  0.00    +0.000 N 
ATOM      4  C   UNL     1       4.243   5.799  17.442  0.00  0.00    +0.000 C 
ATOM      5  O   UNL     1       3.654   6.857  17.222  0.00  0.00    +0.000 OA
ATOM      6  C   UNL     1       3.123   5.630  19.621  0.00  0.00    +0.000 C 
ATOM      7  C   UNL     1       2.184   4.665  20.343  0.00  0.00    +0.000 C 
ATOM      8  F   UNL     1       1.111   4.376  19.555  0.00  0.00    +0.000 F 
ATOM      9  F   UNL     1       1.686   5.243  21.463  0.00  0.00    +0.000 F 
ATOM     10  C   UNL     1       2.840   3.351  20.716  0.00  0.00    +0.000 C 
ENDROOT
BRANCH   4  11
ATOM     11  C   UNL     1       5.298   5.392  16.465  0.00  0.00    +0.000 A 
ATOM     12  C   UNL     1       6.641   5.740  16.621  0.00  0.00    +0.000 A 
ATOM     13  C   UNL     1       7.597   5.282  15.720  0.00  0.00    +0.000 A 
ATOM     14  C   UNL     1       7.202   4.562  14.595  0.00  0.00    +0.000 A 
ATOM     15  C   UNL     1       5.846   4.299  14.344  0.00  0.00    +0.000 A 
ATOM     16  C   UNL     1       4.902   4.707  15.300  0.00  0.00    +0.000 A 
BRANCH  15  17
ATOM     17  C   UNL     1       5.432   3.642  13.106  0.00  0.00    +0.000 A 
ATOM     18  C   UNL     1       4.332   3.738  12.274  0.00  0.00    +0.000 A 
ATOM     19  C   UNL     1       4.552   2.843  11.197  0.00  0.00    +0.000 A 
ATOM     20  C   UNL     1       5.769   2.251  11.435  0.00  0.00    +0.000 A 
ATOM     21  O   UNL     1       6.308   2.728  12.585  0.00  0.00    +0.000 OA
ENDBRANCH  15  17
ENDBRANCH   4  11
BRANCH   1  23
ATOM     22  O   UNL     1       3.181   1.984  17.300  0.00  0.00    +0.000 OA
ATOM     23  C   UNL     1       2.788   2.007  18.463  0.00  0.00    +0.000 C 
BRANCH  23  24
ATOM     24  O   UNL     1       1.643   1.404  18.812  0.00  0.00    +0.000 OA
ATOM     25  H   UNL     1       0.815   1.673  18.360  0.00  0.00    +0.000 HD
ENDBRANCH  23  24
ENDBRANCH   1  23
TORSDOF 4
ENDMDL
MODEL 6
REMARK VINA RESULT:      -7.9      4.261      5.588
REMARK  Name = 
REMARK  4 active torsions:
REMARK  status: ('A' for Active; 'I' for Inactive)
REMARK    1  A    between atoms: C_2  and  O_3
REMARK    2  A    between atoms: C_2  and  C_4
REMARK    3  A    between atoms: C_7  and  C_9
REMARK    4  A    between atoms: C_13  and  C_14
REMARK                            x       y       z     vdW  Elec       q    Type
REMARK                         _______ _______ _______ _____ _____    ______ ____
ROOT
ATOM      1  C   UNL     1       3.916   3.190  20.717  0.00  0.00    +0.000 C 
ATOM      2  C   UNL     1       4.046   4.054  19.464  0.00  0.00    +0.000 C 
ATOM      3  N   UNL     1       3.077   3.726  18.415  0.00  0.00    +0.000 N 
ATOM      4  C   UNL     1       3.315   3.796  17.030  0.00  0.00    +0.000 C 
ATOM      5  O   UNL     1       2.454   3.468  16.213  0.00  0.00    +0.000 OA
ATOM      6  C   UNL     1       1.675   3.578  18.845  0.00  0.00    +0.000 C 
ATOM      7  C   UNL     1       1.500   2.761  20.124  0.00  0.00    +0.000 C 
ATOM      8  F   UNL     1       1.672   1.436  19.862  0.00  0.00    +0.000 F 
ATOM      9  F   UNL     1       0.237   2.892  20.596  0.00  0.00    +0.000 F 
ATOM     10  C   UNL     1       2.478   3.139  21.218  0.00  0.00    +0.000 C 
ENDROOT
BRANCH   4  11
ATOM     11  C   UNL     1       4.628   4.258  16.485  0.00  0.00    +0.000 A 
ATOM     12  C   UNL     1       5.247   3.645  15.395  0.00  0.00    +0.000 A 
ATOM     13  C   UNL     1       6.437   4.152  14.883  0.00  0.00    +0.000 A 
ATOM     14  C   UNL     1       7.073   5.212  15.525  0.00  0.00    +0.000 A 
ATOM     15  C   UNL     1       6.539   5.773  16.696  0.00  0.00    +0.000 A 
ATOM     16  C   UNL     1       5.302   5.296  17.158  0.00  0.00    +0.000 A 
BRANCH  15  17
ATOM     17  C   UNL     1       7.270   6.807  17.426  0.00  0.00    +0.000 A 
ATOM     18  C   UNL     1       8.054   6.825  18.564  0.00  0.00    +0.000 A 
ATOM     19  C   UNL     1       8.512   8.157  18.727  0.00  0.00    +0.000 A 
ATOM     20  C   UNL     1       7.978   8.874  17.683  0.00  0.00    +0.000 A 
ATOM     21  O   UNL     1       7.228   8.068  16.892  0.00  0.00    +0.000 OA
ENDBRANCH  15  17
ENDBRANCH   4  11
BRANCH   1  23
ATOM     22  O   UNL     1       5.296   1.363  21.420  0.00  0.00    +0.000 OA
ATOM     23  C   UNL     1       4.672   1.891  20.503  0.00  0.00    +0.000 C 
BRANCH  23  24
ATOM     24  O   UNL     1       4.643   1.335  19.283  0.00  0.00    +0.000 OA
ATOM     25  H   UNL     1       5.165   1.752  18.566  0.00  0.00    +0.000 HD
ENDBRANCH  23  24
ENDBRANCH   1  23
TORSDOF 4
ENDMDL
MODEL 7
REMARK VINA RESULT:      -7.9      3.376      6.599
REMARK  Name = 
REMARK  4 active torsions:
REMARK  status: ('A' for Active; 'I' for Inactive)
REMARK    1  A    between atoms: C_2  and  O_3
REMARK    2  A    between atoms: C_2  and  C_4
REMARK    3  A    between atoms: C_7  and  C_9
REMARK    4  A    between atoms: C_13  and  C_14
REMARK                            x       y       z     vdW  Elec       q    Type
REMARK                         _______ _______ _______ _____ _____    ______ ____
ROOT
ATOM      1  C   UNL     1       1.297   5.133  19.593  0.00  0.00    +0.000 C 
ATOM      2  C   UNL     1       2.306   4.662  18.547  0.00  0.00    +0.000 C 
ATOM      3  N   UNL     1       3.409   3.873  19.100  0.00  0.00    +0.000 N 
ATOM      4  C   UNL     1       4.736   3.878  18.630  0.00  0.00    +0.000 C 
ATOM      5  O   UNL     1       5.613   3.208  19.177  0.00  0.00    +0.000 OA
ATOM      6  C   UNL     1       3.037   2.798  20.038  0.00  0.00    +0.000 C 
ATOM      7  C   UNL     1       1.992   3.209  21.073  0.00  0.00    +0.000 C 
ATOM      8  F   UNL     1       2.563   3.993  22.030  0.00  0.00    +0.000 F 
ATOM      9  F   UNL     1       1.510   2.118  21.715  0.00  0.00    +0.000 F 
ATOM     10  C   UNL     1       0.833   3.987  20.483  0.00  0.00    +0.000 C 
ENDROOT
BRANCH   4  11
ATOM     11  C   UNL     1       5.145   4.705  17.455  0.00  0.00    +0.000 A 
ATOM     12  C   UNL     1       5.257   6.095  17.518  0.00  0.00    +0.000 A 
ATOM     13  C   UNL     1       5.704   6.816  16.415  0.00  0.00    +0.000 A 
ATOM     14  C   UNL     1       5.941   6.163  15.208  0.00  0.00    +0.000 A 
ATOM     15  C   UNL     1       5.720   4.783  15.077  0.00  0.00    +0.000 A 
ATOM     16  C   UNL     1       5.337   4.060  16.218  0.00  0.00    +0.000 A 
BRANCH  15  17
ATOM     17  C   UNL     1       5.861   4.127  13.779  0.00  0.00    +0.000 A 
ATOM     18  C   UNL     1       6.931   3.770  12.980  0.00  0.00    +0.000 A 
ATOM     19  C   UNL     1       6.394   3.119  11.840  0.00  0.00    +0.000 A 
ATOM     20  C   UNL     1       5.030   3.120  12.008  0.00  0.00    +0.000 A 
ATOM     21  O   UNL     1       4.698   3.726  13.176  0.00  0.00    +0.000 OA
ENDBRANCH  15  17
ENDBRANCH   4  11
BRANCH   1  23
ATOM     22  O   UNL     1       2.633   7.119  19.664  0.00  0.00    +0.000 OA
ATOM     23  C   UNL     1       1.812   6.408  20.237  0.00  0.00    +0.000 C 
BRANCH  23  24
ATOM     24  O   UNL     1       1.348   6.737  21.451  0.00  0.00    +0.000 OA
ATOM     25  H   UNL     1       1.852   6.446  22.239  0.00  0.00    +0.000 HD
ENDBRANCH  23  24
ENDBRANCH   1  23
TORSDOF 4
ENDMDL
MODEL 8
REMARK VINA RESULT:      -7.9      2.789      4.791
REMARK  Name = 
REMARK  4 active torsions:
REMARK  status: ('A' for Active; 'I' for Inactive)
REMARK    1  A    between atoms: C_2  and  O_3
REMARK    2  A    between atoms: C_2  and  C_4
REMARK    3  A    between atoms: C_7  and  C_9
REMARK    4  A    between atoms: C_13  and  C_14
REMARK                            x       y       z     vdW  Elec       q    Type
REMARK                         _______ _______ _______ _____ _____    ______ ____
ROOT
ATOM      1  C   UNL     1       6.795   5.418  17.229  0.00  0.00    +0.000 C 
ATOM      2  C   UNL     1       5.730   4.587  17.941  0.00  0.00    +0.000 C 
ATOM      3  N   UNL     1       4.681   4.080  17.052  0.00  0.00    +0.000 N 
ATOM      4  C   UNL     1       3.327   3.912  17.396  0.00  0.00    +0.000 C 
ATOM      5  O   UNL     1       2.501   3.511  16.576  0.00  0.00    +0.000 OA
ATOM      6  C   UNL     1       5.136   3.446  15.801  0.00  0.00    +0.000 C 
ATOM      7  C   UNL     1       6.238   4.218  15.078  0.00  0.00    +0.000 C 
ATOM      8  F   UNL     1       5.715   5.314  14.459  0.00  0.00    +0.000 F 
ATOM      9  F   UNL     1       6.783   3.455  14.100  0.00  0.00    +0.000 F 
ATOM     10  C   UNL     1       7.340   4.700  16.000  0.00  0.00    +0.000 C 
ENDROOT
BRANCH   4  11
ATOM     11  C   UNL     1       2.826   4.225  18.769  0.00  0.00    +0.000 A 
ATOM     12  C   UNL     1       2.667   3.246  19.752  0.00  0.00    +0.000 A 
ATOM     13  C   UNL     1       2.259   3.597  21.035  0.00  0.00    +0.000 A 
ATOM     14  C   UNL     1       1.904   4.914  21.315  0.00  0.00    +0.000 A 
ATOM     15  C   UNL     1       1.934   5.899  20.316  0.00  0.00    +0.000 A 
ATOM     16  C   UNL     1       2.416   5.543  19.046  0.00  0.00    +0.000 A 
BRANCH  15  17
ATOM     17  C   UNL     1       1.451   7.252  20.589  0.00  0.00    +0.000 A 
ATOM     18  C   UNL     1       0.758   7.846  21.626  0.00  0.00    +0.000 A 
ATOM     19  C   UNL     1       0.629   9.220  21.300  0.00  0.00    +0.000 A 
ATOM     20  C   UNL     1       1.246   9.383  20.083  0.00  0.00    +0.000 A 
ATOM     21  O   UNL     1       1.746   8.200  19.646  0.00  0.00    +0.000 OA
ENDBRANCH  15  17
ENDBRANCH   4  11
BRANCH   1  23
ATOM     22  O   UNL     1       5.097   7.097  17.055  0.00  0.00    +0.000 OA
ATOM     23  C   UNL     1       6.299   6.846  17.092  0.00  0.00    +0.000 C 
BRANCH  23  24
ATOM     24  O   UNL     1       7.208   7.828  17.009  0.00  0.00    +0.000 OA
ATOM     25  H   UNL     1       7.783   7.868  16.216  0.00  0.00    +0.000 HD
ENDBRANCH  23  24
ENDBRANCH   1  23
TORSDOF 4
ENDMDL
MODEL 9
REMARK VINA RESULT:      -7.7      3.212      5.469
REMARK  Name = 
REMARK  4 active torsions:
REMARK  status: ('A' for Active; 'I' for Inactive)
REMARK    1  A    between atoms: C_2  and  O_3
REMARK    2  A    between atoms: C_2  and  C_4
REMARK    3  A    between atoms: C_7  and  C_9
REMARK    4  A    between atoms: C_13  and  C_14
REMARK                            x       y       z     vdW  Elec       q    Type
REMARK                         _______ _______ _______ _____ _____    ______ ____
ROOT
ATOM      1  C   UNL     1       1.396   5.117  19.546  0.00  0.00    +0.000 C 
ATOM      2  C   UNL     1       2.506   4.537  18.671  0.00  0.00    +0.000 C 
ATOM      3  N   UNL     1       3.405   3.624  19.380  0.00  0.00    +0.000 N 
ATOM      4  C   UNL     1       4.783   3.478  19.136  0.00  0.00    +0.000 C 
ATOM      5  O   UNL     1       5.476   2.710  19.804  0.00  0.00    +0.000 OA
ATOM      6  C   UNL     1       2.763   2.595  20.218  0.00  0.00    +0.000 C 
ATOM      7  C   UNL     1       1.614   3.120  21.076  0.00  0.00    +0.000 C 
ATOM      8  F   UNL     1       2.101   3.829  22.132  0.00  0.00    +0.000 F 
ATOM      9  F   UNL     1       0.911   2.089  21.604  0.00  0.00    +0.000 F 
ATOM     10  C   UNL     1       0.664   4.028  20.320  0.00  0.00    +0.000 C 
ENDROOT
BRANCH   4  11
ATOM     11  C   UNL     1       5.473   4.257  18.063  0.00  0.00    +0.000 A 
ATOM     12  C   UNL     1       5.561   3.806  16.745  0.00  0.00    +0.000 A 
ATOM     13  C   UNL     1       6.156   4.597  15.767  0.00  0.00    +0.000 A 
ATOM     14  C   UNL     1       6.763   5.799  16.123  0.00  0.00    +0.000 A 
ATOM     15  C   UNL     1       6.799   6.224  17.460  0.00  0.00    +0.000 A 
ATOM     16  C   UNL     1       6.133   5.448  18.422  0.00  0.00    +0.000 A 
BRANCH  15  17
ATOM     17  C   UNL     1       7.537   7.428  17.839  0.00  0.00    +0.000 A 
ATOM     18  C   UNL     1       8.478   7.729  18.805  0.00  0.00    +0.000 A 
ATOM     19  C   UNL     1       8.834   9.089  18.623  0.00  0.00    +0.000 A 
ATOM     20  C   UNL     1       8.087   9.539  17.561  0.00  0.00    +0.000 A 
ATOM     21  O   UNL     1       7.301   8.544  17.080  0.00  0.00    +0.000 OA
ENDBRANCH  15  17
ENDBRANCH   4  11
BRANCH   1  23
ATOM     22  O   UNL     1       1.291   6.847  21.198  0.00  0.00    +0.000 OA
ATOM     23  C   UNL     1       1.937   6.322  20.295  0.00  0.00    +0.000 C 
BRANCH  23  24
ATOM     24  O   UNL     1       3.139   6.800  19.943  0.00  0.00    +0.000 OA
ATOM     25  H   UNL     1       3.527   6.511  19.090  0.00  0.00    +0.000 HD
ENDBRANCH  23  24
ENDBRANCH   1  23
TORSDOF 4
ENDMDL
