MODEL 1
REMARK VINA RESULT:      -7.9      0.000      0.000
REMARK  Name = 
REMARK  12 active torsions:
REMARK  status: ('A' for Active; 'I' for Inactive)
REMARK    1  A    between atoms: C_1  and  O_2
REMARK    2  A    between atoms: O_2  and  C_3
REMARK    3  A    between atoms: C_6  and  C_7
REMARK    4  A    between atoms: C_8  and  S_9
REMARK    5  A    between atoms: S_9  and  N_12
REMARK    6  A    between atoms: N_12  and  C_13
REMARK    7  A    between atoms: C_14  and  O_15
REMARK    8  A    between atoms: O_15  and  C_16
REMARK    9  A    between atoms: C_18  and  O_19
REMARK   10  A    between atoms: O_19  and  C_20
REMARK   11  A    between atoms: C_22  and  O_23
REMARK   12  A    between atoms: O_23  and  C_24
REMARK                            x       y       z     vdW  Elec       q    Type
REMARK                         _______ _______ _______ _____ _____    ______ ____
ROOT
ATOM      1  N   UNL     1       5.502   6.986  16.927  0.00  0.00    +0.000 N 
ATOM      2  H   UNL     1       5.480   7.287  15.956  0.00  0.00    +0.000 HD
ENDROOT
BRANCH   1   3
ATOM      3  C   UNL     1       4.610   5.872  17.196  0.00  0.00    +0.000 A 
ATOM      4  C   UNL     1       3.420   6.077  17.940  0.00  0.00    +0.000 A 
ATOM      5  C   UNL     1       2.500   5.025  18.112  0.00  0.00    +0.000 A 
ATOM      6  C   UNL     1       2.693   3.777  17.547  0.00  0.00    +0.000 A 
ATOM      7  C   UNL     1       3.885   3.541  16.888  0.00  0.00    +0.000 A 
ATOM      8  C   UNL     1       4.860   4.554  16.731  0.00  0.00    +0.000 A 
BRANCH   4   9
ATOM      9  O   UNL     1       2.979   7.175  18.630  0.00  0.00    +0.000 OA
ATOM     10  C   UNL     1       2.304   8.225  17.979  0.00  0.00    +0.000 C 
ENDBRANCH   4   9
BRANCH   6  11
ATOM     11  O   UNL     1       1.712   2.853  17.762  0.00  0.00    +0.000 OA
ATOM     12  C   UNL     1       0.917   3.048  18.928  0.00  0.00    +0.000 C 
ENDBRANCH   6  11
BRANCH   8  13
ATOM     13  O   UNL     1       5.953   3.977  16.143  0.00  0.00    +0.000 OA
ATOM     14  C   UNL     1       6.095   3.861  14.751  0.00  0.00    +0.000 C 
ENDBRANCH   8  13
ENDBRANCH   1   3
BRANCH   1  15
ATOM     15  S   UNL     1       7.131   6.867  17.409  0.00  0.00    +0.000 S 
ATOM     16  O   UNL     1       7.848   6.389  16.245  0.00  0.00    +0.000 OA
ATOM     17  O   UNL     1       7.215   6.181  18.678  0.00  0.00    +0.000 OA
BRANCH  15  19
ATOM     18  C   UNL     1       8.532   8.817  18.578  0.00  0.00    +0.000 C 
ATOM     19  C   UNL     1       7.675   8.503  17.591  0.00  0.00    +0.000 C 
BRANCH  18  23
ATOM     20  C   UNL     1      10.031  12.729  19.386  0.00  0.00    +0.000 A 
ATOM     21  C   UNL     1      10.123  11.712  20.335  0.00  0.00    +0.000 A 
ATOM     22  C   UNL     1       9.634  10.435  20.052  0.00  0.00    +0.000 A 
ATOM     23  C   UNL     1       9.017  10.168  18.822  0.00  0.00    +0.000 A 
ATOM     24  C   UNL     1       8.920  11.200  17.879  0.00  0.00    +0.000 A 
ATOM     25  C   UNL     1       9.414  12.475  18.162  0.00  0.00    +0.000 A 
BRANCH  20  27
ATOM     26  C   UNL     1      11.943  14.103  19.512  0.00  0.00    +0.000 C 
ATOM     27  O   UNL     1      10.552  13.935  19.765  0.00  0.00    +0.000 OA
ENDBRANCH  20  27
ENDBRANCH  18  23
ENDBRANCH  15  19
ENDBRANCH   1  15
TORSDOF 8
ENDMDL
MODEL 2
REMARK VINA RESULT:      -7.9      0.482      1.060
REMARK  Name = 
REMARK  12 active torsions:
REMARK  status: ('A' for Active; 'I' for Inactive)
REMARK    1  A    between atoms: C_1  and  O_2
REMARK    2  A    between atoms: O_2  and  C_3
REMARK    3  A    between atoms: C_6  and  C_7
REMARK    4  A    between atoms: C_8  and  S_9
REMARK    5  A    between atoms: S_9  and  N_12
REMARK    6  A    between atoms: N_12  and  C_13
REMARK    7  A    between atoms: C_14  and  O_15
REMARK    8  A    between atoms: O_15  and  C_16
REMARK    9  A    between atoms: C_18  and  O_19
REMARK   10  A    between atoms: O_19  and  C_20
REMARK   11  A    between atoms: C_22  and  O_23
REMARK   12  A    between atoms: O_23  and  C_24
REMARK                            x       y       z     vdW  Elec       q    Type
REMARK                         _______ _______ _______ _____ _____    ______ ____
ROOT
ATOM      1  N   UNL     1       5.447   6.928  16.842  0.00  0.00    +0.000 N 
ATOM      2  H   UNL     1       5.474   7.148  15.851  0.00  0.00    +0.000 HD
ENDROOT
BRANCH   1   3
ATOM      3  C   UNL     1       4.496   5.879  17.166  0.00  0.00    +0.000 A 
ATOM      4  C   UNL     1       3.351   6.176  17.950  0.00  0.00    +0.000 A 
ATOM      5  C   UNL     1       2.371   5.189  18.176  0.00  0.00    +0.000 A 
ATOM      6  C   UNL     1       2.461   3.922  17.629  0.00  0.00    +0.000 A 
ATOM      7  C   UNL     1       3.608   3.597  16.931  0.00  0.00    +0.000 A 
ATOM      8  C   UNL     1       4.641   4.540  16.719  0.00  0.00    +0.000 A 
BRANCH   4   9
ATOM      9  O   UNL     1       3.009   7.312  18.635  0.00  0.00    +0.000 OA
ATOM     10  C   UNL     1       2.179   7.259  19.771  0.00  0.00    +0.000 C 
ENDBRANCH   4   9
BRANCH   6  11
ATOM     11  O   UNL     1       1.430   3.069  17.899  0.00  0.00    +0.000 OA
ATOM     12  C   UNL     1       1.320   2.630  19.249  0.00  0.00    +0.000 C 
ENDBRANCH   6  11
BRANCH   8  13
ATOM     13  O   UNL     1       5.671   3.883  16.101  0.00  0.00    +0.000 OA
ATOM     14  C   UNL     1       5.890   3.943  14.716  0.00  0.00    +0.000 C 
ENDBRANCH   8  13
ENDBRANCH   1   3
BRANCH   1  15
ATOM     15  S   UNL     1       7.051   6.778  17.395  0.00  0.00    +0.000 S 
ATOM     16  O   UNL     1       7.805   6.267  16.269  0.00  0.00    +0.000 OA
ATOM     17  O   UNL     1       7.065   6.107  18.675  0.00  0.00    +0.000 OA
BRANCH  15  19
ATOM     18  C   UNL     1       8.477   8.702  18.575  0.00  0.00    +0.000 C 
ATOM     19  C   UNL     1       7.626   8.403  17.579  0.00  0.00    +0.000 C 
BRANCH  18  23
ATOM     20  C   UNL     1       9.892  12.678  19.206  0.00  0.00    +0.000 A 
ATOM     21  C   UNL     1       9.256  12.320  18.018  0.00  0.00    +0.000 A 
ATOM     22  C   UNL     1       8.791  11.016  17.832  0.00  0.00    +0.000 A 
ATOM     23  C   UNL     1       8.987  10.043  18.821  0.00  0.00    +0.000 A 
ATOM     24  C   UNL     1       9.638  10.412  20.007  0.00  0.00    +0.000 A 
ATOM     25  C   UNL     1      10.097  11.717  20.195  0.00  0.00    +0.000 A 
BRANCH  20  27
ATOM     26  C   UNL     1      11.598  14.186  19.820  0.00  0.00    +0.000 C 
ATOM     27  O   UNL     1      10.294  13.982  19.286  0.00  0.00    +0.000 OA
ENDBRANCH  20  27
ENDBRANCH  18  23
ENDBRANCH  15  19
ENDBRANCH   1  15
TORSDOF 8
ENDMDL
MODEL 3
REMARK VINA RESULT:      -7.7      0.543      2.655
REMARK  Name = 
REMARK  12 active torsions:
REMARK  status: ('A' for Active; 'I' for Inactive)
REMARK    1  A    between atoms: C_1  and  O_2
REMARK    2  A    between atoms: O_2  and  C_3
REMARK    3  A    between atoms: C_6  and  C_7
REMARK    4  A    between atoms: C_8  and  S_9
REMARK    5  A    between atoms: S_9  and  N_12
REMARK    6  A    between atoms: N_12  and  C_13
REMARK    7  A    between atoms: C_14  and  O_15
REMARK    8  A    between atoms: O_15  and  C_16
REMARK    9  A    between atoms: C_18  and  O_19
REMARK   10  A    between atoms: O_19  and  C_20
REMARK   11  A    between atoms: C_22  and  O_23
REMARK   12  A    between atoms: O_23  and  C_24
REMARK                            x       y       z     vdW  Elec       q    Type
REMARK                         _______ _______ _______ _____ _____    ______ ____
ROOT
ATOM      1  N   UNL     1       5.516   6.963  16.898  0.00  0.00    +0.000 N 
ATOM      2  H   UNL     1       5.509   7.194  15.908  0.00  0.00    +0.000 HD
ENDROOT
BRANCH   1   3
ATOM      3  C   UNL     1       4.617   5.872  17.233  0.00  0.00    +0.000 A 
ATOM      4  C   UNL     1       4.849   4.573  16.711  0.00  0.00    +0.000 A 
ATOM      5  C   UNL     1       4.044   3.491  17.118  0.00  0.00    +0.000 A 
ATOM      6  C   UNL     1       3.032   3.635  18.050  0.00  0.00    +0.000 A 
ATOM      7  C   UNL     1       2.745   4.908  18.506  0.00  0.00    +0.000 A 
ATOM      8  C   UNL     1       3.495   6.032  18.088  0.00  0.00    +0.000 A 
BRANCH   4   9
ATOM      9  O   UNL     1       5.741   4.138  15.767  0.00  0.00    +0.000 OA
ATOM     10  C   UNL     1       5.535   4.388  14.397  0.00  0.00    +0.000 C 
ENDBRANCH   4   9
BRANCH   6  11
ATOM     11  O   UNL     1       2.346   2.502  18.383  0.00  0.00    +0.000 OA
ATOM     12  C   UNL     1       0.966   2.676  18.689  0.00  0.00    +0.000 C 
ENDBRANCH   6  11
BRANCH   8  13
ATOM     13  O   UNL     1       2.896   7.141  18.623  0.00  0.00    +0.000 OA
ATOM     14  C   UNL     1       2.332   8.156  17.834  0.00  0.00    +0.000 C 
ENDBRANCH   8  13
ENDBRANCH   1   3
BRANCH   1  15
ATOM     15  S   UNL     1       7.137   6.874  17.411  0.00  0.00    +0.000 S 
ATOM     16  O   UNL     1       7.895   6.484  16.241  0.00  0.00    +0.000 OA
ATOM     17  O   UNL     1       7.218   6.124  18.644  0.00  0.00    +0.000 OA
BRANCH  15  19
ATOM     18  C   UNL     1       8.625   8.781  18.542  0.00  0.00    +0.000 C 
ATOM     19  C   UNL     1       7.619   8.516  17.691  0.00  0.00    +0.000 C 
BRANCH  18  23
ATOM     20  C   UNL     1       9.884  12.774  19.367  0.00  0.00    +0.000 A 
ATOM     21  C   UNL     1       9.481  12.396  18.087  0.00  0.00    +0.000 A 
ATOM     22  C   UNL     1       9.064  11.087  17.836  0.00  0.00    +0.000 A 
ATOM     23  C   UNL     1       9.076  10.129  18.859  0.00  0.00    +0.000 A 
ATOM     24  C   UNL     1       9.493  10.517  20.140  0.00  0.00    +0.000 A 
ATOM     25  C   UNL     1       9.904  11.828  20.390  0.00  0.00    +0.000 A 
BRANCH  20  27
ATOM     26  C   UNL     1      10.372  14.810  18.282  0.00  0.00    +0.000 C 
ATOM     27  O   UNL     1      10.260  14.082  19.500  0.00  0.00    +0.000 OA
ENDBRANCH  20  27
ENDBRANCH  18  23
ENDBRANCH  15  19
ENDBRANCH   1  15
TORSDOF 8
ENDMDL
MODEL 4
REMARK VINA RESULT:      -7.5      0.619      2.527
REMARK  Name = 
REMARK  12 active torsions:
REMARK  status: ('A' for Active; 'I' for Inactive)
REMARK    1  A    between atoms: C_1  and  O_2
REMARK    2  A    between atoms: O_2  and  C_3
REMARK    3  A    between atoms: C_6  and  C_7
REMARK    4  A    between atoms: C_8  and  S_9
REMARK    5  A    between atoms: S_9  and  N_12
REMARK    6  A    between atoms: N_12  and  C_13
REMARK    7  A    between atoms: C_14  and  O_15
REMARK    8  A    between atoms: O_15  and  C_16
REMARK    9  A    between atoms: C_18  and  O_19
REMARK   10  A    between atoms: O_19  and  C_20
REMARK   11  A    between atoms: C_22  and  O_23
REMARK   12  A    between atoms: O_23  and  C_24
REMARK                            x       y       z     vdW  Elec       q    Type
REMARK                         _______ _______ _______ _____ _____    ______ ____
ROOT
ATOM      1  N   UNL     1       5.594   6.842  17.189  0.00  0.00    +0.000 N 
ATOM      2  H   UNL     1       5.623   7.312  16.289  0.00  0.00    +0.000 HD
ENDROOT
BRANCH   1   3
ATOM      3  C   UNL     1       4.477   5.922  17.314  0.00  0.00    +0.000 A 
ATOM      4  C   UNL     1       4.541   4.639  16.710  0.00  0.00    +0.000 A 
ATOM      5  C   UNL     1       3.508   3.705  16.918  0.00  0.00    +0.000 A 
ATOM      6  C   UNL     1       2.421   3.975  17.729  0.00  0.00    +0.000 A 
ATOM      7  C   UNL     1       2.308   5.247  18.258  0.00  0.00    +0.000 A 
ATOM      8  C   UNL     1       3.297   6.235  18.037  0.00  0.00    +0.000 A 
BRANCH   4   9
ATOM      9  O   UNL     1       5.461   4.106  15.847  0.00  0.00    +0.000 OA
ATOM     10  C   UNL     1       5.406   4.370  14.465  0.00  0.00    +0.000 C 
ENDBRANCH   4   9
BRANCH   6  11
ATOM     11  O   UNL     1       1.505   2.973  17.873  0.00  0.00    +0.000 OA
ATOM     12  C   UNL     1       1.438   2.371  19.162  0.00  0.00    +0.000 C 
ENDBRANCH   6  11
BRANCH   8  13
ATOM     13  O   UNL     1       2.838   7.399  18.592  0.00  0.00    +0.000 OA
ATOM     14  C   UNL     1       2.196   8.397  17.843  0.00  0.00    +0.000 C 
ENDBRANCH   8  13
ENDBRANCH   1   3
BRANCH   1  15
ATOM     15  S   UNL     1       7.161   6.280  17.545  0.00  0.00    +0.000 S 
ATOM     16  O   UNL     1       7.814   6.109  16.264  0.00  0.00    +0.000 OA
ATOM     17  O   UNL     1       7.086   5.199  18.501  0.00  0.00    +0.000 OA
BRANCH  15  19
ATOM     18  C   UNL     1       7.849   8.855  17.713  0.00  0.00    +0.000 C 
ATOM     19  C   UNL     1       7.982   7.632  18.255  0.00  0.00    +0.000 C 
BRANCH  18  23
ATOM     20  C   UNL     1       9.904  12.250  19.281  0.00  0.00    +0.000 A 
ATOM     21  C   UNL     1       9.955  11.015  19.927  0.00  0.00    +0.000 A 
ATOM     22  C   UNL     1       9.283   9.912  19.396  0.00  0.00    +0.000 A 
ATOM     23  C   UNL     1       8.523  10.039  18.225  0.00  0.00    +0.000 A 
ATOM     24  C   UNL     1       8.471  11.288  17.589  0.00  0.00    +0.000 A 
ATOM     25  C   UNL     1       9.148  12.388  18.119  0.00  0.00    +0.000 A 
BRANCH  20  27
ATOM     26  C   UNL     1      10.816  14.415  19.083  0.00  0.00    +0.000 C 
ATOM     27  O   UNL     1      10.609  13.255  19.882  0.00  0.00    +0.000 OA
ENDBRANCH  20  27
ENDBRANCH  18  23
ENDBRANCH  15  19
ENDBRANCH   1  15
TORSDOF 8
ENDMDL
MODEL 5
REMARK VINA RESULT:      -7.5      0.846      2.563
REMARK  Name = 
REMARK  12 active torsions:
REMARK  status: ('A' for Active; 'I' for Inactive)
REMARK    1  A    between atoms: C_1  and  O_2
REMARK    2  A    between atoms: O_2  and  C_3
REMARK    3  A    between atoms: C_6  and  C_7
REMARK    4  A    between atoms: C_8  and  S_9
REMARK    5  A    between atoms: S_9  and  N_12
REMARK    6  A    between atoms: N_12  and  C_13
REMARK    7  A    between atoms: C_14  and  O_15
REMARK    8  A    between atoms: O_15  and  C_16
REMARK    9  A    between atoms: C_18  and  O_19
REMARK   10  A    between atoms: O_19  and  C_20
REMARK   11  A    between atoms: C_22  and  O_23
REMARK   12  A    between atoms: O_23  and  C_24
REMARK                            x       y       z     vdW  Elec       q    Type
REMARK                         _______ _______ _______ _____ _____    ______ ____
ROOT
ATOM      1  N   UNL     1       5.551   7.185  17.230  0.00  0.00    +0.000 N 
ATOM      2  H   UNL     1       5.410   7.697  16.364  0.00  0.00    +0.000 HD
ENDROOT
BRANCH   1   3
ATOM      3  C   UNL     1       4.716   6.000  17.331  0.00  0.00    +0.000 A 
ATOM      4  C   UNL     1       4.814   4.976  16.353  0.00  0.00    +0.000 A 
ATOM      5  C   UNL     1       4.087   3.779  16.505  0.00  0.00    +0.000 A 
ATOM      6  C   UNL     1       3.286   3.537  17.606  0.00  0.00    +0.000 A 
ATOM      7  C   UNL     1       3.122   4.556  18.525  0.00  0.00    +0.000 A 
ATOM      8  C   UNL     1       3.794   5.794  18.390  0.00  0.00    +0.000 A 
BRANCH   4   9
ATOM      9  O   UNL     1       5.489   4.943  15.162  0.00  0.00    +0.000 OA
ATOM     10  C   UNL     1       6.181   3.789  14.746  0.00  0.00    +0.000 C 
ENDBRANCH   4   9
BRANCH   6  11
ATOM     11  O   UNL     1       2.660   2.325  17.648  0.00  0.00    +0.000 OA
ATOM     12  C   UNL     1       1.613   2.197  18.605  0.00  0.00    +0.000 C 
ENDBRANCH   6  11
BRANCH   8  13
ATOM     13  O   UNL     1       3.336   6.615  19.384  0.00  0.00    +0.000 OA
ATOM     14  C   UNL     1       2.176   6.339  20.125  0.00  0.00    +0.000 C 
ENDBRANCH   8  13
ENDBRANCH   1   3
BRANCH   1  15
ATOM     15  S   UNL     1       7.226   7.031  17.490  0.00  0.00    +0.000 S 
ATOM     16  O   UNL     1       7.776   6.576  16.230  0.00  0.00    +0.000 OA
ATOM     17  O   UNL     1       7.465   6.309  18.719  0.00  0.00    +0.000 OA
BRANCH  15  19
ATOM     18  C   UNL     1       8.599   8.988  18.682  0.00  0.00    +0.000 C 
ATOM     19  C   UNL     1       7.817   8.654  17.640  0.00  0.00    +0.000 C 
BRANCH  18  23
ATOM     20  C   UNL     1      10.186  12.879  19.420  0.00  0.00    +0.000 A 
ATOM     21  C   UNL     1      10.260  11.876  20.386  0.00  0.00    +0.000 A 
ATOM     22  C   UNL     1       9.743  10.605  20.125  0.00  0.00    +0.000 A 
ATOM     23  C   UNL     1       9.115  10.331  18.902  0.00  0.00    +0.000 A 
ATOM     24  C   UNL     1       9.037  11.350  17.942  0.00  0.00    +0.000 A 
ATOM     25  C   UNL     1       9.559  12.618  18.203  0.00  0.00    +0.000 A 
BRANCH  20  27
ATOM     26  C   UNL     1      11.175  14.893  18.697  0.00  0.00    +0.000 C 
ATOM     27  O   UNL     1      10.735  14.079  19.778  0.00  0.00    +0.000 OA
ENDBRANCH  20  27
ENDBRANCH  18  23
ENDBRANCH  15  19
ENDBRANCH   1  15
TORSDOF 8
ENDMDL
MODEL 6
REMARK VINA RESULT:      -7.4      4.707      7.114
REMARK  Name = 
REMARK  12 active torsions:
REMARK  status: ('A' for Active; 'I' for Inactive)
REMARK    1  A    between atoms: C_1  and  O_2
REMARK    2  A    between atoms: O_2  and  C_3
REMARK    3  A    between atoms: C_6  and  C_7
REMARK    4  A    between atoms: C_8  and  S_9
REMARK    5  A    between atoms: S_9  and  N_12
REMARK    6  A    between atoms: N_12  and  C_13
REMARK    7  A    between atoms: C_14  and  O_15
REMARK    8  A    between atoms: O_15  and  C_16
REMARK    9  A    between atoms: C_18  and  O_19
REMARK   10  A    between atoms: O_19  and  C_20
REMARK   11  A    between atoms: C_22  and  O_23
REMARK   12  A    between atoms: O_23  and  C_24
REMARK                            x       y       z     vdW  Elec       q    Type
REMARK                         _______ _______ _______ _____ _____    ______ ____
ROOT
ATOM      1  N   UNL     1       6.137   5.696  19.534  0.00  0.00    +0.000 N 
ATOM      2  H   UNL     1       6.068   6.590  20.011  0.00  0.00    +0.000 HD
ENDROOT
BRANCH   1   3
ATOM      3  C   UNL     1       4.861   5.221  19.030  0.00  0.00    +0.000 A 
ATOM      4  C   UNL     1       4.492   3.861  19.196  0.00  0.00    +0.000 A 
ATOM      5  C   UNL     1       3.212   3.420  18.807  0.00  0.00    +0.000 A 
ATOM      6  C   UNL     1       2.263   4.280  18.285  0.00  0.00    +0.000 A 
ATOM      7  C   UNL     1       2.637   5.589  18.045  0.00  0.00    +0.000 A 
ATOM      8  C   UNL     1       3.927   6.066  18.375  0.00  0.00    +0.000 A 
BRANCH   4   9
ATOM      9  O   UNL     1       5.217   2.789  19.648  0.00  0.00    +0.000 OA
ATOM     10  C   UNL     1       4.677   1.883  20.581  0.00  0.00    +0.000 C 
ENDBRANCH   4   9
BRANCH   6  11
ATOM     11  O   UNL     1       1.051   3.733  17.976  0.00  0.00    +0.000 OA
ATOM     12  C   UNL     1       0.699   2.553  18.692  0.00  0.00    +0.000 C 
ENDBRANCH   6  11
BRANCH   8  13
ATOM     13  O   UNL     1       4.015   7.351  17.914  0.00  0.00    +0.000 OA
ATOM     14  C   UNL     1       2.893   8.096  17.517  0.00  0.00    +0.000 C 
ENDBRANCH   8  13
ENDBRANCH   1   3
BRANCH   1  15
ATOM     15  S   UNL     1       7.464   5.763  18.470  0.00  0.00    +0.000 S 
ATOM     16  O   UNL     1       8.489   4.934  19.071  0.00  0.00    +0.000 OA
ATOM     17  O   UNL     1       7.727   7.136  18.104  0.00  0.00    +0.000 OA
BRANCH  15  19
ATOM     18  C   UNL     1       7.113   5.410  15.846  0.00  0.00    +0.000 C 
ATOM     19  C   UNL     1       6.974   4.868  17.068  0.00  0.00    +0.000 C 
BRANCH  18  23
ATOM     20  C   UNL     1       5.786   3.455  12.293  0.00  0.00    +0.000 A 
ATOM     21  C   UNL     1       5.033   3.408  13.466  0.00  0.00    +0.000 A 
ATOM     22  C   UNL     1       5.478   4.060  14.617  0.00  0.00    +0.000 A 
ATOM     23  C   UNL     1       6.701   4.743  14.619  0.00  0.00    +0.000 A 
ATOM     24  C   UNL     1       7.456   4.776  13.438  0.00  0.00    +0.000 A 
ATOM     25  C   UNL     1       7.007   4.127  12.286  0.00  0.00    +0.000 A 
BRANCH  20  27
ATOM     26  C   UNL     1       3.873   3.056  10.974  0.00  0.00    +0.000 C 
ATOM     27  O   UNL     1       5.249   2.792  11.225  0.00  0.00    +0.000 OA
ENDBRANCH  20  27
ENDBRANCH  18  23
ENDBRANCH  15  19
ENDBRANCH   1  15
TORSDOF 8
ENDMDL
MODEL 7
REMARK VINA RESULT:      -7.3      1.547      2.045
REMARK  Name = 
REMARK  12 active torsions:
REMARK  status: ('A' for Active; 'I' for Inactive)
REMARK    1  A    between atoms: C_1  and  O_2
REMARK    2  A    between atoms: O_2  and  C_3
REMARK    3  A    between atoms: C_6  and  C_7
REMARK    4  A    between atoms: C_8  and  S_9
REMARK    5  A    between atoms: S_9  and  N_12
REMARK    6  A    between atoms: N_12  and  C_13
REMARK    7  A    between atoms: C_14  and  O_15
REMARK    8  A    between atoms: O_15  and  C_16
REMARK    9  A    between atoms: C_18  and  O_19
REMARK   10  A    between atoms: O_19  and  C_20
REMARK   11  A    between atoms: C_22  and  O_23
REMARK   12  A    between atoms: O_23  and  C_24
REMARK                            x       y       z     vdW  Elec       q    Type
REMARK                         _______ _______ _______ _____ _____    ______ ____
ROOT
ATOM      1  N   UNL     1       5.917   6.060  18.899  0.00  0.00    +0.000 N 
ATOM      2  H   UNL     1       5.771   6.974  19.317  0.00  0.00    +0.000 HD
ENDROOT
BRANCH   1   3
ATOM      3  C   UNL     1       4.682   5.323  18.698  0.00  0.00    +0.000 A 
ATOM      4  C   UNL     1       3.543   5.977  18.160  0.00  0.00    +0.000 A 
ATOM      5  C   UNL     1       2.378   5.243  17.864  0.00  0.00    +0.000 A 
ATOM      6  C   UNL     1       2.301   3.875  18.049  0.00  0.00    +0.000 A 
ATOM      7  C   UNL     1       3.374   3.240  18.645  0.00  0.00    +0.000 A 
ATOM      8  C   UNL     1       4.548   3.944  19.004  0.00  0.00    +0.000 A 
BRANCH   4   9
ATOM      9  O   UNL     1       3.316   7.303  17.903  0.00  0.00    +0.000 OA
ATOM     10  C   UNL     1       2.318   8.020  18.590  0.00  0.00    +0.000 C 
ENDBRANCH   4   9
BRANCH   6  11
ATOM     11  O   UNL     1       1.126   3.278  17.693  0.00  0.00    +0.000 OA
ATOM     12  C   UNL     1       0.568   2.381  18.648  0.00  0.00    +0.000 C 
ENDBRANCH   6  11
BRANCH   8  13
ATOM     13  O   UNL     1       5.362   3.064  19.666  0.00  0.00    +0.000 OA
ATOM     14  C   UNL     1       4.875   1.924  20.324  0.00  0.00    +0.000 C 
ENDBRANCH   8  13
ENDBRANCH   1   3
BRANCH   1  15
ATOM     15  S   UNL     1       6.985   6.242  17.585  0.00  0.00    +0.000 S 
ATOM     16  O   UNL     1       6.187   6.791  16.508  0.00  0.00    +0.000 OA
ATOM     17  O   UNL     1       7.753   5.030  17.409  0.00  0.00    +0.000 OA
BRANCH  15  19
ATOM     18  C   UNL     1       7.643   8.816  17.851  0.00  0.00    +0.000 C 
ATOM     19  C   UNL     1       8.039   7.544  18.028  0.00  0.00    +0.000 C 
BRANCH  18  23
ATOM     20  C   UNL     1       9.988  12.271  18.730  0.00  0.00    +0.000 A 
ATOM     21  C   UNL     1       8.980  12.311  17.768  0.00  0.00    +0.000 A 
ATOM     22  C   UNL     1       8.216  11.173  17.498  0.00  0.00    +0.000 A 
ATOM     23  C   UNL     1       8.474   9.969  18.168  0.00  0.00    +0.000 A 
ATOM     24  C   UNL     1       9.497   9.937  19.126  0.00  0.00    +0.000 A 
ATOM     25  C   UNL     1      10.256  11.077  19.398  0.00  0.00    +0.000 A 
BRANCH  20  27
ATOM     26  C   UNL     1      11.613  13.772  17.911  0.00  0.00    +0.000 C 
ATOM     27  O   UNL     1      10.663  13.445  18.921  0.00  0.00    +0.000 OA
ENDBRANCH  20  27
ENDBRANCH  18  23
ENDBRANCH  15  19
ENDBRANCH   1  15
TORSDOF 8
ENDMDL
MODEL 8
REMARK VINA RESULT:      -7.0      0.933      2.653
REMARK  Name = 
REMARK  12 active torsions:
REMARK  status: ('A' for Active; 'I' for Inactive)
REMARK    1  A    between atoms: C_1  and  O_2
REMARK    2  A    between atoms: O_2  and  C_3
REMARK    3  A    between atoms: C_6  and  C_7
REMARK    4  A    between atoms: C_8  and  S_9
REMARK    5  A    between atoms: S_9  and  N_12
REMARK    6  A    between atoms: N_12  and  C_13
REMARK    7  A    between atoms: C_14  and  O_15
REMARK    8  A    between atoms: O_15  and  C_16
REMARK    9  A    between atoms: C_18  and  O_19
REMARK   10  A    between atoms: O_19  and  C_20
REMARK   11  A    between atoms: C_22  and  O_23
REMARK   12  A    between atoms: O_23  and  C_24
REMARK                            x       y       z     vdW  Elec       q    Type
REMARK                         _______ _______ _______ _____ _____    ______ ____
ROOT
ATOM      1  N   UNL     1       5.767   6.400  18.397  0.00  0.00    +0.000 N 
ATOM      2  H   UNL     1       5.674   7.147  19.079  0.00  0.00    +0.000 HD
ENDROOT
BRANCH   1   3
ATOM      3  C   UNL     1       4.517   5.705  18.143  0.00  0.00    +0.000 A 
ATOM      4  C   UNL     1       4.530   4.402  17.581  0.00  0.00    +0.000 A 
ATOM      5  C   UNL     1       3.329   3.681  17.433  0.00  0.00    +0.000 A 
ATOM      6  C   UNL     1       2.110   4.186  17.849  0.00  0.00    +0.000 A 
ATOM      7  C   UNL     1       2.074   5.483  18.324  0.00  0.00    +0.000 A 
ATOM      8  C   UNL     1       3.248   6.263  18.447  0.00  0.00    +0.000 A 
BRANCH   4   9
ATOM      9  O   UNL     1       5.561   3.667  17.058  0.00  0.00    +0.000 OA
ATOM     10  C   UNL     1       5.812   3.641  15.673  0.00  0.00    +0.000 C 
ENDBRANCH   4   9
BRANCH   6  11
ATOM     11  O   UNL     1       1.025   3.375  17.678  0.00  0.00    +0.000 OA
ATOM     12  C   UNL     1       0.800   2.411  18.702  0.00  0.00    +0.000 C 
ENDBRANCH   6  11
BRANCH   8  13
ATOM     13  O   UNL     1       2.863   7.518  18.833  0.00  0.00    +0.000 OA
ATOM     14  C   UNL     1       2.333   8.461  17.938  0.00  0.00    +0.000 C 
ENDBRANCH   8  13
ENDBRANCH   1   3
BRANCH   1  15
ATOM     15  S   UNL     1       6.655   6.998  17.073  0.00  0.00    +0.000 S 
ATOM     16  O   UNL     1       5.687   7.214  16.019  0.00  0.00    +0.000 OA
ATOM     17  O   UNL     1       7.827   6.178  16.862  0.00  0.00    +0.000 OA
BRANCH  15  19
ATOM     18  C   UNL     1       8.343   8.801  18.089  0.00  0.00    +0.000 C 
ATOM     19  C   UNL     1       7.137   8.599  17.530  0.00  0.00    +0.000 C 
BRANCH  18  23
ATOM     20  C   UNL     1       9.813  12.565  19.460  0.00  0.00    +0.000 A 
ATOM     21  C   UNL     1       9.969  11.409  20.224  0.00  0.00    +0.000 A 
ATOM     22  C   UNL     1       9.489  10.184  19.756  0.00  0.00    +0.000 A 
ATOM     23  C   UNL     1       8.817  10.105  18.529  0.00  0.00    +0.000 A 
ATOM     24  C   UNL     1       8.656  11.275  17.774  0.00  0.00    +0.000 A 
ATOM     25  C   UNL     1       9.141  12.499  18.240  0.00  0.00    +0.000 A 
BRANCH  20  27
ATOM     26  C   UNL     1      10.031  13.910  21.384  0.00  0.00    +0.000 C 
ATOM     27  O   UNL     1      10.332  13.705  20.008  0.00  0.00    +0.000 OA
ENDBRANCH  20  27
ENDBRANCH  18  23
ENDBRANCH  15  19
ENDBRANCH   1  15
TORSDOF 8
ENDMDL
MODEL 9
REMARK VINA RESULT:      -7.0      5.244      7.542
REMARK  Name = 
REMARK  12 active torsions:
REMARK  status: ('A' for Active; 'I' for Inactive)
REMARK    1  A    between atoms: C_1  and  O_2
REMARK    2  A    between atoms: O_2  and  C_3
REMARK    3  A    between atoms: C_6  and  C_7
REMARK    4  A    between atoms: C_8  and  S_9
REMARK    5  A    between atoms: S_9  and  N_12
REMARK    6  A    between atoms: N_12  and  C_13
REMARK    7  A    between atoms: C_14  and  O_15
REMARK    8  A    between atoms: O_15  and  C_16
REMARK    9  A    between atoms: C_18  and  O_19
REMARK   10  A    between atoms: O_19  and  C_20
REMARK   11  A    between atoms: C_22  and  O_23
REMARK   12  A    between atoms: O_23  and  C_24
REMARK                            x       y       z     vdW  Elec       q    Type
REMARK                         _______ _______ _______ _____ _____    ______ ____
ROOT
ATOM      1  N   UNL     1       3.587   5.839  20.011  0.00  0.00    +0.000 N 
ATOM      2  H   UNL     1       4.175   5.743  20.833  0.00  0.00    +0.000 HD
ENDROOT
BRANCH   1   3
ATOM      3  C   UNL     1       4.255   5.442  18.784  0.00  0.00    +0.000 A 
ATOM      4  C   UNL     1       4.866   4.165  18.688  0.00  0.00    +0.000 A 
ATOM      5  C   UNL     1       5.421   3.733  17.468  0.00  0.00    +0.000 A 
ATOM      6  C   UNL     1       5.369   4.504  16.320  0.00  0.00    +0.000 A 
ATOM      7  C   UNL     1       4.847   5.780  16.420  0.00  0.00    +0.000 A 
ATOM      8  C   UNL     1       4.322   6.276  17.637  0.00  0.00    +0.000 A 
BRANCH   4   9
ATOM      9  O   UNL     1       5.092   3.211  19.645  0.00  0.00    +0.000 OA
ATOM     10  C   UNL     1       4.263   2.078  19.757  0.00  0.00    +0.000 C 
ENDBRANCH   4   9
BRANCH   6  11
ATOM     11  O   UNL     1       5.915   3.958  15.195  0.00  0.00    +0.000 OA
ATOM     12  C   UNL     1       6.774   4.809  14.443  0.00  0.00    +0.000 C 
ENDBRANCH   6  11
BRANCH   8  13
ATOM     13  O   UNL     1       3.995   7.589  17.433  0.00  0.00    +0.000 OA
ATOM     14  C   UNL     1       2.685   8.075  17.561  0.00  0.00    +0.000 C 
ENDBRANCH   8  13
ENDBRANCH   1   3
BRANCH   1  15
ATOM     15  S   UNL     1       2.063   5.169  20.367  0.00  0.00    +0.000 S 
ATOM     16  O   UNL     1       2.272   4.318  21.521  0.00  0.00    +0.000 OA
ATOM     17  O   UNL     1       1.459   4.658  19.157  0.00  0.00    +0.000 OA
BRANCH  15  19
ATOM     18  C   UNL     1       1.532   7.749  20.804  0.00  0.00    +0.000 C 
ATOM     19  C   UNL     1       1.116   6.483  20.984  0.00  0.00    +0.000 C 
BRANCH  18  23
ATOM     20  C   UNL     1      -0.559  11.102  22.413  0.00  0.00    +0.000 A 
ATOM     21  C   UNL     1      -0.505   9.890  23.100  0.00  0.00    +0.000 A 
ATOM     22  C   UNL     1       0.191   8.805  22.563  0.00  0.00    +0.000 A 
ATOM     23  C   UNL     1       0.816   8.910  21.313  0.00  0.00    +0.000 A 
ATOM     24  C   UNL     1       0.747  10.130  20.626  0.00  0.00    +0.000 A 
ATOM     25  C   UNL     1       0.055  11.216  21.167  0.00  0.00    +0.000 A 
BRANCH  20  27
ATOM     26  C   UNL     1      -2.560  12.345  22.521  0.00  0.00    +0.000 C 
ATOM     27  O   UNL     1      -1.256  12.099  23.037  0.00  0.00    +0.000 OA
ENDBRANCH  20  27
ENDBRANCH  18  23
ENDBRANCH  15  19
ENDBRANCH   1  15
TORSDOF 8
ENDMDL
