MODEL 1
REMARK VINA RESULT:      -6.2      0.000      0.000
REMARK  Name = 
REMARK  12 active torsions:
REMARK  status: ('A' for Active; 'I' for Inactive)
REMARK    1  A    between atoms: C_1  and  C_2
REMARK    2  A    between atoms: C_2  and  N_3
REMARK    3  A    between atoms: N_3  and  C_4
REMARK    4  A    between atoms: N_3  and  C_6
REMARK    5  A    between atoms: C_4  and  C_5
REMARK    6  A    between atoms: C_6  and  C_7
REMARK    7  A    between atoms: C_7  and  C_8
REMARK    8  A    between atoms: C_8  and  O_10
REMARK    9  A    between atoms: O_10  and  C_11
REMARK   10  A    between atoms: C_13  and  N_14
REMARK   11  A    between atoms: C_21  and  C_22
REMARK   12  A    between atoms: C_29  and  C_30
REMARK                            x       y       z     vdW  Elec       q    Type
REMARK                         _______ _______ _______ _____ _____    ______ ____
ROOT
ATOM      1  C   UNL     1       0.358  11.401  20.696  0.00  0.00    +0.000 C 
ATOM      2  C   UNL     1       1.277  12.543  20.228  0.00  0.00    +0.000 C 
ATOM      3  C   UNL     1       0.643  13.941  20.475  0.00  0.00    +0.000 C 
ATOM      4  C   UNL     1      -0.637  13.934  19.592  0.00  0.00    +0.000 C 
ATOM      5  C   UNL     1      -1.620  12.821  20.049  0.00  0.00    +0.000 C 
ATOM      6  C   UNL     1      -0.984  11.987  21.210  0.00  0.00    +0.000 C 
ATOM      7  C   UNL     1      -0.671  12.851  22.465  0.00  0.00    +0.000 C 
ATOM      8  C   UNL     1       0.154  14.075  21.967  0.00  0.00    +0.000 C 
ENDROOT
BRANCH   3   9
ATOM      9  N   UNL     1       1.484  15.128  20.158  0.00  0.00    +0.000 NA
ATOM     10  C   UNL     1       2.716  15.331  20.927  0.00  0.00    +0.000 C 
ATOM     11  C   UNL     1       3.931  14.556  20.413  0.00  0.00    +0.000 C 
ATOM     12  C   UNL     1       4.098  14.587  18.895  0.00  0.00    +0.000 C 
ATOM     13  C   UNL     1       2.793  14.614  18.100  0.00  0.00    +0.000 C 
ATOM     14  C   UNL     1       1.731  15.482  18.757  0.00  0.00    +0.000 C 
ENDBRANCH   3   9
BRANCH   5  15
ATOM     15  C   UNL     1      -3.024  13.328  20.303  0.00  0.00    +0.000 A 
ATOM     16  C   UNL     1      -4.113  12.449  20.145  0.00  0.00    +0.000 A 
ATOM     17  C   UNL     1      -5.418  12.878  20.406  0.00  0.00    +0.000 A 
ATOM     18  C   UNL     1      -5.658  14.188  20.812  0.00  0.00    +0.000 A 
ATOM     19  C   UNL     1      -4.603  15.079  20.945  0.00  0.00    +0.000 A 
ATOM     20  C   UNL     1      -3.300  14.641  20.693  0.00  0.00    +0.000 A 
ENDBRANCH   5  15
BRANCH   7  21
ATOM     21  C   UNL     1      -1.866  13.128  23.382  0.00  0.00    +0.000 A 
ATOM     22  C   UNL     1      -2.863  12.152  23.572  0.00  0.00    +0.000 A 
ATOM     23  C   UNL     1      -4.028  12.417  24.290  0.00  0.00    +0.000 A 
ATOM     24  C   UNL     1      -4.208  13.660  24.886  0.00  0.00    +0.000 A 
ATOM     25  C   UNL     1      -3.181  14.599  24.823  0.00  0.00    +0.000 A 
ATOM     26  C   UNL     1      -2.010  14.325  24.103  0.00  0.00    +0.000 A 
ENDBRANCH   7  21
BRANCH   1  27
ATOM     27  O   UNL     1       1.025  10.647  21.743  0.00  0.00    +0.000 OA
BRANCH  27  28
ATOM     28  C   UNL     1       0.389   9.518  22.177  0.00  0.00    +0.000 C 
ATOM     29  O   UNL     1      -0.191   9.416  23.250  0.00  0.00    +0.000 OA
BRANCH  28  30
ATOM     30  C   UNL     1       0.456   8.416  21.143  0.00  0.00    +0.000 C 
BRANCH  30  31
ATOM     31  C   UNL     1       1.870   8.366  20.554  0.00  0.00    +0.000 C 
BRANCH  31  32
ATOM     32  N   UNL     1       2.292   7.072  19.966  0.00  0.00    +0.000 NA
BRANCH  32  34
ATOM     33  C   UNL     1       2.220   4.719  20.933  0.00  0.00    +0.000 C 
ATOM     34  C   UNL     1       1.466   5.989  20.546  0.00  0.00    +0.000 C 
ENDBRANCH  32  34
BRANCH  32  35
ATOM     35  C   UNL     1       2.323   7.061  18.496  0.00  0.00    +0.000 C 
ATOM     36  C   UNL     1       2.416   8.428  17.825  0.00  0.00    +0.000 C 
ENDBRANCH  32  35
ENDBRANCH  31  32
ENDBRANCH  30  31
ENDBRANCH  28  30
ENDBRANCH  27  28
ENDBRANCH   1  27
TORSDOF 10
ENDMDL
MODEL 2
REMARK VINA RESULT:      -6.1      0.401      1.756
REMARK  Name = 
REMARK  12 active torsions:
REMARK  status: ('A' for Active; 'I' for Inactive)
REMARK    1  A    between atoms: C_1  and  C_2
REMARK    2  A    between atoms: C_2  and  N_3
REMARK    3  A    between atoms: N_3  and  C_4
REMARK    4  A    between atoms: N_3  and  C_6
REMARK    5  A    between atoms: C_4  and  C_5
REMARK    6  A    between atoms: C_6  and  C_7
REMARK    7  A    between atoms: C_7  and  C_8
REMARK    8  A    between atoms: C_8  and  O_10
REMARK    9  A    between atoms: O_10  and  C_11
REMARK   10  A    between atoms: C_13  and  N_14
REMARK   11  A    between atoms: C_21  and  C_22
REMARK   12  A    between atoms: C_29  and  C_30
REMARK                            x       y       z     vdW  Elec       q    Type
REMARK                         _______ _______ _______ _____ _____    ______ ____
ROOT
ATOM      1  C   UNL     1       0.453  11.413  20.660  0.00  0.00    +0.000 C 
ATOM      2  C   UNL     1       1.351  12.573  20.195  0.00  0.00    +0.000 C 
ATOM      3  C   UNL     1       0.679  13.957  20.415  0.00  0.00    +0.000 C 
ATOM      4  C   UNL     1      -0.585  13.908  19.510  0.00  0.00    +0.000 C 
ATOM      5  C   UNL     1      -1.547  12.777  19.963  0.00  0.00    +0.000 C 
ATOM      6  C   UNL     1      -0.912  11.971  21.144  0.00  0.00    +0.000 C 
ATOM      7  C   UNL     1      -0.642  12.856  22.394  0.00  0.00    +0.000 C 
ATOM      8  C   UNL     1       0.161  14.095  21.896  0.00  0.00    +0.000 C 
ENDROOT
BRANCH   3   9
ATOM      9  N   UNL     1       1.496  15.161  20.099  0.00  0.00    +0.000 NA
ATOM     10  C   UNL     1       2.602  15.504  20.998  0.00  0.00    +0.000 C 
ATOM     11  C   UNL     1       3.912  14.763  20.720  0.00  0.00    +0.000 C 
ATOM     12  C   UNL     1       4.279  14.673  19.241  0.00  0.00    +0.000 C 
ATOM     13  C   UNL     1       3.093  14.551  18.285  0.00  0.00    +0.000 C 
ATOM     14  C   UNL     1       1.910  15.407  18.715  0.00  0.00    +0.000 C 
ENDBRANCH   3   9
BRANCH   5  15
ATOM     15  C   UNL     1      -2.968  13.251  20.186  0.00  0.00    +0.000 A 
ATOM     16  C   UNL     1      -3.195  14.584  20.581  0.00  0.00    +0.000 A 
ATOM     17  C   UNL     1      -4.497  15.061  20.761  0.00  0.00    +0.000 A 
ATOM     18  C   UNL     1      -5.587  14.217  20.566  0.00  0.00    +0.000 A 
ATOM     19  C   UNL     1      -5.385  12.892  20.206  0.00  0.00    +0.000 A 
ATOM     20  C   UNL     1      -4.081  12.424  20.017  0.00  0.00    +0.000 A 
ENDBRANCH   5  15
BRANCH   7  21
ATOM     21  C   UNL     1      -1.860  13.113  23.287  0.00  0.00    +0.000 A 
ATOM     22  C   UNL     1      -2.008  14.340  23.961  0.00  0.00    +0.000 A 
ATOM     23  C   UNL     1      -3.030  14.557  24.883  0.00  0.00    +0.000 A 
ATOM     24  C   UNL     1      -3.971  13.563  25.123  0.00  0.00    +0.000 A 
ATOM     25  C   UNL     1      -3.924  12.388  24.376  0.00  0.00    +0.000 A 
ATOM     26  C   UNL     1      -2.896  12.177  23.446  0.00  0.00    +0.000 A 
ENDBRANCH   7  21
BRANCH   1  27
ATOM     27  O   UNL     1       1.120  10.688  21.727  0.00  0.00    +0.000 OA
BRANCH  27  28
ATOM     28  C   UNL     1       0.519   9.534  22.143  0.00  0.00    +0.000 C 
ATOM     29  O   UNL     1       0.114   9.333  23.281  0.00  0.00    +0.000 OA
BRANCH  28  30
ATOM     30  C   UNL     1       0.377   8.545  21.008  0.00  0.00    +0.000 C 
BRANCH  30  31
ATOM     31  C   UNL     1       1.760   7.988  20.651  0.00  0.00    +0.000 C 
BRANCH  31  32
ATOM     32  N   UNL     1       1.859   7.247  19.371  0.00  0.00    +0.000 NA
BRANCH  32  34
ATOM     33  C   UNL     1       1.786   9.289  17.855  0.00  0.00    +0.000 C 
ATOM     34  C   UNL     1       2.569   8.088  18.382  0.00  0.00    +0.000 C 
ENDBRANCH  32  34
BRANCH  32  35
ATOM     35  C   UNL     1       2.423   5.895  19.503  0.00  0.00    +0.000 C 
ATOM     36  C   UNL     1       1.986   5.111  20.737  0.00  0.00    +0.000 C 
ENDBRANCH  32  35
ENDBRANCH  31  32
ENDBRANCH  30  31
ENDBRANCH  28  30
ENDBRANCH  27  28
ENDBRANCH   1  27
TORSDOF 10
ENDMDL
MODEL 3
REMARK VINA RESULT:      -6.0      0.944      1.410
REMARK  Name = 
REMARK  12 active torsions:
REMARK  status: ('A' for Active; 'I' for Inactive)
REMARK    1  A    between atoms: C_1  and  C_2
REMARK    2  A    between atoms: C_2  and  N_3
REMARK    3  A    between atoms: N_3  and  C_4
REMARK    4  A    between atoms: N_3  and  C_6
REMARK    5  A    between atoms: C_4  and  C_5
REMARK    6  A    between atoms: C_6  and  C_7
REMARK    7  A    between atoms: C_7  and  C_8
REMARK    8  A    between atoms: C_8  and  O_10
REMARK    9  A    between atoms: O_10  and  C_11
REMARK   10  A    between atoms: C_13  and  N_14
REMARK   11  A    between atoms: C_21  and  C_22
REMARK   12  A    between atoms: C_29  and  C_30
REMARK                            x       y       z     vdW  Elec       q    Type
REMARK                         _______ _______ _______ _____ _____    ______ ____
ROOT
ATOM      1  C   UNL     1       0.081  10.869  20.360  0.00  0.00    +0.000 C 
ATOM      2  C   UNL     1       1.121  11.860  19.811  0.00  0.00    +0.000 C 
ATOM      3  C   UNL     1       0.719  13.337  20.077  0.00  0.00    +0.000 C 
ATOM      4  C   UNL     1      -0.608  13.514  19.285  0.00  0.00    +0.000 C 
ATOM      5  C   UNL     1      -1.708  12.562  19.828  0.00  0.00    +0.000 C 
ATOM      6  C   UNL     1      -1.121  11.651  20.956  0.00  0.00    +0.000 C 
ATOM      7  C   UNL     1      -0.596  12.467  22.172  0.00  0.00    +0.000 C 
ATOM      8  C   UNL     1       0.362  13.552  21.596  0.00  0.00    +0.000 C 
ENDROOT
BRANCH   3   9
ATOM      9  N   UNL     1       1.701  14.385  19.682  0.00  0.00    +0.000 NA
ATOM     10  C   UNL     1       1.433  15.771  20.079  0.00  0.00    +0.000 C 
ATOM     11  C   UNL     1       1.883  16.135  21.495  0.00  0.00    +0.000 C 
ATOM     12  C   UNL     1       3.267  15.608  21.867  0.00  0.00    +0.000 C 
ATOM     13  C   UNL     1       3.633  14.257  21.252  0.00  0.00    +0.000 C 
ATOM     14  C   UNL     1       3.135  14.117  19.821  0.00  0.00    +0.000 C 
ENDBRANCH   3   9
BRANCH   5  15
ATOM     15  C   UNL     1      -3.001  13.273  20.170  0.00  0.00    +0.000 A 
ATOM     16  C   UNL     1      -4.222  12.581  20.044  0.00  0.00    +0.000 A 
ATOM     17  C   UNL     1      -5.428  13.199  20.386  0.00  0.00    +0.000 A 
ATOM     18  C   UNL     1      -5.439  14.514  20.842  0.00  0.00    +0.000 A 
ATOM     19  C   UNL     1      -4.251  15.224  20.945  0.00  0.00    +0.000 A 
ATOM     20  C   UNL     1      -3.047  14.597  20.612  0.00  0.00    +0.000 A 
ENDBRANCH   5  15
BRANCH   7  21
ATOM     21  C   UNL     1      -1.669  12.923  23.164  0.00  0.00    +0.000 A 
ATOM     22  C   UNL     1      -2.805  12.127  23.406  0.00  0.00    +0.000 A 
ATOM     23  C   UNL     1      -3.862  12.571  24.199  0.00  0.00    +0.000 A 
ATOM     24  C   UNL     1      -3.791  13.814  24.817  0.00  0.00    +0.000 A 
ATOM     25  C   UNL     1      -2.625  14.566  24.701  0.00  0.00    +0.000 A 
ATOM     26  C   UNL     1      -1.563  14.112  23.906  0.00  0.00    +0.000 A 
ENDBRANCH   7  21
BRANCH   1  27
ATOM     27  O   UNL     1       0.702  10.032  21.372  0.00  0.00    +0.000 OA
BRANCH  27  28
ATOM     28  C   UNL     1       0.551   8.683  21.218  0.00  0.00    +0.000 C 
ATOM     29  O   UNL     1      -0.432   8.048  21.578  0.00  0.00    +0.000 OA
BRANCH  28  30
ATOM     30  C   UNL     1       1.739   8.072  20.508  0.00  0.00    +0.000 C 
BRANCH  30  31
ATOM     31  C   UNL     1       1.610   6.545  20.537  0.00  0.00    +0.000 C 
BRANCH  31  32
ATOM     32  N   UNL     1       2.648   5.784  19.800  0.00  0.00    +0.000 NA
BRANCH  32  34
ATOM     33  C   UNL     1       1.149   3.907  20.639  0.00  0.00    +0.000 C 
ATOM     34  C   UNL     1       2.522   4.349  20.138  0.00  0.00    +0.000 C 
ENDBRANCH  32  34
BRANCH  32  35
ATOM     35  C   UNL     1       2.670   6.046  18.353  0.00  0.00    +0.000 C 
ATOM     36  C   UNL     1       4.052   6.095  17.709  0.00  0.00    +0.000 C 
ENDBRANCH  32  35
ENDBRANCH  31  32
ENDBRANCH  30  31
ENDBRANCH  28  30
ENDBRANCH  27  28
ENDBRANCH   1  27
TORSDOF 10
ENDMDL
MODEL 4
REMARK VINA RESULT:      -6.0      2.167      4.860
REMARK  Name = 
REMARK  12 active torsions:
REMARK  status: ('A' for Active; 'I' for Inactive)
REMARK    1  A    between atoms: C_1  and  C_2
REMARK    2  A    between atoms: C_2  and  N_3
REMARK    3  A    between atoms: N_3  and  C_4
REMARK    4  A    between atoms: N_3  and  C_6
REMARK    5  A    between atoms: C_4  and  C_5
REMARK    6  A    between atoms: C_6  and  C_7
REMARK    7  A    between atoms: C_7  and  C_8
REMARK    8  A    between atoms: C_8  and  O_10
REMARK    9  A    between atoms: O_10  and  C_11
REMARK   10  A    between atoms: C_13  and  N_14
REMARK   11  A    between atoms: C_21  and  C_22
REMARK   12  A    between atoms: C_29  and  C_30
REMARK                            x       y       z     vdW  Elec       q    Type
REMARK                         _______ _______ _______ _____ _____    ______ ____
ROOT
ATOM      1  C   UNL     1      -0.327  10.700  20.878  0.00  0.00    +0.000 C 
ATOM      2  C   UNL     1      -1.283  10.579  19.679  0.00  0.00    +0.000 C 
ATOM      3  C   UNL     1      -1.637  11.965  19.072  0.00  0.00    +0.000 C 
ATOM      4  C   UNL     1      -2.373  12.703  20.227  0.00  0.00    +0.000 C 
ATOM      5  C   UNL     1      -1.436  12.888  21.452  0.00  0.00    +0.000 C 
ATOM      6  C   UNL     1      -0.058  12.198  21.183  0.00  0.00    +0.000 C 
ATOM      7  C   UNL     1       0.684  12.803  19.956  0.00  0.00    +0.000 C 
ATOM      8  C   UNL     1      -0.332  12.794  18.775  0.00  0.00    +0.000 C 
ENDROOT
BRANCH   3   9
ATOM      9  N   UNL     1      -2.475  11.968  17.840  0.00  0.00    +0.000 NA
ATOM     10  C   UNL     1      -1.993  11.224  16.673  0.00  0.00    +0.000 C 
ATOM     11  C   UNL     1      -2.324   9.730  16.679  0.00  0.00    +0.000 C 
ATOM     12  C   UNL     1      -3.752   9.407  17.114  0.00  0.00    +0.000 C 
ATOM     13  C   UNL     1      -4.335  10.342  18.173  0.00  0.00    +0.000 C 
ATOM     14  C   UNL     1      -3.925  11.791  17.956  0.00  0.00    +0.000 C 
ENDBRANCH   3   9
BRANCH   5  15
ATOM     15  C   UNL     1      -1.365  14.319  21.942  0.00  0.00    +0.000 A 
ATOM     16  C   UNL     1      -1.930  15.345  21.159  0.00  0.00    +0.000 A 
ATOM     17  C   UNL     1      -1.911  16.671  21.602  0.00  0.00    +0.000 A 
ATOM     18  C   UNL     1      -1.319  16.995  22.820  0.00  0.00    +0.000 A 
ATOM     19  C   UNL     1      -0.730  16.005  23.593  0.00  0.00    +0.000 A 
ATOM     20  C   UNL     1      -0.762  14.680  23.149  0.00  0.00    +0.000 A 
ENDBRANCH   5  15
BRANCH   7  21
ATOM     21  C   UNL     1       1.443  14.105  20.230  0.00  0.00    +0.000 A 
ATOM     22  C   UNL     1       2.372  14.184  21.285  0.00  0.00    +0.000 A 
ATOM     23  C   UNL     1       2.979  15.386  21.644  0.00  0.00    +0.000 A 
ATOM     24  C   UNL     1       2.710  16.543  20.923  0.00  0.00    +0.000 A 
ATOM     25  C   UNL     1       1.895  16.467  19.795  0.00  0.00    +0.000 A 
ATOM     26  C   UNL     1       1.291  15.254  19.435  0.00  0.00    +0.000 A 
ENDBRANCH   7  21
BRANCH   1  27
ATOM     27  O   UNL     1       0.913  10.007  20.575  0.00  0.00    +0.000 OA
BRANCH  27  28
ATOM     28  C   UNL     1       1.354   9.115  21.512  0.00  0.00    +0.000 C 
ATOM     29  O   UNL     1       1.838   9.426  22.592  0.00  0.00    +0.000 OA
BRANCH  28  30
ATOM     30  C   UNL     1       1.131   7.688  21.063  0.00  0.00    +0.000 C 
BRANCH  30  31
ATOM     31  C   UNL     1       2.160   7.335  19.983  0.00  0.00    +0.000 C 
BRANCH  31  32
ATOM     32  N   UNL     1       2.385   5.890  19.738  0.00  0.00    +0.000 NA
BRANCH  32  34
ATOM     33  C   UNL     1       1.340   3.627  20.250  0.00  0.00    +0.000 C 
ATOM     34  C   UNL     1       1.469   5.108  20.598  0.00  0.00    +0.000 C 
ENDBRANCH  32  34
BRANCH  32  35
ATOM     35  C   UNL     1       2.328   5.506  18.319  0.00  0.00    +0.000 C 
ATOM     36  C   UNL     1       3.662   5.131  17.680  0.00  0.00    +0.000 C 
ENDBRANCH  32  35
ENDBRANCH  31  32
ENDBRANCH  30  31
ENDBRANCH  28  30
ENDBRANCH  27  28
ENDBRANCH   1  27
TORSDOF 10
ENDMDL
MODEL 5
REMARK VINA RESULT:      -6.0      1.047      1.869
REMARK  Name = 
REMARK  12 active torsions:
REMARK  status: ('A' for Active; 'I' for Inactive)
REMARK    1  A    between atoms: C_1  and  C_2
REMARK    2  A    between atoms: C_2  and  N_3
REMARK    3  A    between atoms: N_3  and  C_4
REMARK    4  A    between atoms: N_3  and  C_6
REMARK    5  A    between atoms: C_4  and  C_5
REMARK    6  A    between atoms: C_6  and  C_7
REMARK    7  A    between atoms: C_7  and  C_8
REMARK    8  A    between atoms: C_8  and  O_10
REMARK    9  A    between atoms: O_10  and  C_11
REMARK   10  A    between atoms: C_13  and  N_14
REMARK   11  A    between atoms: C_21  and  C_22
REMARK   12  A    between atoms: C_29  and  C_30
REMARK                            x       y       z     vdW  Elec       q    Type
REMARK                         _______ _______ _______ _____ _____    ______ ____
ROOT
ATOM      1  C   UNL     1       0.314  11.059  20.405  0.00  0.00    +0.000 C 
ATOM      2  C   UNL     1       1.336  12.113  19.946  0.00  0.00    +0.000 C 
ATOM      3  C   UNL     1       0.861  13.560  20.251  0.00  0.00    +0.000 C 
ATOM      4  C   UNL     1      -0.435  13.716  19.404  0.00  0.00    +0.000 C 
ATOM      5  C   UNL     1      -1.518  12.699  19.855  0.00  0.00    +0.000 C 
ATOM      6  C   UNL     1      -0.946  11.766  20.973  0.00  0.00    +0.000 C 
ATOM      7  C   UNL     1      -0.512  12.553  22.244  0.00  0.00    +0.000 C 
ATOM      8  C   UNL     1       0.425  13.698  21.758  0.00  0.00    +0.000 C 
ENDROOT
BRANCH   3   9
ATOM      9  N   UNL     1       1.814  14.663  19.945  0.00  0.00    +0.000 NA
ATOM     10  C   UNL     1       1.691  15.348  18.655  0.00  0.00    +0.000 C 
ATOM     11  C   UNL     1       0.656  16.474  18.619  0.00  0.00    +0.000 C 
ATOM     12  C   UNL     1       0.682  17.388  19.842  0.00  0.00    +0.000 C 
ATOM     13  C   UNL     1       1.046  16.701  21.158  0.00  0.00    +0.000 C 
ATOM     14  C   UNL     1       2.131  15.649  20.982  0.00  0.00    +0.000 C 
ENDBRANCH   3   9
BRANCH   5  15
ATOM     15  C   UNL     1      -2.854  13.342  20.162  0.00  0.00    +0.000 A 
ATOM     16  C   UNL     1      -2.892  14.690  20.571  0.00  0.00    +0.000 A 
ATOM     17  C   UNL     1      -4.113  15.321  20.828  0.00  0.00    +0.000 A 
ATOM     18  C   UNL     1      -5.308  14.619  20.696  0.00  0.00    +0.000 A 
ATOM     19  C   UNL     1      -5.292  13.282  20.323  0.00  0.00    +0.000 A 
ATOM     20  C   UNL     1      -4.068  12.660  20.058  0.00  0.00    +0.000 A 
ENDBRANCH   5  15
BRANCH   7  21
ATOM     21  C   UNL     1      -1.648  12.923  23.201  0.00  0.00    +0.000 A 
ATOM     22  C   UNL     1      -2.713  12.031  23.429  0.00  0.00    +0.000 A 
ATOM     23  C   UNL     1      -3.826  12.388  24.187  0.00  0.00    +0.000 A 
ATOM     24  C   UNL     1      -3.886  13.641  24.784  0.00  0.00    +0.000 A 
ATOM     25  C   UNL     1      -2.791  14.496  24.683  0.00  0.00    +0.000 A 
ATOM     26  C   UNL     1      -1.671  14.129  23.923  0.00  0.00    +0.000 A 
ENDBRANCH   7  21
BRANCH   1  27
ATOM     27  O   UNL     1       0.923  10.207  21.411  0.00  0.00    +0.000 OA
BRANCH  27  28
ATOM     28  C   UNL     1       0.554   8.891  21.396  0.00  0.00    +0.000 C 
ATOM     29  O   UNL     1      -0.515   8.465  21.815  0.00  0.00    +0.000 OA
BRANCH  28  30
ATOM     30  C   UNL     1       1.617   8.027  20.757  0.00  0.00    +0.000 C 
BRANCH  30  31
ATOM     31  C   UNL     1       1.105   6.585  20.667  0.00  0.00    +0.000 C 
BRANCH  31  32
ATOM     32  N   UNL     1       2.137   5.520  20.674  0.00  0.00    +0.000 NA
BRANCH  32  34
ATOM     33  C   UNL     1       2.230   3.129  21.540  0.00  0.00    +0.000 C 
ATOM     34  C   UNL     1       1.468   4.204  20.767  0.00  0.00    +0.000 C 
ENDBRANCH  32  34
BRANCH  32  35
ATOM     35  C   UNL     1       3.101   5.611  19.567  0.00  0.00    +0.000 C 
ATOM     36  C   UNL     1       2.568   5.228  18.190  0.00  0.00    +0.000 C 
ENDBRANCH  32  35
ENDBRANCH  31  32
ENDBRANCH  30  31
ENDBRANCH  28  30
ENDBRANCH  27  28
ENDBRANCH   1  27
TORSDOF 10
ENDMDL
MODEL 6
REMARK VINA RESULT:      -6.0      2.780      6.457
REMARK  Name = 
REMARK  12 active torsions:
REMARK  status: ('A' for Active; 'I' for Inactive)
REMARK    1  A    between atoms: C_1  and  C_2
REMARK    2  A    between atoms: C_2  and  N_3
REMARK    3  A    between atoms: N_3  and  C_4
REMARK    4  A    between atoms: N_3  and  C_6
REMARK    5  A    between atoms: C_4  and  C_5
REMARK    6  A    between atoms: C_6  and  C_7
REMARK    7  A    between atoms: C_7  and  C_8
REMARK    8  A    between atoms: C_8  and  O_10
REMARK    9  A    between atoms: O_10  and  C_11
REMARK   10  A    between atoms: C_13  and  N_14
REMARK   11  A    between atoms: C_21  and  C_22
REMARK   12  A    between atoms: C_29  and  C_30
REMARK                            x       y       z     vdW  Elec       q    Type
REMARK                         _______ _______ _______ _____ _____    ______ ____
ROOT
ATOM      1  C   UNL     1      -2.464  12.487  23.211  0.00  0.00    +0.000 C 
ATOM      2  C   UNL     1      -3.959  12.645  22.885  0.00  0.00    +0.000 C 
ATOM      3  C   UNL     1      -4.406  14.134  22.898  0.00  0.00    +0.000 C 
ATOM      4  C   UNL     1      -4.163  14.586  24.367  0.00  0.00    +0.000 C 
ATOM      5  C   UNL     1      -2.658  14.484  24.736  0.00  0.00    +0.000 C 
ATOM      6  C   UNL     1      -1.852  13.875  23.542  0.00  0.00    +0.000 C 
ATOM      7  C   UNL     1      -1.939  14.747  22.256  0.00  0.00    +0.000 C 
ATOM      8  C   UNL     1      -3.453  15.010  22.001  0.00  0.00    +0.000 C 
ENDROOT
BRANCH   3   9
ATOM      9  N   UNL     1      -5.811  14.420  22.495  0.00  0.00    +0.000 NA
ATOM     10  C   UNL     1      -6.372  13.676  21.364  0.00  0.00    +0.000 C 
ATOM     11  C   UNL     1      -6.942  12.300  21.717  0.00  0.00    +0.000 C 
ATOM     12  C   UNL     1      -7.782  12.279  22.992  0.00  0.00    +0.000 C 
ATOM     13  C   UNL     1      -7.322  13.240  24.087  0.00  0.00    +0.000 C 
ATOM     14  C   UNL     1      -6.840  14.570  23.527  0.00  0.00    +0.000 C 
ENDBRANCH   3   9
BRANCH   5  15
ATOM     15  C   UNL     1      -2.095  15.763  25.319  0.00  0.00    +0.000 A 
ATOM     16  C   UNL     1      -2.806  16.968  25.151  0.00  0.00    +0.000 A 
ATOM     17  C   UNL     1      -2.329  18.158  25.708  0.00  0.00    +0.000 A 
ATOM     18  C   UNL     1      -1.136  18.170  26.425  0.00  0.00    +0.000 A 
ATOM     19  C   UNL     1      -0.404  17.000  26.577  0.00  0.00    +0.000 A 
ATOM     20  C   UNL     1      -0.892  15.811  26.027  0.00  0.00    +0.000 A 
ENDBRANCH   5  15
BRANCH   7  21
ATOM     21  C   UNL     1      -0.994  15.951  22.218  0.00  0.00    +0.000 A 
ATOM     22  C   UNL     1      -1.467  17.222  21.838  0.00  0.00    +0.000 A 
ATOM     23  C   UNL     1      -0.610  18.306  21.665  0.00  0.00    +0.000 A 
ATOM     24  C   UNL     1       0.749  18.165  21.916  0.00  0.00    +0.000 A 
ATOM     25  C   UNL     1       1.225  16.955  22.418  0.00  0.00    +0.000 A 
ATOM     26  C   UNL     1       0.358  15.869  22.595  0.00  0.00    +0.000 A 
ENDBRANCH   7  21
BRANCH   1  27
ATOM     27  O   UNL     1      -1.787  11.883  22.077  0.00  0.00    +0.000 OA
BRANCH  27  28
ATOM     28  C   UNL     1      -0.831  10.950  22.368  0.00  0.00    +0.000 C 
ATOM     29  O   UNL     1      -0.474  10.652  23.500  0.00  0.00    +0.000 OA
BRANCH  28  30
ATOM     30  C   UNL     1      -0.296  10.299  21.113  0.00  0.00    +0.000 C 
BRANCH  30  31
ATOM     31  C   UNL     1       0.891  11.116  20.590  0.00  0.00    +0.000 C 
BRANCH  31  32
ATOM     32  N   UNL     1       0.953  11.319  19.123  0.00  0.00    +0.000 NA
BRANCH  32  34
ATOM     33  C   UNL     1       1.791   9.270  17.868  0.00  0.00    +0.000 C 
ATOM     34  C   UNL     1       0.611  10.048  18.447  0.00  0.00    +0.000 C 
ENDBRANCH  32  34
BRANCH  32  35
ATOM     35  C   UNL     1       0.171  12.468  18.642  0.00  0.00    +0.000 C 
ATOM     36  C   UNL     1       0.300  13.748  19.462  0.00  0.00    +0.000 C 
ENDBRANCH  32  35
ENDBRANCH  31  32
ENDBRANCH  30  31
ENDBRANCH  28  30
ENDBRANCH  27  28
ENDBRANCH   1  27
TORSDOF 10
ENDMDL
MODEL 7
REMARK VINA RESULT:      -5.9      6.187     10.827
REMARK  Name = 
REMARK  12 active torsions:
REMARK  status: ('A' for Active; 'I' for Inactive)
REMARK    1  A    between atoms: C_1  and  C_2
REMARK    2  A    between atoms: C_2  and  N_3
REMARK    3  A    between atoms: N_3  and  C_4
REMARK    4  A    between atoms: N_3  and  C_6
REMARK    5  A    between atoms: C_4  and  C_5
REMARK    6  A    between atoms: C_6  and  C_7
REMARK    7  A    between atoms: C_7  and  C_8
REMARK    8  A    between atoms: C_8  and  O_10
REMARK    9  A    between atoms: O_10  and  C_11
REMARK   10  A    between atoms: C_13  and  N_14
REMARK   11  A    between atoms: C_21  and  C_22
REMARK   12  A    between atoms: C_29  and  C_30
REMARK                            x       y       z     vdW  Elec       q    Type
REMARK                         _______ _______ _______ _____ _____    ______ ____
ROOT
ATOM      1  C   UNL     1       7.230  15.944  21.585  0.00  0.00    +0.000 C 
ATOM      2  C   UNL     1       5.986  16.145  20.703  0.00  0.00    +0.000 C 
ATOM      3  C   UNL     1       6.258  15.781  19.217  0.00  0.00    +0.000 C 
ATOM      4  C   UNL     1       7.352  16.795  18.777  0.00  0.00    +0.000 C 
ATOM      5  C   UNL     1       8.649  16.608  19.611  0.00  0.00    +0.000 C 
ATOM      6  C   UNL     1       8.431  15.508  20.703  0.00  0.00    +0.000 C 
ATOM      7  C   UNL     1       8.087  14.120  20.091  0.00  0.00    +0.000 C 
ATOM      8  C   UNL     1       6.906  14.350  19.102  0.00  0.00    +0.000 C 
ENDROOT
BRANCH   3   9
ATOM      9  N   UNL     1       5.097  15.837  18.285  0.00  0.00    +0.000 NA
ATOM     10  C   UNL     1       4.426  14.580  17.938  0.00  0.00    +0.000 C 
ATOM     11  C   UNL     1       3.370  14.115  18.942  0.00  0.00    +0.000 C 
ATOM     12  C   UNL     1       2.452  15.226  19.445  0.00  0.00    +0.000 C 
ATOM     13  C   UNL     1       3.109  16.599  19.581  0.00  0.00    +0.000 C 
ATOM     14  C   UNL     1       4.089  16.887  18.453  0.00  0.00    +0.000 C 
ENDBRANCH   3   9
BRANCH   5  15
ATOM     15  C   UNL     1       9.891  16.447  18.761  0.00  0.00    +0.000 A 
ATOM     16  C   UNL     1      11.157  16.484  19.378  0.00  0.00    +0.000 A 
ATOM     17  C   UNL     1      12.321  16.302  18.625  0.00  0.00    +0.000 A 
ATOM     18  C   UNL     1      12.243  16.098  17.250  0.00  0.00    +0.000 A 
ATOM     19  C   UNL     1      11.008  16.088  16.617  0.00  0.00    +0.000 A 
ATOM     20  C   UNL     1       9.847  16.259  17.378  0.00  0.00    +0.000 A 
ENDBRANCH   5  15
BRANCH   7  21
ATOM     21  C   UNL     1       9.287  13.314  19.587  0.00  0.00    +0.000 A 
ATOM     22  C   UNL     1      10.365  13.020  20.445  0.00  0.00    +0.000 A 
ATOM     23  C   UNL     1      11.529  12.407  19.985  0.00  0.00    +0.000 A 
ATOM     24  C   UNL     1      11.631  12.022  18.653  0.00  0.00    +0.000 A 
ATOM     25  C   UNL     1      10.531  12.182  17.813  0.00  0.00    +0.000 A 
ATOM     26  C   UNL     1       9.361  12.795  18.283  0.00  0.00    +0.000 A 
ENDBRANCH   7  21
BRANCH   1  27
ATOM     27  O   UNL     1       6.944  14.941  22.596  0.00  0.00    +0.000 OA
BRANCH  27  28
ATOM     28  C   UNL     1       6.879  15.384  23.887  0.00  0.00    +0.000 C 
ATOM     29  O   UNL     1       7.524  16.323  24.333  0.00  0.00    +0.000 OA
BRANCH  28  30
ATOM     30  C   UNL     1       5.873  14.591  24.692  0.00  0.00    +0.000 C 
BRANCH  30  31
ATOM     31  C   UNL     1       5.955  13.116  24.283  0.00  0.00    +0.000 C 
BRANCH  31  32
ATOM     32  N   UNL     1       6.809  12.246  25.128  0.00  0.00    +0.000 NA
BRANCH  32  34
ATOM     33  C   UNL     1       5.040  11.195  26.625  0.00  0.00    +0.000 C 
ATOM     34  C   UNL     1       6.047  11.030  25.489  0.00  0.00    +0.000 C 
ENDBRANCH  32  34
BRANCH  32  35
ATOM     35  C   UNL     1       8.131  11.961  24.552  0.00  0.00    +0.000 C 
ATOM     36  C   UNL     1       8.145  11.606  23.068  0.00  0.00    +0.000 C 
ENDBRANCH  32  35
ENDBRANCH  31  32
ENDBRANCH  30  31
ENDBRANCH  28  30
ENDBRANCH  27  28
ENDBRANCH   1  27
TORSDOF 10
ENDMDL
MODEL 8
REMARK VINA RESULT:      -5.9      6.740     11.266
REMARK  Name = 
REMARK  12 active torsions:
REMARK  status: ('A' for Active; 'I' for Inactive)
REMARK    1  A    between atoms: C_1  and  C_2
REMARK    2  A    between atoms: C_2  and  N_3
REMARK    3  A    between atoms: N_3  and  C_4
REMARK    4  A    between atoms: N_3  and  C_6
REMARK    5  A    between atoms: C_4  and  C_5
REMARK    6  A    between atoms: C_6  and  C_7
REMARK    7  A    between atoms: C_7  and  C_8
REMARK    8  A    between atoms: C_8  and  O_10
REMARK    9  A    between atoms: O_10  and  C_11
REMARK   10  A    between atoms: C_13  and  N_14
REMARK   11  A    between atoms: C_21  and  C_22
REMARK   12  A    between atoms: C_29  and  C_30
REMARK                            x       y       z     vdW  Elec       q    Type
REMARK                         _______ _______ _______ _____ _____    ______ ____
ROOT
ATOM      1  C   UNL     1       6.389  13.989  21.944  0.00  0.00    +0.000 C 
ATOM      2  C   UNL     1       6.843  13.905  23.411  0.00  0.00    +0.000 C 
ATOM      3  C   UNL     1       8.391  13.870  23.543  0.00  0.00    +0.000 C 
ATOM      4  C   UNL     1       8.800  12.557  22.816  0.00  0.00    +0.000 C 
ATOM      5  C   UNL     1       8.400  12.606  21.317  0.00  0.00    +0.000 C 
ATOM      6  C   UNL     1       7.628  13.932  21.010  0.00  0.00    +0.000 C 
ATOM      7  C   UNL     1       8.486  15.200  21.286  0.00  0.00    +0.000 C 
ATOM      8  C   UNL     1       9.047  15.050  22.731  0.00  0.00    +0.000 C 
ENDROOT
BRANCH   3   9
ATOM      9  N   UNL     1       8.951  13.893  24.923  0.00  0.00    +0.000 NA
ATOM     10  C   UNL     1       9.193  15.196  25.551  0.00  0.00    +0.000 C 
ATOM     11  C   UNL     1       7.972  15.822  26.227  0.00  0.00    +0.000 C 
ATOM     12  C   UNL     1       7.145  14.843  27.057  0.00  0.00    +0.000 C 
ATOM     13  C   UNL     1       7.092  13.416  26.514  0.00  0.00    +0.000 C 
ATOM     14  C   UNL     1       8.424  12.968  25.930  0.00  0.00    +0.000 C 
ENDBRANCH   3   9
BRANCH   5  15
ATOM     15  C   UNL     1       9.545  12.285  20.380  0.00  0.00    +0.000 A 
ATOM     16  C   UNL     1       9.282  12.107  19.007  0.00  0.00    +0.000 A 
ATOM     17  C   UNL     1      10.324  11.845  18.111  0.00  0.00    +0.000 A 
ATOM     18  C   UNL     1      11.634  11.742  18.570  0.00  0.00    +0.000 A 
ATOM     19  C   UNL     1      11.912  11.883  19.922  0.00  0.00    +0.000 A 
ATOM     20  C   UNL     1      10.867  12.156  20.811  0.00  0.00    +0.000 A 
ENDBRANCH   5  15
BRANCH   7  21
ATOM     21  C   UNL     1       9.474  15.574  20.177  0.00  0.00    +0.000 A 
ATOM     22  C   UNL     1       9.028  15.764  18.855  0.00  0.00    +0.000 A 
ATOM     23  C   UNL     1       9.914  15.973  17.800  0.00  0.00    +0.000 A 
ATOM     24  C   UNL     1      11.280  16.047  18.046  0.00  0.00    +0.000 A 
ATOM     25  C   UNL     1      11.739  15.991  19.360  0.00  0.00    +0.000 A 
ATOM     26  C   UNL     1      10.842  15.786  20.418  0.00  0.00    +0.000 A 
ENDBRANCH   7  21
BRANCH   1  27
ATOM     27  O   UNL     1       5.649  15.222  21.740  0.00  0.00    +0.000 OA
BRANCH  27  28
ATOM     28  C   UNL     1       4.318  15.187  22.046  0.00  0.00    +0.000 C 
ATOM     29  O   UNL     1       3.860  14.801  23.113  0.00  0.00    +0.000 OA
BRANCH  28  30
ATOM     30  C   UNL     1       3.477  15.727  20.910  0.00  0.00    +0.000 C 
BRANCH  30  31
ATOM     31  C   UNL     1       4.159  16.970  20.327  0.00  0.00    +0.000 C 
BRANCH  31  32
ATOM     32  N   UNL     1       4.266  17.027  18.849  0.00  0.00    +0.000 NA
BRANCH  32  34
ATOM     33  C   UNL     1       5.507  14.943  18.080  0.00  0.00    +0.000 C 
ATOM     34  C   UNL     1       5.555  16.427  18.438  0.00  0.00    +0.000 C 
ENDBRANCH  32  34
BRANCH  32  35
ATOM     35  C   UNL     1       3.105  16.467  18.141  0.00  0.00    +0.000 C 
ATOM     36  C   UNL     1       2.706  17.181  16.853  0.00  0.00    +0.000 C 
ENDBRANCH  32  35
ENDBRANCH  31  32
ENDBRANCH  30  31
ENDBRANCH  28  30
ENDBRANCH  27  28
ENDBRANCH   1  27
TORSDOF 10
ENDMDL
MODEL 9
REMARK VINA RESULT:      -5.9      2.772      6.814
REMARK  Name = 
REMARK  12 active torsions:
REMARK  status: ('A' for Active; 'I' for Inactive)
REMARK    1  A    between atoms: C_1  and  C_2
REMARK    2  A    between atoms: C_2  and  N_3
REMARK    3  A    between atoms: N_3  and  C_4
REMARK    4  A    between atoms: N_3  and  C_6
REMARK    5  A    between atoms: C_4  and  C_5
REMARK    6  A    between atoms: C_6  and  C_7
REMARK    7  A    between atoms: C_7  and  C_8
REMARK    8  A    between atoms: C_8  and  O_10
REMARK    9  A    between atoms: O_10  and  C_11
REMARK   10  A    between atoms: C_13  and  N_14
REMARK   11  A    between atoms: C_21  and  C_22
REMARK   12  A    between atoms: C_29  and  C_30
REMARK                            x       y       z     vdW  Elec       q    Type
REMARK                         _______ _______ _______ _____ _____    ______ ____
ROOT
ATOM      1  C   UNL     1      -2.514  12.555  23.233  0.00  0.00    +0.000 C 
ATOM      2  C   UNL     1      -4.010  12.701  22.907  0.00  0.00    +0.000 C 
ATOM      3  C   UNL     1      -4.470  14.185  22.924  0.00  0.00    +0.000 C 
ATOM      4  C   UNL     1      -4.232  14.636  24.394  0.00  0.00    +0.000 C 
ATOM      5  C   UNL     1      -2.726  14.546  24.764  0.00  0.00    +0.000 C 
ATOM      6  C   UNL     1      -1.914  13.948  23.568  0.00  0.00    +0.000 C 
ATOM      7  C   UNL     1      -2.009  14.822  22.284  0.00  0.00    +0.000 C 
ATOM      8  C   UNL     1      -3.525  15.072  22.029  0.00  0.00    +0.000 C 
ENDROOT
BRANCH   3   9
ATOM      9  N   UNL     1      -5.878  14.460  22.521  0.00  0.00    +0.000 NA
ATOM     10  C   UNL     1      -6.441  13.696  21.404  0.00  0.00    +0.000 C 
ATOM     11  C   UNL     1      -7.004  12.325  21.780  0.00  0.00    +0.000 C 
ATOM     12  C   UNL     1      -7.839  12.320  23.059  0.00  0.00    +0.000 C 
ATOM     13  C   UNL     1      -7.380  13.300  24.137  0.00  0.00    +0.000 C 
ATOM     14  C   UNL     1      -6.904  14.623  23.555  0.00  0.00    +0.000 C 
ENDBRANCH   3   9
BRANCH   5  15
ATOM     15  C   UNL     1      -2.175  15.828  25.350  0.00  0.00    +0.000 A 
ATOM     16  C   UNL     1      -2.890  17.030  25.173  0.00  0.00    +0.000 A 
ATOM     17  C   UNL     1      -2.424  18.223  25.733  0.00  0.00    +0.000 A 
ATOM     18  C   UNL     1      -1.238  18.241  26.461  0.00  0.00    +0.000 A 
ATOM     19  C   UNL     1      -0.502  17.075  26.622  0.00  0.00    +0.000 A 
ATOM     20  C   UNL     1      -0.979  15.883  26.070  0.00  0.00    +0.000 A 
ENDBRANCH   5  15
BRANCH   7  21
ATOM     21  C   UNL     1      -1.075  16.034  22.250  0.00  0.00    +0.000 A 
ATOM     22  C   UNL     1      -1.568  17.310  21.916  0.00  0.00    +0.000 A 
ATOM     23  C   UNL     1      -0.725  18.406  21.746  0.00  0.00    +0.000 A 
ATOM     24  C   UNL     1       0.642  18.270  21.955  0.00  0.00    +0.000 A 
ATOM     25  C   UNL     1       1.141  17.052  22.412  0.00  0.00    +0.000 A 
ATOM     26  C   UNL     1       0.288  15.954  22.586  0.00  0.00    +0.000 A 
ENDBRANCH   7  21
BRANCH   1  27
ATOM     27  O   UNL     1      -1.831  11.960  22.098  0.00  0.00    +0.000 OA
BRANCH  27  28
ATOM     28  C   UNL     1      -0.702  11.244  22.377  0.00  0.00    +0.000 C 
ATOM     29  O   UNL     1      -0.474  10.696  23.448  0.00  0.00    +0.000 OA
BRANCH  28  30
ATOM     30  C   UNL     1       0.220  11.178  21.180  0.00  0.00    +0.000 C 
BRANCH  30  31
ATOM     31  C   UNL     1       0.567  12.603  20.734  0.00  0.00    +0.000 C 
BRANCH  31  32
ATOM     32  N   UNL     1       0.399  12.900  19.291  0.00  0.00    +0.000 NA
BRANCH  32  34
ATOM     33  C   UNL     1      -0.087  15.347  18.794  0.00  0.00    +0.000 C 
ATOM     34  C   UNL     1      -0.623  13.958  19.134  0.00  0.00    +0.000 C 
ENDBRANCH  32  34
BRANCH  32  35
ATOM     35  C   UNL     1       1.658  13.191  18.588  0.00  0.00    +0.000 C 
ATOM     36  C   UNL     1       2.440  11.976  18.098  0.00  0.00    +0.000 C 
ENDBRANCH  32  35
ENDBRANCH  31  32
ENDBRANCH  30  31
ENDBRANCH  28  30
ENDBRANCH  27  28
ENDBRANCH   1  27
TORSDOF 10
ENDMDL
