MODEL 1
REMARK VINA RESULT:      -7.8      0.000      0.000
REMARK  Name = 
REMARK  11 active torsions:
REMARK  status: ('A' for Active; 'I' for Inactive)
REMARK    1  A    between atoms: C_1  and  C_2
REMARK    2  A    between atoms: C_2  and  N_3
REMARK    3  A    between atoms: C_4  and  C_5
REMARK    4  A    between atoms: C_5  and  N_6
REMARK    5  A    between atoms: N_6  and  C_7
REMARK    6  A    between atoms: C_15  and  S_16
REMARK    7  A    between atoms: S_16  and  C_17
REMARK    8  A    between atoms: C_17  and  C_18
REMARK    9  A    between atoms: N_20  and  C_21
REMARK   10  A    between atoms: C_24  and  C_25
REMARK   11  A    between atoms: C_25  and  C_26
REMARK                            x       y       z     vdW  Elec       q    Type
REMARK                         _______ _______ _______ _____ _____    ______ ____
ROOT
ATOM      1  N   UNL     1       6.252   6.243  17.690  0.00  0.00    +0.000 N 
ATOM      2  C   UNL     1       7.405   6.775  18.239  0.00  0.00    +0.000 A 
ATOM      3  N   UNL     1       7.891   5.914  19.115  0.00  0.00    +0.000 NA
ATOM      4  N   UNL     1       7.071   4.817  19.149  0.00  0.00    +0.000 NA
ATOM      5  C   UNL     1       6.115   5.008  18.273  0.00  0.00    +0.000 A 
ENDROOT
BRANCH   1   7
ATOM      6  C   UNL     1       5.235   6.444  15.407  0.00  0.00    +0.000 C 
ATOM      7  C   UNL     1       5.289   6.924  16.848  0.00  0.00    +0.000 C 
ENDBRANCH   1   7
BRANCH   2   8
ATOM      8  C   UNL     1       8.013   8.108  17.911  0.00  0.00    +0.000 C 
BRANCH   8   9
ATOM      9  N   UNL     1       8.888   8.651  18.949  0.00  0.00    +0.000 N 
ATOM     10  H   UNL     1       8.738   8.242  19.863  0.00  0.00    +0.000 HD
BRANCH   9  11
ATOM     11  C   UNL     1       9.083  10.037  19.018  0.00  0.00    +0.000 A 
ATOM     12  C   UNL     1       8.816  10.807  17.878  0.00  0.00    +0.000 A 
ATOM     13  C   UNL     1       8.988  12.196  17.881  0.00  0.00    +0.000 A 
ATOM     14  C   UNL     1       9.396  12.844  19.041  0.00  0.00    +0.000 A 
ATOM     15  C   UNL     1       9.591  12.107  20.205  0.00  0.00    +0.000 A 
ATOM     16  C   UNL     1       9.417  10.718  20.196  0.00  0.00    +0.000 A 
ENDBRANCH   9  11
ENDBRANCH   8   9
ENDBRANCH   2   8
BRANCH   5  17
ATOM     17  S   UNL     1       4.824   3.902  17.961  0.00  0.00    +0.000 S 
BRANCH  17  18
ATOM     18  C   UNL     1       3.825   4.072  19.471  0.00  0.00    +0.000 C 
BRANCH  18  19
ATOM     19  C   UNL     1       2.741   5.119  19.281  0.00  0.00    +0.000 C 
ATOM     20  O   UNL     1       1.642   4.828  18.811  0.00  0.00    +0.000 OA
ATOM     21  N   UNL     1       3.141   6.401  19.628  0.00  0.00    +0.000 N 
ATOM     22  H   UNL     1       4.145   6.573  19.636  0.00  0.00    +0.000 HD
BRANCH  21  23
ATOM     23  C   UNL     1       2.305   7.523  19.499  0.00  0.00    +0.000 A 
ATOM     24  C   UNL     1       2.195   8.241  18.308  0.00  0.00    +0.000 A 
ATOM     25  C   UNL     1       1.322   9.336  18.215  0.00  0.00    +0.000 A 
ATOM     26  C   UNL     1       0.592   9.753  19.334  0.00  0.00    +0.000 A 
ATOM     27  C   UNL     1       0.719   9.027  20.530  0.00  0.00    +0.000 A 
ATOM     28  C   UNL     1       1.545   7.901  20.606  0.00  0.00    +0.000 A 
BRANCH  26  29
ATOM     29  C   UNL     1      -0.332  10.925  19.336  0.00  0.00    +0.000 C 
ATOM     30  C   UNL     1      -0.595  11.725  20.587  0.00  0.00    +0.000 C 
ATOM     31  O   UNL     1      -0.886  11.253  18.281  0.00  0.00    +0.000 OA
ENDBRANCH  26  29
ENDBRANCH  21  23
ENDBRANCH  18  19
ENDBRANCH  17  18
ENDBRANCH   5  17
TORSDOF 9
ENDMDL
MODEL 2
REMARK VINA RESULT:      -7.7      3.652      4.923
REMARK  Name = 
REMARK  11 active torsions:
REMARK  status: ('A' for Active; 'I' for Inactive)
REMARK    1  A    between atoms: C_1  and  C_2
REMARK    2  A    between atoms: C_2  and  N_3
REMARK    3  A    between atoms: C_4  and  C_5
REMARK    4  A    between atoms: C_5  and  N_6
REMARK    5  A    between atoms: N_6  and  C_7
REMARK    6  A    between atoms: C_15  and  S_16
REMARK    7  A    between atoms: S_16  and  C_17
REMARK    8  A    between atoms: C_17  and  C_18
REMARK    9  A    between atoms: N_20  and  C_21
REMARK   10  A    between atoms: C_24  and  C_25
REMARK   11  A    between atoms: C_25  and  C_26
REMARK                            x       y       z     vdW  Elec       q    Type
REMARK                         _______ _______ _______ _____ _____    ______ ____
ROOT
ATOM      1  N   UNL     1       4.321   4.143  18.029  0.00  0.00    +0.000 N 
ATOM      2  C   UNL     1       5.240   5.158  17.828  0.00  0.00    +0.000 A 
ATOM      3  N   UNL     1       5.950   5.309  18.932  0.00  0.00    +0.000 NA
ATOM      4  N   UNL     1       5.512   4.402  19.860  0.00  0.00    +0.000 NA
ATOM      5  C   UNL     1       4.563   3.690  19.302  0.00  0.00    +0.000 A 
ENDROOT
BRANCH   1   7
ATOM      6  C   UNL     1       2.660   2.383  17.375  0.00  0.00    +0.000 C 
ATOM      7  C   UNL     1       3.213   3.783  17.167  0.00  0.00    +0.000 C 
ENDBRANCH   1   7
BRANCH   2   8
ATOM      8  C   UNL     1       5.411   5.968  16.576  0.00  0.00    +0.000 C 
BRANCH   8   9
ATOM      9  N   UNL     1       6.647   5.703  15.841  0.00  0.00    +0.000 N 
ATOM     10  H   UNL     1       7.287   6.489  15.824  0.00  0.00    +0.000 HD
BRANCH   9  11
ATOM     11  C   UNL     1       6.577   5.055  14.601  0.00  0.00    +0.000 A 
ATOM     12  C   UNL     1       7.605   5.276  13.673  0.00  0.00    +0.000 A 
ATOM     13  C   UNL     1       7.598   4.659  12.418  0.00  0.00    +0.000 A 
ATOM     14  C   UNL     1       6.578   3.776  12.082  0.00  0.00    +0.000 A 
ATOM     15  C   UNL     1       5.590   3.483  13.018  0.00  0.00    +0.000 A 
ATOM     16  C   UNL     1       5.603   4.104  14.273  0.00  0.00    +0.000 A 
ENDBRANCH   9  11
ENDBRANCH   8   9
ENDBRANCH   2   8
BRANCH   5  17
ATOM     17  S   UNL     1       3.686   2.423  20.085  0.00  0.00    +0.000 S 
BRANCH  17  18
ATOM     18  C   UNL     1       2.671   3.359  21.269  0.00  0.00    +0.000 C 
BRANCH  18  19
ATOM     19  C   UNL     1       1.982   4.524  20.579  0.00  0.00    +0.000 C 
ATOM     20  O   UNL     1       0.980   4.358  19.885  0.00  0.00    +0.000 OA
ATOM     21  N   UNL     1       2.625   5.739  20.768  0.00  0.00    +0.000 N 
ATOM     22  H   UNL     1       3.609   5.692  21.025  0.00  0.00    +0.000 HD
BRANCH  21  23
ATOM     23  C   UNL     1       2.175   6.938  20.191  0.00  0.00    +0.000 A 
ATOM     24  C   UNL     1       2.473   7.294  18.876  0.00  0.00    +0.000 A 
ATOM     25  C   UNL     1       1.974   8.488  18.330  0.00  0.00    +0.000 A 
ATOM     26  C   UNL     1       1.215   9.360  19.119  0.00  0.00    +0.000 A 
ATOM     27  C   UNL     1       0.930   8.993  20.444  0.00  0.00    +0.000 A 
ATOM     28  C   UNL     1       1.379   7.778  20.969  0.00  0.00    +0.000 A 
BRANCH  26  29
ATOM     29  C   UNL     1       0.673  10.663  18.634  0.00  0.00    +0.000 C 
ATOM     30  C   UNL     1       1.512  11.917  18.627  0.00  0.00    +0.000 C 
ATOM     31  O   UNL     1      -0.489  10.711  18.216  0.00  0.00    +0.000 OA
ENDBRANCH  26  29
ENDBRANCH  21  23
ENDBRANCH  18  19
ENDBRANCH  17  18
ENDBRANCH   5  17
TORSDOF 9
ENDMDL
MODEL 3
REMARK VINA RESULT:      -7.4      0.670      1.461
REMARK  Name = 
REMARK  11 active torsions:
REMARK  status: ('A' for Active; 'I' for Inactive)
REMARK    1  A    between atoms: C_1  and  C_2
REMARK    2  A    between atoms: C_2  and  N_3
REMARK    3  A    between atoms: C_4  and  C_5
REMARK    4  A    between atoms: C_5  and  N_6
REMARK    5  A    between atoms: N_6  and  C_7
REMARK    6  A    between atoms: C_15  and  S_16
REMARK    7  A    between atoms: S_16  and  C_17
REMARK    8  A    between atoms: C_17  and  C_18
REMARK    9  A    between atoms: N_20  and  C_21
REMARK   10  A    between atoms: C_24  and  C_25
REMARK   11  A    between atoms: C_25  and  C_26
REMARK                            x       y       z     vdW  Elec       q    Type
REMARK                         _______ _______ _______ _____ _____    ______ ____
ROOT
ATOM      1  N   UNL     1       6.041   6.076  17.700  0.00  0.00    +0.000 N 
ATOM      2  C   UNL     1       7.180   6.652  18.233  0.00  0.00    +0.000 A 
ATOM      3  N   UNL     1       7.608   5.895  19.228  0.00  0.00    +0.000 NA
ATOM      4  N   UNL     1       6.765   4.824  19.356  0.00  0.00    +0.000 NA
ATOM      5  C   UNL     1       5.852   4.922  18.420  0.00  0.00    +0.000 A 
ENDROOT
BRANCH   1   7
ATOM      6  C   UNL     1       5.263   6.145  15.318  0.00  0.00    +0.000 C 
ATOM      7  C   UNL     1       5.131   6.665  16.739  0.00  0.00    +0.000 C 
ENDBRANCH   1   7
BRANCH   2   8
ATOM      8  C   UNL     1       7.830   7.925  17.777  0.00  0.00    +0.000 C 
BRANCH   8   9
ATOM      9  N   UNL     1       8.722   8.542  18.757  0.00  0.00    +0.000 N 
ATOM     10  H   UNL     1       8.622   8.163  19.692  0.00  0.00    +0.000 HD
BRANCH   9  11
ATOM     11  C   UNL     1       8.867   9.935  18.766  0.00  0.00    +0.000 A 
ATOM     12  C   UNL     1       9.493  10.534  19.868  0.00  0.00    +0.000 A 
ATOM     13  C   UNL     1       9.672  11.920  19.939  0.00  0.00    +0.000 A 
ATOM     14  C   UNL     1       9.259  12.730  18.887  0.00  0.00    +0.000 A 
ATOM     15  C   UNL     1       8.707  12.147  17.750  0.00  0.00    +0.000 A 
ATOM     16  C   UNL     1       8.530  10.760  17.685  0.00  0.00    +0.000 A 
ENDBRANCH   9  11
ENDBRANCH   8   9
ENDBRANCH   2   8
BRANCH   5  17
ATOM     17  S   UNL     1       4.553   3.808  18.184  0.00  0.00    +0.000 S 
BRANCH  17  18
ATOM     18  C   UNL     1       3.602   4.026  19.719  0.00  0.00    +0.000 C 
BRANCH  18  19
ATOM     19  C   UNL     1       2.539   5.096  19.542  0.00  0.00    +0.000 C 
ATOM     20  O   UNL     1       1.560   4.917  18.819  0.00  0.00    +0.000 OA
ATOM     21  N   UNL     1       2.821   6.275  20.218  0.00  0.00    +0.000 N 
ATOM     22  H   UNL     1       3.799   6.434  20.455  0.00  0.00    +0.000 HD
BRANCH  21  23
ATOM     23  C   UNL     1       1.987   7.404  20.164  0.00  0.00    +0.000 A 
ATOM     24  C   UNL     1       1.124   7.748  21.204  0.00  0.00    +0.000 A 
ATOM     25  C   UNL     1       0.333   8.905  21.121  0.00  0.00    +0.000 A 
ATOM     26  C   UNL     1       0.363   9.698  19.968  0.00  0.00    +0.000 A 
ATOM     27  C   UNL     1       1.230   9.335  18.924  0.00  0.00    +0.000 A 
ATOM     28  C   UNL     1       2.060   8.215  19.031  0.00  0.00    +0.000 A 
BRANCH  26  29
ATOM     29  C   UNL     1      -0.467  10.923  19.778  0.00  0.00    +0.000 C 
ATOM     30  C   UNL     1      -0.494  11.668  18.467  0.00  0.00    +0.000 C 
ATOM     31  O   UNL     1      -1.159  11.329  20.719  0.00  0.00    +0.000 OA
ENDBRANCH  26  29
ENDBRANCH  21  23
ENDBRANCH  18  19
ENDBRANCH  17  18
ENDBRANCH   5  17
TORSDOF 9
ENDMDL
MODEL 4
REMARK VINA RESULT:      -7.2      4.193      8.550
REMARK  Name = 
REMARK  11 active torsions:
REMARK  status: ('A' for Active; 'I' for Inactive)
REMARK    1  A    between atoms: C_1  and  C_2
REMARK    2  A    between atoms: C_2  and  N_3
REMARK    3  A    between atoms: C_4  and  C_5
REMARK    4  A    between atoms: C_5  and  N_6
REMARK    5  A    between atoms: N_6  and  C_7
REMARK    6  A    between atoms: C_15  and  S_16
REMARK    7  A    between atoms: S_16  and  C_17
REMARK    8  A    between atoms: C_17  and  C_18
REMARK    9  A    between atoms: N_20  and  C_21
REMARK   10  A    between atoms: C_24  and  C_25
REMARK   11  A    between atoms: C_25  and  C_26
REMARK                            x       y       z     vdW  Elec       q    Type
REMARK                         _______ _______ _______ _____ _____    ______ ____
ROOT
ATOM      1  N   UNL     1       5.201   4.635  16.479  0.00  0.00    +0.000 N 
ATOM      2  C   UNL     1       3.953   4.537  17.070  0.00  0.00    +0.000 A 
ATOM      3  N   UNL     1       3.808   5.542  17.916  0.00  0.00    +0.000 NA
ATOM      4  N   UNL     1       4.945   6.304  17.888  0.00  0.00    +0.000 NA
ATOM      5  C   UNL     1       5.757   5.775  17.005  0.00  0.00    +0.000 A 
ENDROOT
BRANCH   1   7
ATOM      6  C   UNL     1       5.946   3.988  14.175  0.00  0.00    +0.000 C 
ATOM      7  C   UNL     1       5.857   3.643  15.652  0.00  0.00    +0.000 C 
ENDBRANCH   1   7
BRANCH   2   8
ATOM      8  C   UNL     1       2.928   3.472  16.812  0.00  0.00    +0.000 C 
BRANCH   8   9
ATOM      9  N   UNL     1       2.975   2.342  17.737  0.00  0.00    +0.000 N 
ATOM     10  H   UNL     1       2.689   1.463  17.321  0.00  0.00    +0.000 HD
BRANCH   9  11
ATOM     11  C   UNL     1       2.467   2.500  19.033  0.00  0.00    +0.000 A 
ATOM     12  C   UNL     1       3.363   2.464  20.111  0.00  0.00    +0.000 A 
ATOM     13  C   UNL     1       2.923   2.618  21.429  0.00  0.00    +0.000 A 
ATOM     14  C   UNL     1       1.577   2.848  21.691  0.00  0.00    +0.000 A 
ATOM     15  C   UNL     1       0.683   2.965  20.631  0.00  0.00    +0.000 A 
ATOM     16  C   UNL     1       1.131   2.810  19.313  0.00  0.00    +0.000 A 
ENDBRANCH   9  11
ENDBRANCH   8   9
ENDBRANCH   2   8
BRANCH   5  17
ATOM     17  S   UNL     1       7.332   6.376  16.623  0.00  0.00    +0.000 S 
BRANCH  17  18
ATOM     18  C   UNL     1       7.896   6.976  18.245  0.00  0.00    +0.000 C 
BRANCH  18  19
ATOM     19  C   UNL     1       8.122   8.477  18.212  0.00  0.00    +0.000 C 
ATOM     20  O   UNL     1       7.596   9.187  17.356  0.00  0.00    +0.000 OA
ATOM     21  N   UNL     1       9.004   8.927  19.184  0.00  0.00    +0.000 N 
ATOM     22  H   UNL     1       9.644   8.233  19.566  0.00  0.00    +0.000 HD
BRANCH  21  23
ATOM     23  C   UNL     1       9.378  10.275  19.310  0.00  0.00    +0.000 A 
ATOM     24  C   UNL     1       9.263  10.975  20.511  0.00  0.00    +0.000 A 
ATOM     25  C   UNL     1       9.680  12.312  20.600  0.00  0.00    +0.000 A 
ATOM     26  C   UNL     1      10.169  12.974  19.468  0.00  0.00    +0.000 A 
ATOM     27  C   UNL     1      10.271  12.261  18.262  0.00  0.00    +0.000 A 
ATOM     28  C   UNL     1       9.909  10.912  18.189  0.00  0.00    +0.000 A 
BRANCH  26  29
ATOM     29  C   UNL     1      10.603  14.402  19.461  0.00  0.00    +0.000 C 
ATOM     30  C   UNL     1      11.787  14.867  18.651  0.00  0.00    +0.000 C 
ATOM     31  O   UNL     1       9.966  15.225  20.128  0.00  0.00    +0.000 OA
ENDBRANCH  26  29
ENDBRANCH  21  23
ENDBRANCH  18  19
ENDBRANCH  17  18
ENDBRANCH   5  17
TORSDOF 9
ENDMDL
MODEL 5
REMARK VINA RESULT:      -7.1      4.085      8.690
REMARK  Name = 
REMARK  11 active torsions:
REMARK  status: ('A' for Active; 'I' for Inactive)
REMARK    1  A    between atoms: C_1  and  C_2
REMARK    2  A    between atoms: C_2  and  N_3
REMARK    3  A    between atoms: C_4  and  C_5
REMARK    4  A    between atoms: C_5  and  N_6
REMARK    5  A    between atoms: N_6  and  C_7
REMARK    6  A    between atoms: C_15  and  S_16
REMARK    7  A    between atoms: S_16  and  C_17
REMARK    8  A    between atoms: C_17  and  C_18
REMARK    9  A    between atoms: N_20  and  C_21
REMARK   10  A    between atoms: C_24  and  C_25
REMARK   11  A    between atoms: C_25  and  C_26
REMARK                            x       y       z     vdW  Elec       q    Type
REMARK                         _______ _______ _______ _____ _____    ______ ____
ROOT
ATOM      1  N   UNL     1       6.095   6.310  17.651  0.00  0.00    +0.000 N 
ATOM      2  C   UNL     1       6.145   5.007  18.114  0.00  0.00    +0.000 A 
ATOM      3  N   UNL     1       7.308   4.816  18.712  0.00  0.00    +0.000 NA
ATOM      4  N   UNL     1       8.026   5.980  18.651  0.00  0.00    +0.000 NA
ATOM      5  C   UNL     1       7.283   6.875  18.045  0.00  0.00    +0.000 A 
ENDROOT
BRANCH   1   7
ATOM      6  C   UNL     1       5.207   6.454  15.311  0.00  0.00    +0.000 C 
ATOM      7  C   UNL     1       5.105   6.885  16.764  0.00  0.00    +0.000 C 
ENDBRANCH   1   7
BRANCH   2   8
ATOM      8  C   UNL     1       5.071   3.969  17.965  0.00  0.00    +0.000 C 
BRANCH   8   9
ATOM      9  N   UNL     1       3.711   4.463  18.171  0.00  0.00    +0.000 N 
ATOM     10  H   UNL     1       3.621   5.466  18.058  0.00  0.00    +0.000 HD
BRANCH   9  11
ATOM     11  C   UNL     1       2.970   3.987  19.260  0.00  0.00    +0.000 A 
ATOM     12  C   UNL     1       1.607   4.305  19.331  0.00  0.00    +0.000 A 
ATOM     13  C   UNL     1       0.809   3.860  20.390  0.00  0.00    +0.000 A 
ATOM     14  C   UNL     1       1.356   3.054  21.383  0.00  0.00    +0.000 A 
ATOM     15  C   UNL     1       2.688   2.663  21.290  0.00  0.00    +0.000 A 
ATOM     16  C   UNL     1       3.481   3.112  20.227  0.00  0.00    +0.000 A 
ENDBRANCH   9  11
ENDBRANCH   8   9
ENDBRANCH   2   8
BRANCH   5  17
ATOM     17  S   UNL     1       7.763   8.502  17.716  0.00  0.00    +0.000 S 
BRANCH  17  18
ATOM     18  C   UNL     1       8.927   8.821  19.077  0.00  0.00    +0.000 C 
BRANCH  18  19
ATOM     19  C   UNL     1       9.234  10.304  19.182  0.00  0.00    +0.000 C 
ATOM     20  O   UNL     1       9.202  10.893  20.262  0.00  0.00    +0.000 OA
ATOM     21  N   UNL     1       9.485  10.907  17.957  0.00  0.00    +0.000 N 
ATOM     22  H   UNL     1       9.119  10.426  17.137  0.00  0.00    +0.000 HD
BRANCH  21  23
ATOM     23  C   UNL     1       9.758  12.278  17.822  0.00  0.00    +0.000 A 
ATOM     24  C   UNL     1      10.986  12.755  17.365  0.00  0.00    +0.000 A 
ATOM     25  C   UNL     1      11.204  14.134  17.214  0.00  0.00    +0.000 A 
ATOM     26  C   UNL     1      10.206  15.048  17.573  0.00  0.00    +0.000 A 
ATOM     27  C   UNL     1       8.978  14.554  18.041  0.00  0.00    +0.000 A 
ATOM     28  C   UNL     1       8.741  13.180  18.136  0.00  0.00    +0.000 A 
BRANCH  26  29
ATOM     29  C   UNL     1      10.362  16.529  17.478  0.00  0.00    +0.000 C 
ATOM     30  C   UNL     1       9.274  17.471  17.929  0.00  0.00    +0.000 C 
ATOM     31  O   UNL     1      11.416  16.993  17.030  0.00  0.00    +0.000 OA
ENDBRANCH  26  29
ENDBRANCH  21  23
ENDBRANCH  18  19
ENDBRANCH  17  18
ENDBRANCH   5  17
TORSDOF 9
ENDMDL
MODEL 6
REMARK VINA RESULT:      -7.0      4.177      5.211
REMARK  Name = 
REMARK  11 active torsions:
REMARK  status: ('A' for Active; 'I' for Inactive)
REMARK    1  A    between atoms: C_1  and  C_2
REMARK    2  A    between atoms: C_2  and  N_3
REMARK    3  A    between atoms: C_4  and  C_5
REMARK    4  A    between atoms: C_5  and  N_6
REMARK    5  A    between atoms: N_6  and  C_7
REMARK    6  A    between atoms: C_15  and  S_16
REMARK    7  A    between atoms: S_16  and  C_17
REMARK    8  A    between atoms: C_17  and  C_18
REMARK    9  A    between atoms: N_20  and  C_21
REMARK   10  A    between atoms: C_24  and  C_25
REMARK   11  A    between atoms: C_25  and  C_26
REMARK                            x       y       z     vdW  Elec       q    Type
REMARK                         _______ _______ _______ _____ _____    ______ ____
ROOT
ATOM      1  N   UNL     1       3.897   3.459  18.187  0.00  0.00    +0.000 N 
ATOM      2  C   UNL     1       5.114   4.020  17.840  0.00  0.00    +0.000 A 
ATOM      3  N   UNL     1       5.901   4.010  18.901  0.00  0.00    +0.000 NA
ATOM      4  N   UNL     1       5.218   3.446  19.946  0.00  0.00    +0.000 NA
ATOM      5  C   UNL     1       4.036   3.091  19.503  0.00  0.00    +0.000 A 
ENDROOT
BRANCH   1   7
ATOM      6  C   UNL     1       1.722   2.313  17.700  0.00  0.00    +0.000 C 
ATOM      7  C   UNL     1       2.680   3.454  17.402  0.00  0.00    +0.000 C 
ENDBRANCH   1   7
BRANCH   2   8
ATOM      8  C   UNL     1       5.491   4.560  16.492  0.00  0.00    +0.000 C 
BRANCH   8   9
ATOM      9  N   UNL     1       5.928   3.551  15.529  0.00  0.00    +0.000 N 
ATOM     10  H   UNL     1       6.514   2.830  15.934  0.00  0.00    +0.000 HD
BRANCH   9  11
ATOM     11  C   UNL     1       6.391   3.962  14.272  0.00  0.00    +0.000 A 
ATOM     12  C   UNL     1       7.379   4.954  14.217  0.00  0.00    +0.000 A 
ATOM     13  C   UNL     1       7.887   5.408  12.995  0.00  0.00    +0.000 A 
ATOM     14  C   UNL     1       7.440   4.848  11.804  0.00  0.00    +0.000 A 
ATOM     15  C   UNL     1       6.517   3.807  11.841  0.00  0.00    +0.000 A 
ATOM     16  C   UNL     1       6.012   3.357  13.067  0.00  0.00    +0.000 A 
ENDBRANCH   9  11
ENDBRANCH   8   9
ENDBRANCH   2   8
BRANCH   5  17
ATOM     17  S   UNL     1       2.804   2.347  20.459  0.00  0.00    +0.000 S 
BRANCH  17  18
ATOM     18  C   UNL     1       2.385   3.684  21.619  0.00  0.00    +0.000 C 
BRANCH  18  19
ATOM     19  C   UNL     1       1.693   4.825  20.894  0.00  0.00    +0.000 C 
ATOM     20  O   UNL     1       0.663   4.644  20.246  0.00  0.00    +0.000 OA
ATOM     21  N   UNL     1       2.366   6.035  20.994  0.00  0.00    +0.000 N 
ATOM     22  H   UNL     1       3.358   5.980  21.217  0.00  0.00    +0.000 HD
BRANCH  21  23
ATOM     23  C   UNL     1       1.917   7.211  20.371  0.00  0.00    +0.000 A 
ATOM     24  C   UNL     1       2.264   7.543  19.061  0.00  0.00    +0.000 A 
ATOM     25  C   UNL     1       1.766   8.714  18.467  0.00  0.00    +0.000 A 
ATOM     26  C   UNL     1       0.957   9.588  19.203  0.00  0.00    +0.000 A 
ATOM     27  C   UNL     1       0.623   9.246  20.523  0.00  0.00    +0.000 A 
ATOM     28  C   UNL     1       1.073   8.052  21.095  0.00  0.00    +0.000 A 
BRANCH  26  29
ATOM     29  C   UNL     1       0.412  10.869  18.665  0.00  0.00    +0.000 C 
ATOM     30  C   UNL     1      -1.043  11.018  18.297  0.00  0.00    +0.000 C 
ATOM     31  O   UNL     1       1.172  11.834  18.530  0.00  0.00    +0.000 OA
ENDBRANCH  26  29
ENDBRANCH  21  23
ENDBRANCH  18  19
ENDBRANCH  17  18
ENDBRANCH   5  17
TORSDOF 9
ENDMDL
MODEL 7
REMARK VINA RESULT:      -6.9      3.901      8.960
REMARK  Name = 
REMARK  11 active torsions:
REMARK  status: ('A' for Active; 'I' for Inactive)
REMARK    1  A    between atoms: C_1  and  C_2
REMARK    2  A    between atoms: C_2  and  N_3
REMARK    3  A    between atoms: C_4  and  C_5
REMARK    4  A    between atoms: C_5  and  N_6
REMARK    5  A    between atoms: N_6  and  C_7
REMARK    6  A    between atoms: C_15  and  S_16
REMARK    7  A    between atoms: S_16  and  C_17
REMARK    8  A    between atoms: C_17  and  C_18
REMARK    9  A    between atoms: N_20  and  C_21
REMARK   10  A    between atoms: C_24  and  C_25
REMARK   11  A    between atoms: C_25  and  C_26
REMARK                            x       y       z     vdW  Elec       q    Type
REMARK                         _______ _______ _______ _____ _____    ______ ____
ROOT
ATOM      1  N   UNL     1       6.008   6.089  17.544  0.00  0.00    +0.000 N 
ATOM      2  C   UNL     1       6.252   4.790  17.953  0.00  0.00    +0.000 A 
ATOM      3  N   UNL     1       7.479   4.724  18.438  0.00  0.00    +0.000 NA
ATOM      4  N   UNL     1       8.048   5.967  18.356  0.00  0.00    +0.000 NA
ATOM      5  C   UNL     1       7.153   6.782  17.852  0.00  0.00    +0.000 A 
ENDROOT
BRANCH   1   7
ATOM      6  C   UNL     1       3.732   7.140  17.585  0.00  0.00    +0.000 C 
ATOM      7  C   UNL     1       4.879   6.566  16.771  0.00  0.00    +0.000 C 
ENDBRANCH   1   7
BRANCH   2   8
ATOM      8  C   UNL     1       5.297   3.635  17.861  0.00  0.00    +0.000 C 
BRANCH   8   9
ATOM      9  N   UNL     1       4.799   3.151  19.148  0.00  0.00    +0.000 N 
ATOM     10  H   UNL     1       5.022   2.179  19.330  0.00  0.00    +0.000 HD
BRANCH   9  11
ATOM     11  C   UNL     1       3.494   3.474  19.539  0.00  0.00    +0.000 A 
ATOM     12  C   UNL     1       2.484   2.519  19.350  0.00  0.00    +0.000 A 
ATOM     13  C   UNL     1       1.160   2.776  19.720  0.00  0.00    +0.000 A 
ATOM     14  C   UNL     1       0.828   3.984  20.324  0.00  0.00    +0.000 A 
ATOM     15  C   UNL     1       1.829   4.914  20.592  0.00  0.00    +0.000 A 
ATOM     16  C   UNL     1       3.153   4.650  20.218  0.00  0.00    +0.000 A 
ENDBRANCH   9  11
ENDBRANCH   8   9
ENDBRANCH   2   8
BRANCH   5  17
ATOM     17  S   UNL     1       7.408   8.463  17.542  0.00  0.00    +0.000 S 
BRANCH  17  18
ATOM     18  C   UNL     1       8.631   8.888  18.819  0.00  0.00    +0.000 C 
BRANCH  18  19
ATOM     19  C   UNL     1       9.026  10.351  18.716  0.00  0.00    +0.000 C 
ATOM     20  O   UNL     1       8.599  11.070  17.815  0.00  0.00    +0.000 OA
ATOM     21  N   UNL     1       9.937  10.749  19.685  0.00  0.00    +0.000 N 
ATOM     22  H   UNL     1      10.487  10.008  20.116  0.00  0.00    +0.000 HD
BRANCH  21  23
ATOM     23  C   UNL     1      10.459  12.051  19.753  0.00  0.00    +0.000 A 
ATOM     24  C   UNL     1      11.799  12.334  19.487  0.00  0.00    +0.000 A 
ATOM     25  C   UNL     1      12.270  13.656  19.534  0.00  0.00    +0.000 A 
ATOM     26  C   UNL     1      11.411  14.698  19.902  0.00  0.00    +0.000 A 
ATOM     27  C   UNL     1      10.067  14.397  20.176  0.00  0.00    +0.000 A 
ATOM     28  C   UNL     1       9.585  13.089  20.072  0.00  0.00    +0.000 A 
BRANCH  26  29
ATOM     29  C   UNL     1      11.833  16.125  20.012  0.00  0.00    +0.000 C 
ATOM     30  C   UNL     1      11.719  17.077  18.847  0.00  0.00    +0.000 C 
ATOM     31  O   UNL     1      12.275  16.538  21.089  0.00  0.00    +0.000 OA
ENDBRANCH  26  29
ENDBRANCH  21  23
ENDBRANCH  18  19
ENDBRANCH  17  18
ENDBRANCH   5  17
TORSDOF 9
ENDMDL
MODEL 8
REMARK VINA RESULT:      -6.8      4.063      6.107
REMARK  Name = 
REMARK  11 active torsions:
REMARK  status: ('A' for Active; 'I' for Inactive)
REMARK    1  A    between atoms: C_1  and  C_2
REMARK    2  A    between atoms: C_2  and  N_3
REMARK    3  A    between atoms: C_4  and  C_5
REMARK    4  A    between atoms: C_5  and  N_6
REMARK    5  A    between atoms: N_6  and  C_7
REMARK    6  A    between atoms: C_15  and  S_16
REMARK    7  A    between atoms: S_16  and  C_17
REMARK    8  A    between atoms: C_17  and  C_18
REMARK    9  A    between atoms: N_20  and  C_21
REMARK   10  A    between atoms: C_24  and  C_25
REMARK   11  A    between atoms: C_25  and  C_26
REMARK                            x       y       z     vdW  Elec       q    Type
REMARK                         _______ _______ _______ _____ _____    ______ ____
ROOT
ATOM      1  N   UNL     1       4.314   5.402  17.904  0.00  0.00    +0.000 N 
ATOM      2  C   UNL     1       5.417   5.486  17.072  0.00  0.00    +0.000 A 
ATOM      3  N   UNL     1       5.505   6.723  16.615  0.00  0.00    +0.000 NA
ATOM      4  N   UNL     1       4.474   7.457  17.137  0.00  0.00    +0.000 NA
ATOM      5  C   UNL     1       3.788   6.670  17.930  0.00  0.00    +0.000 A 
ENDROOT
BRANCH   1   7
ATOM      6  C   UNL     1       2.737   3.487  17.545  0.00  0.00    +0.000 C 
ATOM      7  C   UNL     1       3.724   4.199  18.454  0.00  0.00    +0.000 C 
ENDBRANCH   1   7
BRANCH   2   8
ATOM      8  C   UNL     1       6.361   4.371  16.731  0.00  0.00    +0.000 C 
BRANCH   8   9
ATOM      9  N   UNL     1       5.952   3.552  15.591  0.00  0.00    +0.000 N 
ATOM     10  H   UNL     1       6.040   2.556  15.753  0.00  0.00    +0.000 HD
BRANCH   9  11
ATOM     11  C   UNL     1       6.372   3.915  14.305  0.00  0.00    +0.000 A 
ATOM     12  C   UNL     1       7.389   4.873  14.180  0.00  0.00    +0.000 A 
ATOM     13  C   UNL     1       7.857   5.278  12.926  0.00  0.00    +0.000 A 
ATOM     14  C   UNL     1       7.341   4.702  11.770  0.00  0.00    +0.000 A 
ATOM     15  C   UNL     1       6.387   3.694  11.875  0.00  0.00    +0.000 A 
ATOM     16  C   UNL     1       5.923   3.293  13.134  0.00  0.00    +0.000 A 
ENDBRANCH   9  11
ENDBRANCH   8   9
ENDBRANCH   2   8
BRANCH   5  17
ATOM     17  S   UNL     1       2.377   7.139  18.811  0.00  0.00    +0.000 S 
BRANCH  17  18
ATOM     18  C   UNL     1       2.135   8.846  18.230  0.00  0.00    +0.000 C 
BRANCH  18  19
ATOM     19  C   UNL     1       0.807   9.395  18.722  0.00  0.00    +0.000 C 
ATOM     20  O   UNL     1       0.462   9.286  19.897  0.00  0.00    +0.000 OA
ATOM     21  N   UNL     1       0.034   9.958  17.716  0.00  0.00    +0.000 N 
ATOM     22  H   UNL     1       0.244   9.657  16.766  0.00  0.00    +0.000 HD
BRANCH  21  23
ATOM     23  C   UNL     1      -1.243  10.496  17.946  0.00  0.00    +0.000 A 
ATOM     24  C   UNL     1      -1.443  11.659  18.689  0.00  0.00    +0.000 A 
ATOM     25  C   UNL     1      -2.735  12.179  18.865  0.00  0.00    +0.000 A 
ATOM     26  C   UNL     1      -3.844  11.504  18.340  0.00  0.00    +0.000 A 
ATOM     27  C   UNL     1      -3.629  10.329  17.602  0.00  0.00    +0.000 A 
ATOM     28  C   UNL     1      -2.337   9.843  17.378  0.00  0.00    +0.000 A 
BRANCH  26  29
ATOM     29  C   UNL     1      -5.254  11.964  18.508  0.00  0.00    +0.000 C 
ATOM     30  C   UNL     1      -5.677  12.814  19.680  0.00  0.00    +0.000 C 
ATOM     31  O   UNL     1      -6.092  11.649  17.655  0.00  0.00    +0.000 OA
ENDBRANCH  26  29
ENDBRANCH  21  23
ENDBRANCH  18  19
ENDBRANCH  17  18
ENDBRANCH   5  17
TORSDOF 9
ENDMDL
MODEL 9
REMARK VINA RESULT:      -6.8      3.882      5.195
REMARK  Name = 
REMARK  11 active torsions:
REMARK  status: ('A' for Active; 'I' for Inactive)
REMARK    1  A    between atoms: C_1  and  C_2
REMARK    2  A    between atoms: C_2  and  N_3
REMARK    3  A    between atoms: C_4  and  C_5
REMARK    4  A    between atoms: C_5  and  N_6
REMARK    5  A    between atoms: N_6  and  C_7
REMARK    6  A    between atoms: C_15  and  S_16
REMARK    7  A    between atoms: S_16  and  C_17
REMARK    8  A    between atoms: C_17  and  C_18
REMARK    9  A    between atoms: N_20  and  C_21
REMARK   10  A    between atoms: C_24  and  C_25
REMARK   11  A    between atoms: C_25  and  C_26
REMARK                            x       y       z     vdW  Elec       q    Type
REMARK                         _______ _______ _______ _____ _____    ______ ____
ROOT
ATOM      1  N   UNL     1       3.918   3.945  18.224  0.00  0.00    +0.000 N 
ATOM      2  C   UNL     1       5.215   4.355  17.968  0.00  0.00    +0.000 A 
ATOM      3  N   UNL     1       5.999   3.896  18.928  0.00  0.00    +0.000 NA
ATOM      4  N   UNL     1       5.234   3.186  19.814  0.00  0.00    +0.000 NA
ATOM      5  C   UNL     1       4.001   3.193  19.371  0.00  0.00    +0.000 A 
ENDROOT
BRANCH   1   7
ATOM      6  C   UNL     1       1.651   3.317  17.358  0.00  0.00    +0.000 C 
ATOM      7  C   UNL     1       2.712   4.387  17.554  0.00  0.00    +0.000 C 
ENDBRANCH   1   7
BRANCH   2   8
ATOM      8  C   UNL     1       5.671   5.186  16.805  0.00  0.00    +0.000 C 
BRANCH   8   9
ATOM      9  N   UNL     1       4.954   4.935  15.556  0.00  0.00    +0.000 N 
ATOM     10  H   UNL     1       4.151   4.326  15.664  0.00  0.00    +0.000 HD
BRANCH   9  11
ATOM     11  C   UNL     1       5.684   4.643  14.397  0.00  0.00    +0.000 A 
ATOM     12  C   UNL     1       6.975   5.175  14.269  0.00  0.00    +0.000 A 
ATOM     13  C   UNL     1       7.759   4.920  13.139  0.00  0.00    +0.000 A 
ATOM     14  C   UNL     1       7.277   4.094  12.129  0.00  0.00    +0.000 A 
ATOM     15  C   UNL     1       6.031   3.493  12.273  0.00  0.00    +0.000 A 
ATOM     16  C   UNL     1       5.251   3.752  13.407  0.00  0.00    +0.000 A 
ENDBRANCH   9  11
ENDBRANCH   8   9
ENDBRANCH   2   8
BRANCH   5  17
ATOM     17  S   UNL     1       2.661   2.438  20.159  0.00  0.00    +0.000 S 
BRANCH  17  18
ATOM     18  C   UNL     1       2.285   3.640  21.470  0.00  0.00    +0.000 C 
BRANCH  18  19
ATOM     19  C   UNL     1       1.561   4.847  20.899  0.00  0.00    +0.000 C 
ATOM     20  O   UNL     1       0.445   4.746  20.392  0.00  0.00    +0.000 OA
ATOM     21  N   UNL     1       2.304   6.018  20.957  0.00  0.00    +0.000 N 
ATOM     22  H   UNL     1       3.313   5.906  21.038  0.00  0.00    +0.000 HD
BRANCH  21  23
ATOM     23  C   UNL     1       1.837   7.244  20.454  0.00  0.00    +0.000 A 
ATOM     24  C   UNL     1       1.010   8.089  21.193  0.00  0.00    +0.000 A 
ATOM     25  C   UNL     1       0.594   9.321  20.663  0.00  0.00    +0.000 A 
ATOM     26  C   UNL     1       0.964   9.690  19.364  0.00  0.00    +0.000 A 
ATOM     27  C   UNL     1       1.790   8.825  18.628  0.00  0.00    +0.000 A 
ATOM     28  C   UNL     1       2.250   7.625  19.178  0.00  0.00    +0.000 A 
BRANCH  26  29
ATOM     29  C   UNL     1       0.542  10.962  18.708  0.00  0.00    +0.000 C 
ATOM     30  C   UNL     1       1.501  12.110  18.512  0.00  0.00    +0.000 C 
ATOM     31  O   UNL     1      -0.622  11.070  18.304  0.00  0.00    +0.000 OA
ENDBRANCH  26  29
ENDBRANCH  21  23
ENDBRANCH  18  19
ENDBRANCH  17  18
ENDBRANCH   5  17
TORSDOF 9
ENDMDL
