MODEL 1
REMARK VINA RESULT:      -5.7      0.000      0.000
REMARK  Name = 
REMARK  9 active torsions:
REMARK  status: ('A' for Active; 'I' for Inactive)
REMARK    1  A    between atoms: C_1  and  N_2
REMARK    2  A    between atoms: N_2  and  C_3
REMARK    3  A    between atoms: N_2  and  C_4
REMARK    4  A    between atoms: N_2  and  C_5
REMARK    5  A    between atoms: C_5  and  C_6
REMARK    6  A    between atoms: C_6  and  O_7
REMARK    7  A    between atoms: O_7  and  C_8
REMARK    8  A    between atoms: C_8  and  C_10
REMARK    9  A    between atoms: C_11  and  C_12
REMARK                            x       y       z     vdW  Elec       q    Type
REMARK                         _______ _______ _______ _____ _____    ______ ____
ROOT
ATOM      1  C   UNL     1       6.435   5.307  19.158  0.00  0.00    +0.000 C 
ATOM      2  O   UNL     1       7.550   5.398  19.636  0.00  0.00    +0.000 OA
ENDROOT
BRANCH   1   3
ATOM      3  C   UNL     1       6.171   5.108  17.729  0.00  0.00    +0.000 C 
ATOM      4  C   UNL     1       7.144   4.754  16.882  0.00  0.00    +0.000 C 
BRANCH   4   5
ATOM      5  C   UNL     1       6.979   4.613  15.486  0.00  0.00    +0.000 A 
ATOM      6  C   UNL     1       6.089   3.783  14.860  0.00  0.00    +0.000 A 
ATOM      7  N   UNL     1       6.305   4.002  13.527  0.00  0.00    +0.000 N 
ATOM      8  C   UNL     1       7.308   4.923  13.417  0.00  0.00    +0.000 A 
ATOM      9  N   UNL     1       7.738   5.310  14.596  0.00  0.00    +0.000 NA
ATOM     10  H   UNL     1       5.814   3.562  12.760  0.00  0.00    +0.000 HD
ENDBRANCH   4   5
ENDBRANCH   1   3
BRANCH   1  11
ATOM     11  O   UNL     1       5.276   5.260  19.865  0.00  0.00    +0.000 OA
BRANCH  11  12
ATOM     12  C   UNL     1       4.132   4.923  19.083  0.00  0.00    +0.000 C 
BRANCH  12  13
ATOM     13  C   UNL     1       3.422   3.683  19.623  0.00  0.00    +0.000 C 
BRANCH  13  15
ATOM     14  C   UNL     1       1.137   4.275  20.307  0.00  0.00    +0.000 C 
ATOM     15  N   UNL     1       1.966   3.592  19.203  0.00  0.00    +0.000 N 
ATOM     16  C   UNL     1       1.516   2.122  19.139  0.00  0.00    +0.000 C 
ATOM     17  C   UNL     1       1.655   4.269  17.892  0.00  0.00    +0.000 C 
ENDBRANCH  13  15
ENDBRANCH  12  13
ENDBRANCH  11  12
ENDBRANCH   1  11
TORSDOF 6
ENDMDL
MODEL 2
REMARK VINA RESULT:      -5.7      0.862      1.146
REMARK  Name = 
REMARK  9 active torsions:
REMARK  status: ('A' for Active; 'I' for Inactive)
REMARK    1  A    between atoms: C_1  and  N_2
REMARK    2  A    between atoms: N_2  and  C_3
REMARK    3  A    between atoms: N_2  and  C_4
REMARK    4  A    between atoms: N_2  and  C_5
REMARK    5  A    between atoms: C_5  and  C_6
REMARK    6  A    between atoms: C_6  and  O_7
REMARK    7  A    between atoms: O_7  and  C_8
REMARK    8  A    between atoms: C_8  and  C_10
REMARK    9  A    between atoms: C_11  and  C_12
REMARK                            x       y       z     vdW  Elec       q    Type
REMARK                         _______ _______ _______ _____ _____    ______ ____
ROOT
ATOM      1  C   UNL     1       7.043   5.269  19.090  0.00  0.00    +0.000 C 
ATOM      2  O   UNL     1       8.040   5.565  19.721  0.00  0.00    +0.000 OA
ENDROOT
BRANCH   1   3
ATOM      3  C   UNL     1       7.070   4.668  17.752  0.00  0.00    +0.000 C 
ATOM      4  C   UNL     1       6.906   5.409  16.650  0.00  0.00    +0.000 C 
BRANCH   4   5
ATOM      5  C   UNL     1       6.851   4.890  15.337  0.00  0.00    +0.000 A 
ATOM      6  C   UNL     1       6.110   3.816  14.925  0.00  0.00    +0.000 A 
ATOM      7  N   UNL     1       6.386   3.709  13.590  0.00  0.00    +0.000 N 
ATOM      8  C   UNL     1       7.277   4.695  13.272  0.00  0.00    +0.000 A 
ATOM      9  N   UNL     1       7.579   5.428  14.319  0.00  0.00    +0.000 NA
ATOM     10  H   UNL     1       6.004   3.024  12.952  0.00  0.00    +0.000 HD
ENDBRANCH   4   5
ENDBRANCH   1   3
BRANCH   1  11
ATOM     11  O   UNL     1       5.768   5.338  19.553  0.00  0.00    +0.000 OA
BRANCH  11  12
ATOM     12  C   UNL     1       4.976   4.192  19.246  0.00  0.00    +0.000 C 
BRANCH  12  13
ATOM     13  C   UNL     1       3.482   4.507  19.294  0.00  0.00    +0.000 C 
BRANCH  13  15
ATOM     14  C   UNL     1       1.429   3.653  18.248  0.00  0.00    +0.000 C 
ATOM     15  N   UNL     1       2.604   3.275  19.169  0.00  0.00    +0.000 N 
ATOM     16  C   UNL     1       2.007   2.899  20.537  0.00  0.00    +0.000 C 
ATOM     17  C   UNL     1       3.298   2.075  18.578  0.00  0.00    +0.000 C 
ENDBRANCH  13  15
ENDBRANCH  12  13
ENDBRANCH  11  12
ENDBRANCH   1  11
TORSDOF 6
ENDMDL
MODEL 3
REMARK VINA RESULT:      -5.6      0.825      1.195
REMARK  Name = 
REMARK  9 active torsions:
REMARK  status: ('A' for Active; 'I' for Inactive)
REMARK    1  A    between atoms: C_1  and  N_2
REMARK    2  A    between atoms: N_2  and  C_3
REMARK    3  A    between atoms: N_2  and  C_4
REMARK    4  A    between atoms: N_2  and  C_5
REMARK    5  A    between atoms: C_5  and  C_6
REMARK    6  A    between atoms: C_6  and  O_7
REMARK    7  A    between atoms: O_7  and  C_8
REMARK    8  A    between atoms: C_8  and  C_10
REMARK    9  A    between atoms: C_11  and  C_12
REMARK                            x       y       z     vdW  Elec       q    Type
REMARK                         _______ _______ _______ _____ _____    ______ ____
ROOT
ATOM      1  C   UNL     1       6.844   5.240  19.105  0.00  0.00    +0.000 C 
ATOM      2  O   UNL     1       7.838   5.660  19.668  0.00  0.00    +0.000 OA
ENDROOT
BRANCH   1   3
ATOM      3  C   UNL     1       6.855   4.638  17.767  0.00  0.00    +0.000 C 
ATOM      4  C   UNL     1       6.942   5.390  16.664  0.00  0.00    +0.000 C 
BRANCH   4   5
ATOM      5  C   UNL     1       6.888   4.886  15.345  0.00  0.00    +0.000 A 
ATOM      6  C   UNL     1       6.147   3.816  14.921  0.00  0.00    +0.000 A 
ATOM      7  N   UNL     1       6.424   3.724  13.584  0.00  0.00    +0.000 N 
ATOM      8  C   UNL     1       7.315   4.713  13.278  0.00  0.00    +0.000 A 
ATOM      9  N   UNL     1       7.616   5.435  14.334  0.00  0.00    +0.000 NA
ATOM     10  H   UNL     1       6.042   3.046  12.939  0.00  0.00    +0.000 HD
ENDBRANCH   4   5
ENDBRANCH   1   3
BRANCH   1  11
ATOM     11  O   UNL     1       5.604   5.155  19.653  0.00  0.00    +0.000 OA
BRANCH  11  12
ATOM     12  C   UNL     1       4.865   4.007  19.242  0.00  0.00    +0.000 C 
BRANCH  12  13
ATOM     13  C   UNL     1       3.427   4.363  18.868  0.00  0.00    +0.000 C 
BRANCH  13  15
ATOM     14  C   UNL     1       3.033   2.725  20.657  0.00  0.00    +0.000 C 
ATOM     15  N   UNL     1       2.409   3.912  19.899  0.00  0.00    +0.000 N 
ATOM     16  C   UNL     1       1.137   3.391  19.206  0.00  0.00    +0.000 C 
ATOM     17  C   UNL     1       2.033   4.969  20.906  0.00  0.00    +0.000 C 
ENDBRANCH  13  15
ENDBRANCH  12  13
ENDBRANCH  11  12
ENDBRANCH   1  11
TORSDOF 6
ENDMDL
MODEL 4
REMARK VINA RESULT:      -5.6      0.788      1.384
REMARK  Name = 
REMARK  9 active torsions:
REMARK  status: ('A' for Active; 'I' for Inactive)
REMARK    1  A    between atoms: C_1  and  N_2
REMARK    2  A    between atoms: N_2  and  C_3
REMARK    3  A    between atoms: N_2  and  C_4
REMARK    4  A    between atoms: N_2  and  C_5
REMARK    5  A    between atoms: C_5  and  C_6
REMARK    6  A    between atoms: C_6  and  O_7
REMARK    7  A    between atoms: O_7  and  C_8
REMARK    8  A    between atoms: C_8  and  C_10
REMARK    9  A    between atoms: C_11  and  C_12
REMARK                            x       y       z     vdW  Elec       q    Type
REMARK                         _______ _______ _______ _____ _____    ______ ____
ROOT
ATOM      1  C   UNL     1       6.844   5.256  19.070  0.00  0.00    +0.000 C 
ATOM      2  O   UNL     1       7.728   6.013  19.426  0.00  0.00    +0.000 OA
ENDROOT
BRANCH   1   3
ATOM      3  C   UNL     1       6.783   4.637  17.741  0.00  0.00    +0.000 C 
ATOM      4  C   UNL     1       6.988   5.351  16.628  0.00  0.00    +0.000 C 
BRANCH   4   5
ATOM      5  C   UNL     1       6.877   4.839  15.317  0.00  0.00    +0.000 A 
ATOM      6  C   UNL     1       6.122   3.764  14.933  0.00  0.00    +0.000 A 
ATOM      7  N   UNL     1       6.339   3.664  13.585  0.00  0.00    +0.000 N 
ATOM      8  C   UNL     1       7.211   4.655  13.233  0.00  0.00    +0.000 A 
ATOM      9  N   UNL     1       7.556   5.385  14.270  0.00  0.00    +0.000 NA
ATOM     10  H   UNL     1       5.931   2.981  12.962  0.00  0.00    +0.000 HD
ENDBRANCH   4   5
ENDBRANCH   1   3
BRANCH   1  11
ATOM     11  O   UNL     1       5.851   4.777  19.862  0.00  0.00    +0.000 OA
BRANCH  11  12
ATOM     12  C   UNL     1       4.961   3.880  19.200  0.00  0.00    +0.000 C 
BRANCH  12  13
ATOM     13  C   UNL     1       3.523   4.045  19.687  0.00  0.00    +0.000 C 
BRANCH  13  15
ATOM     14  C   UNL     1       3.301   1.993  18.353  0.00  0.00    +0.000 C 
ATOM     15  N   UNL     1       2.526   3.200  18.915  0.00  0.00    +0.000 N 
ATOM     16  C   UNL     1       1.972   3.985  17.714  0.00  0.00    +0.000 C 
ATOM     17  C   UNL     1       1.380   2.679  19.745  0.00  0.00    +0.000 C 
ENDBRANCH  13  15
ENDBRANCH  12  13
ENDBRANCH  11  12
ENDBRANCH   1  11
TORSDOF 6
ENDMDL
MODEL 5
REMARK VINA RESULT:      -5.6      1.013      1.250
REMARK  Name = 
REMARK  9 active torsions:
REMARK  status: ('A' for Active; 'I' for Inactive)
REMARK    1  A    between atoms: C_1  and  N_2
REMARK    2  A    between atoms: N_2  and  C_3
REMARK    3  A    between atoms: N_2  and  C_4
REMARK    4  A    between atoms: N_2  and  C_5
REMARK    5  A    between atoms: C_5  and  C_6
REMARK    6  A    between atoms: C_6  and  O_7
REMARK    7  A    between atoms: O_7  and  C_8
REMARK    8  A    between atoms: C_8  and  C_10
REMARK    9  A    between atoms: C_11  and  C_12
REMARK                            x       y       z     vdW  Elec       q    Type
REMARK                         _______ _______ _______ _____ _____    ______ ____
ROOT
ATOM      1  C   UNL     1       6.948   4.844  18.487  0.00  0.00    +0.000 C 
ATOM      2  O   UNL     1       7.633   5.282  19.392  0.00  0.00    +0.000 OA
ENDROOT
BRANCH   1   3
ATOM      3  C   UNL     1       7.297   4.961  17.066  0.00  0.00    +0.000 C 
ATOM      4  C   UNL     1       6.477   4.517  16.107  0.00  0.00    +0.000 C 
BRANCH   4   5
ATOM      5  C   UNL     1       6.777   4.533  14.727  0.00  0.00    +0.000 A 
ATOM      6  C   UNL     1       6.208   3.740  13.768  0.00  0.00    +0.000 A 
ATOM      7  N   UNL     1       6.817   4.126  12.606  0.00  0.00    +0.000 N 
ATOM      8  C   UNL     1       7.720   5.103  12.917  0.00  0.00    +0.000 A 
ATOM      9  N   UNL     1       7.718   5.369  14.204  0.00  0.00    +0.000 NA
ATOM     10  H   UNL     1       6.636   3.756  11.683  0.00  0.00    +0.000 HD
ENDBRANCH   4   5
ENDBRANCH   1   3
BRANCH   1  11
ATOM     11  O   UNL     1       5.830   4.088  18.639  0.00  0.00    +0.000 OA
BRANCH  11  12
ATOM     12  C   UNL     1       4.740   4.777  19.246  0.00  0.00    +0.000 C 
BRANCH  12  13
ATOM     13  C   UNL     1       3.642   3.816  19.696  0.00  0.00    +0.000 C 
BRANCH  13  15
ATOM     14  C   UNL     1       2.373   5.023  17.971  0.00  0.00    +0.000 C 
ATOM     15  N   UNL     1       2.523   3.664  18.681  0.00  0.00    +0.000 N 
ATOM     16  C   UNL     1       1.189   3.372  19.391  0.00  0.00    +0.000 C 
ATOM     17  C   UNL     1       2.774   2.610  17.633  0.00  0.00    +0.000 C 
ENDBRANCH  13  15
ENDBRANCH  12  13
ENDBRANCH  11  12
ENDBRANCH   1  11
TORSDOF 6
ENDMDL
MODEL 6
REMARK VINA RESULT:      -5.5      4.866      6.219
REMARK  Name = 
REMARK  9 active torsions:
REMARK  status: ('A' for Active; 'I' for Inactive)
REMARK    1  A    between atoms: C_1  and  N_2
REMARK    2  A    between atoms: N_2  and  C_3
REMARK    3  A    between atoms: N_2  and  C_4
REMARK    4  A    between atoms: N_2  and  C_5
REMARK    5  A    between atoms: C_5  and  C_6
REMARK    6  A    between atoms: C_6  and  O_7
REMARK    7  A    between atoms: O_7  and  C_8
REMARK    8  A    between atoms: C_8  and  C_10
REMARK    9  A    between atoms: C_11  and  C_12
REMARK                            x       y       z     vdW  Elec       q    Type
REMARK                         _______ _______ _______ _____ _____    ______ ____
ROOT
ATOM      1  C   UNL     1       7.649   7.721  17.566  0.00  0.00    +0.000 C 
ATOM      2  O   UNL     1       6.900   7.437  16.650  0.00  0.00    +0.000 OA
ENDROOT
BRANCH   1   3
ATOM      3  C   UNL     1       8.142   9.078  17.829  0.00  0.00    +0.000 C 
ATOM      4  C   UNL     1       8.903   9.350  18.895  0.00  0.00    +0.000 C 
BRANCH   4   5
ATOM      5  C   UNL     1       9.354  10.641  19.248  0.00  0.00    +0.000 A 
ATOM      6  C   UNL     1       9.474  11.134  20.519  0.00  0.00    +0.000 A 
ATOM      7  N   UNL     1       9.945  12.406  20.344  0.00  0.00    +0.000 N 
ATOM      8  C   UNL     1      10.067  12.620  19.000  0.00  0.00    +0.000 A 
ATOM      9  N   UNL     1       9.712  11.561  18.309  0.00  0.00    +0.000 NA
ATOM     10  H   UNL     1      10.161  13.071  21.075  0.00  0.00    +0.000 HD
ENDBRANCH   4   5
ENDBRANCH   1   3
BRANCH   1  11
ATOM     11  O   UNL     1       8.053   6.872  18.545  0.00  0.00    +0.000 OA
BRANCH  11  12
ATOM     12  C   UNL     1       7.542   5.547  18.414  0.00  0.00    +0.000 C 
BRANCH  12  13
ATOM     13  C   UNL     1       6.338   5.312  19.323  0.00  0.00    +0.000 C 
BRANCH  13  15
ATOM     14  C   UNL     1       5.619   4.286  17.208  0.00  0.00    +0.000 C 
ATOM     15  N   UNL     1       5.128   4.763  18.588  0.00  0.00    +0.000 N 
ATOM     16  C   UNL     1       4.097   5.880  18.343  0.00  0.00    +0.000 C 
ATOM     17  C   UNL     1       4.456   3.604  19.277  0.00  0.00    +0.000 C 
ENDBRANCH  13  15
ENDBRANCH  12  13
ENDBRANCH  11  12
ENDBRANCH   1  11
TORSDOF 6
ENDMDL
MODEL 7
REMARK VINA RESULT:      -5.5      1.164      1.647
REMARK  Name = 
REMARK  9 active torsions:
REMARK  status: ('A' for Active; 'I' for Inactive)
REMARK    1  A    between atoms: C_1  and  N_2
REMARK    2  A    between atoms: N_2  and  C_3
REMARK    3  A    between atoms: N_2  and  C_4
REMARK    4  A    between atoms: N_2  and  C_5
REMARK    5  A    between atoms: C_5  and  C_6
REMARK    6  A    between atoms: C_6  and  O_7
REMARK    7  A    between atoms: O_7  and  C_8
REMARK    8  A    between atoms: C_8  and  C_10
REMARK    9  A    between atoms: C_11  and  C_12
REMARK                            x       y       z     vdW  Elec       q    Type
REMARK                         _______ _______ _______ _____ _____    ______ ____
ROOT
ATOM      1  C   UNL     1       5.837   4.930  18.276  0.00  0.00    +0.000 C 
ATOM      2  O   UNL     1       6.657   4.684  19.142  0.00  0.00    +0.000 OA
ENDROOT
BRANCH   1   3
ATOM      3  C   UNL     1       5.975   4.512  16.877  0.00  0.00    +0.000 C 
ATOM      4  C   UNL     1       6.787   5.157  16.032  0.00  0.00    +0.000 C 
BRANCH   4   5
ATOM      5  C   UNL     1       6.916   4.854  14.658  0.00  0.00    +0.000 A 
ATOM      6  C   UNL     1       6.214   3.900  13.973  0.00  0.00    +0.000 A 
ATOM      7  N   UNL     1       6.686   3.989  12.692  0.00  0.00    +0.000 N 
ATOM      8  C   UNL     1       7.645   4.963  12.672  0.00  0.00    +0.000 A 
ATOM      9  N   UNL     1       7.806   5.505  13.858  0.00  0.00    +0.000 NA
ATOM     10  H   UNL     1       6.384   3.435  11.902  0.00  0.00    +0.000 HD
ENDBRANCH   4   5
ENDBRANCH   1   3
BRANCH   1  11
ATOM     11  O   UNL     1       4.631   5.519  18.478  0.00  0.00    +0.000 OA
BRANCH  11  12
ATOM     12  C   UNL     1       3.523   4.627  18.371  0.00  0.00    +0.000 C 
BRANCH  12  13
ATOM     13  C   UNL     1       2.846   4.399  19.721  0.00  0.00    +0.000 C 
BRANCH  13  15
ATOM     14  C   UNL     1       1.908   2.190  19.192  0.00  0.00    +0.000 C 
ATOM     15  N   UNL     1       2.844   2.944  20.155  0.00  0.00    +0.000 N 
ATOM     16  C   UNL     1       2.251   2.805  21.568  0.00  0.00    +0.000 C 
ATOM     17  C   UNL     1       4.198   2.281  20.112  0.00  0.00    +0.000 C 
ENDBRANCH  13  15
ENDBRANCH  12  13
ENDBRANCH  11  12
ENDBRANCH   1  11
TORSDOF 6
ENDMDL
MODEL 8
REMARK VINA RESULT:      -5.5      1.953      2.783
REMARK  Name = 
REMARK  9 active torsions:
REMARK  status: ('A' for Active; 'I' for Inactive)
REMARK    1  A    between atoms: C_1  and  N_2
REMARK    2  A    between atoms: N_2  and  C_3
REMARK    3  A    between atoms: N_2  and  C_4
REMARK    4  A    between atoms: N_2  and  C_5
REMARK    5  A    between atoms: C_5  and  C_6
REMARK    6  A    between atoms: C_6  and  O_7
REMARK    7  A    between atoms: O_7  and  C_8
REMARK    8  A    between atoms: C_8  and  C_10
REMARK    9  A    between atoms: C_11  and  C_12
REMARK                            x       y       z     vdW  Elec       q    Type
REMARK                         _______ _______ _______ _____ _____    ______ ____
ROOT
ATOM      1  C   UNL     1       2.822   6.937  18.275  0.00  0.00    +0.000 C 
ATOM      2  O   UNL     1       2.140   7.761  17.694  0.00  0.00    +0.000 OA
ENDROOT
BRANCH   1   3
ATOM      3  C   UNL     1       3.817   6.087  17.612  0.00  0.00    +0.000 C 
ATOM      4  C   UNL     1       4.993   6.577  17.202  0.00  0.00    +0.000 C 
BRANCH   4   5
ATOM      5  C   UNL     1       5.967   5.835  16.498  0.00  0.00    +0.000 A 
ATOM      6  C   UNL     1       7.080   5.250  17.037  0.00  0.00    +0.000 A 
ATOM      7  N   UNL     1       7.699   4.657  15.971  0.00  0.00    +0.000 N 
ATOM      8  C   UNL     1       6.951   4.922  14.859  0.00  0.00    +0.000 A 
ATOM      9  N   UNL     1       5.890   5.641  15.152  0.00  0.00    +0.000 NA
ATOM     10  H   UNL     1       8.555   4.120  15.998  0.00  0.00    +0.000 HD
ENDBRANCH   4   5
ENDBRANCH   1   3
BRANCH   1  11
ATOM     11  O   UNL     1       2.859   6.751  19.619  0.00  0.00    +0.000 OA
BRANCH  11  12
ATOM     12  C   UNL     1       2.997   5.388  20.014  0.00  0.00    +0.000 C 
BRANCH  12  13
ATOM     13  C   UNL     1       1.651   4.668  20.046  0.00  0.00    +0.000 C 
BRANCH  13  15
ATOM     14  C   UNL     1       1.424   2.642  21.418  0.00  0.00    +0.000 C 
ATOM     15  N   UNL     1       1.777   3.155  20.010  0.00  0.00    +0.000 N 
ATOM     16  C   UNL     1       3.232   2.744  19.726  0.00  0.00    +0.000 C 
ATOM     17  C   UNL     1       0.863   2.480  19.019  0.00  0.00    +0.000 C 
ENDBRANCH  13  15
ENDBRANCH  12  13
ENDBRANCH  11  12
ENDBRANCH   1  11
TORSDOF 6
ENDMDL
MODEL 9
REMARK VINA RESULT:      -5.5      2.156      2.718
REMARK  Name = 
REMARK  9 active torsions:
REMARK  status: ('A' for Active; 'I' for Inactive)
REMARK    1  A    between atoms: C_1  and  N_2
REMARK    2  A    between atoms: N_2  and  C_3
REMARK    3  A    between atoms: N_2  and  C_4
REMARK    4  A    between atoms: N_2  and  C_5
REMARK    5  A    between atoms: C_5  and  C_6
REMARK    6  A    between atoms: C_6  and  O_7
REMARK    7  A    between atoms: O_7  and  C_8
REMARK    8  A    between atoms: C_8  and  C_10
REMARK    9  A    between atoms: C_11  and  C_12
REMARK                            x       y       z     vdW  Elec       q    Type
REMARK                         _______ _______ _______ _____ _____    ______ ____
ROOT
ATOM      1  C   UNL     1       2.945   7.222  18.183  0.00  0.00    +0.000 C 
ATOM      2  O   UNL     1       2.669   8.274  17.638  0.00  0.00    +0.000 OA
ENDROOT
BRANCH   1   3
ATOM      3  C   UNL     1       3.747   6.163  17.560  0.00  0.00    +0.000 C 
ATOM      4  C   UNL     1       4.665   6.440  16.626  0.00  0.00    +0.000 C 
BRANCH   4   5
ATOM      5  C   UNL     1       5.422   5.469  15.936  0.00  0.00    +0.000 A 
ATOM      6  C   UNL     1       5.226   4.115  15.976  0.00  0.00    +0.000 A 
ATOM      7  N   UNL     1       6.196   3.609  15.154  0.00  0.00    +0.000 N 
ATOM      8  C   UNL     1       6.926   4.663  14.680  0.00  0.00    +0.000 A 
ATOM      9  N   UNL     1       6.477   5.807  15.143  0.00  0.00    +0.000 NA
ATOM     10  H   UNL     1       6.348   2.634  14.937  0.00  0.00    +0.000 HD
ENDBRANCH   4   5
ENDBRANCH   1   3
BRANCH   1  11
ATOM     11  O   UNL     1       2.661   6.904  19.472  0.00  0.00    +0.000 OA
BRANCH  11  12
ATOM     12  C   UNL     1       3.116   5.612  19.867  0.00  0.00    +0.000 C 
BRANCH  12  13
ATOM     13  C   UNL     1       2.064   4.865  20.683  0.00  0.00    +0.000 C 
BRANCH  13  15
ATOM     14  C   UNL     1       1.117   3.095  19.264  0.00  0.00    +0.000 C 
ATOM     15  N   UNL     1       2.070   3.365  20.444  0.00  0.00    +0.000 N 
ATOM     16  C   UNL     1       1.502   2.624  21.667  0.00  0.00    +0.000 C 
ATOM     17  C   UNL     1       3.422   2.797  20.097  0.00  0.00    +0.000 C 
ENDBRANCH  13  15
ENDBRANCH  12  13
ENDBRANCH  11  12
ENDBRANCH   1  11
TORSDOF 6
ENDMDL
