MODEL 1
REMARK VINA RESULT:      -6.4      0.000      0.000
REMARK  Name = 
REMARK  2 active torsions:
REMARK  status: ('A' for Active; 'I' for Inactive)
REMARK    1  A    between atoms: N_2  and  C_4
REMARK    2  A    between atoms: C_9  and  N_10
REMARK                            x       y       z     vdW  Elec       q    Type
REMARK                         _______ _______ _______ _____ _____    ______ ____
ROOT
ATOM      1  C   UNL     1       3.375   3.605  19.502  0.00  0.00    +0.000 A 
ATOM      2  C   UNL     1       2.236   3.587  20.311  0.00  0.00    +0.000 A 
ATOM      3  C   UNL     1       1.633   4.792  20.624  0.00  0.00    +0.000 A 
ATOM      4  C   UNL     1       2.211   5.946  20.122  0.00  0.00    +0.000 A 
ATOM      5  N   UNL     1       3.308   5.966  19.320  0.00  0.00    +0.000 NA
ATOM      6  C   UNL     1       3.894   4.793  18.976  0.00  0.00    +0.000 A 
ENDROOT
BRANCH   6   7
ATOM      7  N   UNL     1       4.997   4.837  18.155  0.00  0.00    +0.000 N 
ATOM      8  C   UNL     1       6.237   5.480  18.607  0.00  0.00    +0.000 C 
ATOM      9  C   UNL     1       7.424   4.707  17.968  0.00  0.00    +0.000 C 
ATOM     10  N   UNL     1       7.346   4.560  16.493  0.00  0.00    +0.000 NA
ATOM     11  C   UNL     1       6.016   4.052  16.094  0.00  0.00    +0.000 C 
ATOM     12  C   UNL     1       4.858   4.878  16.694  0.00  0.00    +0.000 C 
ATOM     13  H   UNL     1       8.049   3.881  16.200  0.00  0.00    +0.000 HD
ENDBRANCH   6   7
BRANCH   1  15
ATOM     14  O   UNL     1       3.702   1.640  18.387  0.00  0.00    +0.000 OA
ATOM     15  N   UNL     1       4.073   2.356  19.330  0.00  0.00    +0.000 N 
ATOM     16  O   UNL     1       4.953   2.061  20.147  0.00  0.00    +0.000 OA
ENDBRANCH   1  15
TORSDOF 2
ENDMDL
MODEL 2
REMARK VINA RESULT:      -6.1      2.795      4.817
REMARK  Name = 
REMARK  2 active torsions:
REMARK  status: ('A' for Active; 'I' for Inactive)
REMARK    1  A    between atoms: N_2  and  C_4
REMARK    2  A    between atoms: C_9  and  N_10
REMARK                            x       y       z     vdW  Elec       q    Type
REMARK                         _______ _______ _______ _____ _____    ______ ____
ROOT
ATOM      1  C   UNL     1       5.889   6.320  17.597  0.00  0.00    +0.000 A 
ATOM      2  C   UNL     1       7.130   6.960  17.590  0.00  0.00    +0.000 A 
ATOM      3  C   UNL     1       8.038   6.643  18.583  0.00  0.00    +0.000 A 
ATOM      4  C   UNL     1       7.649   5.717  19.536  0.00  0.00    +0.000 A 
ATOM      5  N   UNL     1       6.448   5.079  19.535  0.00  0.00    +0.000 NA
ATOM      6  C   UNL     1       5.557   5.352  18.551  0.00  0.00    +0.000 A 
ENDROOT
BRANCH   6   7
ATOM      7  N   UNL     1       4.353   4.687  18.566  0.00  0.00    +0.000 N 
ATOM      8  C   UNL     1       3.455   4.797  19.722  0.00  0.00    +0.000 C 
ATOM      9  C   UNL     1       1.997   4.720  19.190  0.00  0.00    +0.000 C 
ATOM     10  N   UNL     1       1.710   3.538  18.339  0.00  0.00    +0.000 NA
ATOM     11  C   UNL     1       2.740   3.397  17.286  0.00  0.00    +0.000 C 
ATOM     12  C   UNL     1       4.176   3.416  17.852  0.00  0.00    +0.000 C 
ATOM     13  H   UNL     1       0.807   3.681  17.885  0.00  0.00    +0.000 HD
ENDBRANCH   6   7
BRANCH   1  15
ATOM     14  O   UNL     1       5.182   6.640  15.449  0.00  0.00    +0.000 OA
ATOM     15  N   UNL     1       4.907   6.788  16.651  0.00  0.00    +0.000 N 
ATOM     16  O   UNL     1       3.891   7.341  17.089  0.00  0.00    +0.000 OA
ENDBRANCH   1  15
TORSDOF 2
ENDMDL
MODEL 3
REMARK VINA RESULT:      -6.1      2.548      4.680
REMARK  Name = 
REMARK  2 active torsions:
REMARK  status: ('A' for Active; 'I' for Inactive)
REMARK    1  A    between atoms: N_2  and  C_4
REMARK    2  A    between atoms: C_9  and  N_10
REMARK                            x       y       z     vdW  Elec       q    Type
REMARK                         _______ _______ _______ _____ _____    ______ ____
ROOT
ATOM      1  C   UNL     1       6.031   5.530  17.247  0.00  0.00    +0.000 A 
ATOM      2  C   UNL     1       7.296   6.118  17.317  0.00  0.00    +0.000 A 
ATOM      3  C   UNL     1       7.926   6.177  18.547  0.00  0.00    +0.000 A 
ATOM      4  C   UNL     1       7.250   5.659  19.638  0.00  0.00    +0.000 A 
ATOM      5  N   UNL     1       6.027   5.070  19.571  0.00  0.00    +0.000 NA
ATOM      6  C   UNL     1       5.407   4.973  18.369  0.00  0.00    +0.000 A 
ENDROOT
BRANCH   6   7
ATOM      7  N   UNL     1       4.175   4.364  18.324  0.00  0.00    +0.000 N 
ATOM      8  C   UNL     1       2.955   5.125  18.625  0.00  0.00    +0.000 C 
ATOM      9  C   UNL     1       1.814   4.546  17.743  0.00  0.00    +0.000 C 
ATOM     10  N   UNL     1       1.628   3.077  17.856  0.00  0.00    +0.000 NA
ATOM     11  C   UNL     1       2.922   2.379  17.695  0.00  0.00    +0.000 C 
ATOM     12  C   UNL     1       4.019   2.935  18.628  0.00  0.00    +0.000 C 
ATOM     13  H   UNL     1       1.006   2.773  17.106  0.00  0.00    +0.000 HD
ENDBRANCH   6   7
BRANCH   1  15
ATOM     14  O   UNL     1       5.106   4.563  15.396  0.00  0.00    +0.000 OA
ATOM     15  N   UNL     1       5.333   5.630  15.991  0.00  0.00    +0.000 N 
ATOM     16  O   UNL     1       5.049   6.756  15.568  0.00  0.00    +0.000 OA
ENDBRANCH   1  15
TORSDOF 2
ENDMDL
MODEL 4
REMARK VINA RESULT:      -6.0      2.433      4.577
REMARK  Name = 
REMARK  2 active torsions:
REMARK  status: ('A' for Active; 'I' for Inactive)
REMARK    1  A    between atoms: N_2  and  C_4
REMARK    2  A    between atoms: C_9  and  N_10
REMARK                            x       y       z     vdW  Elec       q    Type
REMARK                         _______ _______ _______ _____ _____    ______ ____
ROOT
ATOM      1  C   UNL     1       6.284   4.878  17.287  0.00  0.00    +0.000 A 
ATOM      2  C   UNL     1       7.453   5.641  17.343  0.00  0.00    +0.000 A 
ATOM      3  C   UNL     1       7.907   6.056  18.581  0.00  0.00    +0.000 A 
ATOM      4  C   UNL     1       7.160   5.698  19.691  0.00  0.00    +0.000 A 
ATOM      5  N   UNL     1       6.033   4.941  19.642  0.00  0.00    +0.000 NA
ATOM      6  C   UNL     1       5.589   4.497  18.440  0.00  0.00    +0.000 A 
ENDROOT
BRANCH   6   7
ATOM      7  N   UNL     1       4.451   3.725  18.416  0.00  0.00    +0.000 N 
ATOM      8  C   UNL     1       3.148   4.326  18.107  0.00  0.00    +0.000 C 
ATOM      9  C   UNL     1       2.308   3.257  17.353  0.00  0.00    +0.000 C 
ATOM     10  N   UNL     1       2.197   1.951  18.049  0.00  0.00    +0.000 NA
ATOM     11  C   UNL     1       3.533   1.475  18.469  0.00  0.00    +0.000 C 
ATOM     12  C   UNL     1       4.319   2.536  19.269  0.00  0.00    +0.000 C 
ATOM     13  H   UNL     1       1.807   1.271  17.396  0.00  0.00    +0.000 HD
ENDBRANCH   6   7
BRANCH   1  15
ATOM     14  O   UNL     1       5.118   5.521  15.432  0.00  0.00    +0.000 OA
ATOM     15  N   UNL     1       5.747   4.601  15.979  0.00  0.00    +0.000 N 
ATOM     16  O   UNL     1       5.905   3.468  15.510  0.00  0.00    +0.000 OA
ENDBRANCH   1  15
TORSDOF 2
ENDMDL
MODEL 5
REMARK VINA RESULT:      -5.9      0.516      1.357
REMARK  Name = 
REMARK  2 active torsions:
REMARK  status: ('A' for Active; 'I' for Inactive)
REMARK    1  A    between atoms: N_2  and  C_4
REMARK    2  A    between atoms: C_9  and  N_10
REMARK                            x       y       z     vdW  Elec       q    Type
REMARK                         _______ _______ _______ _____ _____    ______ ____
ROOT
ATOM      1  C   UNL     1       3.428   3.664  19.488  0.00  0.00    +0.000 A 
ATOM      2  C   UNL     1       2.319   3.811  20.324  0.00  0.00    +0.000 A 
ATOM      3  C   UNL     1       1.780   5.074  20.486  0.00  0.00    +0.000 A 
ATOM      4  C   UNL     1       2.390   6.120  19.816  0.00  0.00    +0.000 A 
ATOM      5  N   UNL     1       3.458   5.979  18.987  0.00  0.00    +0.000 NA
ATOM      6  C   UNL     1       3.980   4.744  18.789  0.00  0.00    +0.000 A 
ENDROOT
BRANCH   6   7
ATOM      7  N   UNL     1       5.054   4.624  17.939  0.00  0.00    +0.000 N 
ATOM      8  C   UNL     1       4.927   3.890  16.674  0.00  0.00    +0.000 C 
ATOM      9  C   UNL     1       5.857   4.580  15.638  0.00  0.00    +0.000 C 
ATOM     10  N   UNL     1       7.265   4.742  16.080  0.00  0.00    +0.000 NA
ATOM     11  C   UNL     1       7.317   5.348  17.428  0.00  0.00    +0.000 C 
ATOM     12  C   UNL     1       6.431   4.604  18.450  0.00  0.00    +0.000 C 
ATOM     13  H   UNL     1       7.737   5.370  15.428  0.00  0.00    +0.000 HD
ENDBRANCH   6   7
BRANCH   1  15
ATOM     14  O   UNL     1       3.624   1.550  18.648  0.00  0.00    +0.000 OA
ATOM     15  N   UNL     1       4.065   2.372  19.467  0.00  0.00    +0.000 N 
ATOM     16  O   UNL     1       4.965   2.150  20.286  0.00  0.00    +0.000 OA
ENDBRANCH   1  15
TORSDOF 2
ENDMDL
MODEL 6
REMARK VINA RESULT:      -5.9      2.115      2.950
REMARK  Name = 
REMARK  2 active torsions:
REMARK  status: ('A' for Active; 'I' for Inactive)
REMARK    1  A    between atoms: N_2  and  C_4
REMARK    2  A    between atoms: C_9  and  N_10
REMARK                            x       y       z     vdW  Elec       q    Type
REMARK                         _______ _______ _______ _____ _____    ______ ____
ROOT
ATOM      1  C   UNL     1       2.049   4.161  19.255  0.00  0.00    +0.000 A 
ATOM      2  C   UNL     1       1.027   3.855  20.156  0.00  0.00    +0.000 A 
ATOM      3  C   UNL     1       1.324   3.046  21.238  0.00  0.00    +0.000 A 
ATOM      4  C   UNL     1       2.622   2.577  21.348  0.00  0.00    +0.000 A 
ATOM      5  N   UNL     1       3.624   2.888  20.483  0.00  0.00    +0.000 NA
ATOM      6  C   UNL     1       3.359   3.706  19.435  0.00  0.00    +0.000 A 
ENDROOT
BRANCH   6   7
ATOM      7  N   UNL     1       4.391   4.013  18.578  0.00  0.00    +0.000 N 
ATOM      8  C   UNL     1       4.598   3.235  17.350  0.00  0.00    +0.000 C 
ATOM      9  C   UNL     1       5.158   4.205  16.272  0.00  0.00    +0.000 C 
ATOM     10  N   UNL     1       6.360   4.967  16.689  0.00  0.00    +0.000 NA
ATOM     11  C   UNL     1       6.139   5.601  18.008  0.00  0.00    +0.000 C 
ATOM     12  C   UNL     1       5.642   4.601  19.073  0.00  0.00    +0.000 C 
ATOM     13  H   UNL     1       6.527   5.705  16.004  0.00  0.00    +0.000 HD
ENDBRANCH   6   7
BRANCH   1  15
ATOM     14  O   UNL     1       2.002   6.062  17.990  0.00  0.00    +0.000 OA
ATOM     15  N   UNL     1       1.673   4.866  18.056  0.00  0.00    +0.000 N 
ATOM     16  O   UNL     1       1.016   4.259  17.202  0.00  0.00    +0.000 OA
ENDBRANCH   1  15
TORSDOF 2
ENDMDL
MODEL 7
REMARK VINA RESULT:      -5.9      1.336      1.690
REMARK  Name = 
REMARK  2 active torsions:
REMARK  status: ('A' for Active; 'I' for Inactive)
REMARK    1  A    between atoms: N_2  and  C_4
REMARK    2  A    between atoms: C_9  and  N_10
REMARK                            x       y       z     vdW  Elec       q    Type
REMARK                         _______ _______ _______ _____ _____    ______ ____
ROOT
ATOM      1  C   UNL     1       2.485   3.401  18.794  0.00  0.00    +0.000 A 
ATOM      2  C   UNL     1       1.384   2.985  19.546  0.00  0.00    +0.000 A 
ATOM      3  C   UNL     1       1.099   3.655  20.721  0.00  0.00    +0.000 A 
ATOM      4  C   UNL     1       1.939   4.694  21.085  0.00  0.00    +0.000 A 
ATOM      5  N   UNL     1       3.000   5.114  20.347  0.00  0.00    +0.000 NA
ATOM      6  C   UNL     1       3.277   4.490  19.175  0.00  0.00    +0.000 A 
ENDROOT
BRANCH   6   7
ATOM      7  N   UNL     1       4.350   4.939  18.442  0.00  0.00    +0.000 N 
ATOM      8  C   UNL     1       5.697   4.956  19.024  0.00  0.00    +0.000 C 
ATOM      9  C   UNL     1       6.706   4.674  17.877  0.00  0.00    +0.000 C 
ATOM     10  N   UNL     1       6.569   5.564  16.698  0.00  0.00    +0.000 NA
ATOM     11  C   UNL     1       5.159   5.622  16.254  0.00  0.00    +0.000 C 
ATOM     12  C   UNL     1       4.187   5.965  17.403  0.00  0.00    +0.000 C 
ATOM     13  H   UNL     1       7.128   5.178  15.936  0.00  0.00    +0.000 HD
ENDBRANCH   6   7
BRANCH   1  15
ATOM     14  O   UNL     1       3.590   1.612  17.902  0.00  0.00    +0.000 OA
ATOM     15  N   UNL     1       2.853   2.584  17.666  0.00  0.00    +0.000 N 
ATOM     16  O   UNL     1       2.456   2.921  16.545  0.00  0.00    +0.000 OA
ENDBRANCH   1  15
TORSDOF 2
ENDMDL
MODEL 8
REMARK VINA RESULT:      -5.8      1.938      4.769
REMARK  Name = 
REMARK  2 active torsions:
REMARK  status: ('A' for Active; 'I' for Inactive)
REMARK    1  A    between atoms: N_2  and  C_4
REMARK    2  A    between atoms: C_9  and  N_10
REMARK                            x       y       z     vdW  Elec       q    Type
REMARK                         _______ _______ _______ _____ _____    ______ ____
ROOT
ATOM      1  C   UNL     1       5.940   4.557  17.680  0.00  0.00    +0.000 A 
ATOM      2  C   UNL     1       7.158   4.723  17.016  0.00  0.00    +0.000 A 
ATOM      3  C   UNL     1       7.163   4.692  15.634  0.00  0.00    +0.000 A 
ATOM      4  C   UNL     1       5.954   4.481  14.994  0.00  0.00    +0.000 A 
ATOM      5  N   UNL     1       4.764   4.337  15.635  0.00  0.00    +0.000 NA
ATOM      6  C   UNL     1       4.734   4.397  16.989  0.00  0.00    +0.000 A 
ENDROOT
BRANCH   6   7
ATOM      7  N   UNL     1       3.517   4.258  17.615  0.00  0.00    +0.000 N 
ATOM      8  C   UNL     1       2.632   3.133  17.285  0.00  0.00    +0.000 C 
ATOM      9  C   UNL     1       1.865   2.747  18.580  0.00  0.00    +0.000 C 
ATOM     10  N   UNL     1       1.156   3.872  19.240  0.00  0.00    +0.000 NA
ATOM     11  C   UNL     1       2.064   5.029  19.404  0.00  0.00    +0.000 C 
ATOM     12  C   UNL     1       2.765   5.428  18.088  0.00  0.00    +0.000 C 
ATOM     13  H   UNL     1       0.858   3.565  20.166  0.00  0.00    +0.000 HD
ENDBRANCH   6   7
BRANCH   1  15
ATOM     14  O   UNL     1       6.592   5.325  19.729  0.00  0.00    +0.000 OA
ATOM     15  N   UNL     1       5.989   4.430  19.114  0.00  0.00    +0.000 N 
ATOM     16  O   UNL     1       5.476   3.431  19.631  0.00  0.00    +0.000 OA
ENDBRANCH   1  15
TORSDOF 2
ENDMDL
MODEL 9
REMARK VINA RESULT:      -5.7      2.698      4.772
REMARK  Name = 
REMARK  2 active torsions:
REMARK  status: ('A' for Active; 'I' for Inactive)
REMARK    1  A    between atoms: N_2  and  C_4
REMARK    2  A    between atoms: C_9  and  N_10
REMARK                            x       y       z     vdW  Elec       q    Type
REMARK                         _______ _______ _______ _____ _____    ______ ____
ROOT
ATOM      1  C   UNL     1       6.069   5.618  17.101  0.00  0.00    +0.000 A 
ATOM      2  C   UNL     1       7.323   6.196  17.316  0.00  0.00    +0.000 A 
ATOM      3  C   UNL     1       7.860   6.146  18.589  0.00  0.00    +0.000 A 
ATOM      4  C   UNL     1       7.108   5.536  19.578  0.00  0.00    +0.000 A 
ATOM      5  N   UNL     1       5.896   4.957  19.369  0.00  0.00    +0.000 NA
ATOM      6  C   UNL     1       5.367   4.967  18.121  0.00  0.00    +0.000 A 
ENDROOT
BRANCH   6   7
ATOM      7  N   UNL     1       4.144   4.367  17.932  0.00  0.00    +0.000 N 
ATOM      8  C   UNL     1       4.045   3.073  17.247  0.00  0.00    +0.000 C 
ATOM      9  C   UNL     1       2.857   2.297  17.882  0.00  0.00    +0.000 C 
ATOM     10  N   UNL     1       1.574   3.042  17.909  0.00  0.00    +0.000 NA
ATOM     11  C   UNL     1       1.774   4.396  18.471  0.00  0.00    +0.000 C 
ATOM     12  C   UNL     1       2.920   5.165  17.778  0.00  0.00    +0.000 C 
ATOM     13  H   UNL     1       0.922   2.539  18.512  0.00  0.00    +0.000 HD
ENDBRANCH   6   7
BRANCH   1  15
ATOM     14  O   UNL     1       5.568   4.900  14.992  0.00  0.00    +0.000 OA
ATOM     15  N   UNL     1       5.466   5.829  15.810  0.00  0.00    +0.000 N 
ATOM     16  O   UNL     1       4.932   6.921  15.585  0.00  0.00    +0.000 OA
ENDBRANCH   1  15
TORSDOF 2
ENDMDL
