MODEL 1
REMARK VINA RESULT:      -8.6      0.000      0.000
REMARK  Name = 
REMARK  6 active torsions:
REMARK  status: ('A' for Active; 'I' for Inactive)
REMARK    1  A    between atoms: C_1  and  N_2
REMARK    2  A    between atoms: N_2  and  C_3
REMARK    3  A    between atoms: C_4  and  C_6
REMARK    4  A    between atoms: C_9  and  N_10
REMARK    5  A    between atoms: C_11  and  C_13
REMARK    6  A    between atoms: C_13  and  C_14
REMARK                            x       y       z     vdW  Elec       q    Type
REMARK                         _______ _______ _______ _____ _____    ______ ____
ROOT
ATOM      1  N   UNL     1       8.897   8.771  18.966  0.00  0.00    +0.000 N 
ATOM      2  C   UNL     1       7.955   8.327  18.048  0.00  0.00    +0.000 C 
ATOM      3  O   UNL     1       7.423   9.004  17.173  0.00  0.00    +0.000 OA
ATOM      4  H   UNL     1       9.394   8.081  19.523  0.00  0.00    +0.000 HD
ENDROOT
BRANCH   1   8
ATOM      5  C   UNL     1      10.277  12.758  19.398  0.00  0.00    +0.000 A 
ATOM      6  C   UNL     1      10.298  12.139  18.151  0.00  0.00    +0.000 A 
ATOM      7  C   UNL     1       9.798  10.846  17.993  0.00  0.00    +0.000 A 
ATOM      8  C   UNL     1       9.340  10.109  19.087  0.00  0.00    +0.000 A 
ATOM      9  C   UNL     1       9.338  10.718  20.348  0.00  0.00    +0.000 A 
ATOM     10  C   UNL     1       9.815  12.031  20.505  0.00  0.00    +0.000 A 
BRANCH   5  14
ATOM     11  C   UNL     1      10.616  16.557  19.529  0.00  0.00    +0.000 C 
ATOM     12  N   UNL     1       9.984  15.252  19.444  0.00  0.00    +0.000 N 
ATOM     13  C   UNL     1       8.531  15.227  19.344  0.00  0.00    +0.000 C 
ATOM     14  C   UNL     1      10.813  14.134  19.598  0.00  0.00    +0.000 C 
ATOM     15  O   UNL     1      12.004  14.240  19.895  0.00  0.00    +0.000 OA
ENDBRANCH   5  14
ENDBRANCH   1   8
BRANCH   2  16
ATOM     16  C   UNL     1       7.593   6.861  18.169  0.00  0.00    +0.000 C 
BRANCH  16  17
ATOM     17  C   UNL     1       6.698   6.358  17.042  0.00  0.00    +0.000 C 
ATOM     18  S   UNL     1       4.914   6.522  17.320  0.00  0.00    +0.000 S 
ATOM     19  C   UNL     1       4.735   4.777  17.328  0.00  0.00    +0.000 C 
ATOM     20  N   UNL     1       3.524   4.218  17.636  0.00  0.00    +0.000 N 
ATOM     21  C   UNL     1       2.267   4.907  17.877  0.00  0.00    +0.000 C 
ATOM     22  C   UNL     1       1.488   3.929  18.745  0.00  0.00    +0.000 C 
ATOM     23  C   UNL     1       1.911   2.571  18.212  0.00  0.00    +0.000 C 
ATOM     24  C   UNL     1       3.358   2.773  17.764  0.00  0.00    +0.000 C 
ATOM     25  N   UNL     1       5.796   4.097  17.048  0.00  0.00    +0.000 NA
ATOM     26  C   UNL     1       6.904   4.877  16.820  0.00  0.00    +0.000 C 
ATOM     27  O   UNL     1       8.008   4.424  16.533  0.00  0.00    +0.000 OA
ENDBRANCH  16  17
ENDBRANCH   2  16
TORSDOF 4
ENDMDL
MODEL 2
REMARK VINA RESULT:      -8.5      0.367      1.008
REMARK  Name = 
REMARK  6 active torsions:
REMARK  status: ('A' for Active; 'I' for Inactive)
REMARK    1  A    between atoms: C_1  and  N_2
REMARK    2  A    between atoms: N_2  and  C_3
REMARK    3  A    between atoms: C_4  and  C_6
REMARK    4  A    between atoms: C_9  and  N_10
REMARK    5  A    between atoms: C_11  and  C_13
REMARK    6  A    between atoms: C_13  and  C_14
REMARK                            x       y       z     vdW  Elec       q    Type
REMARK                         _______ _______ _______ _____ _____    ______ ____
ROOT
ATOM      1  N   UNL     1       8.953   8.844  19.033  0.00  0.00    +0.000 N 
ATOM      2  C   UNL     1       8.027   8.361  18.117  0.00  0.00    +0.000 C 
ATOM      3  O   UNL     1       7.480   9.010  17.231  0.00  0.00    +0.000 OA
ATOM      4  H   UNL     1       9.466   8.176  19.601  0.00  0.00    +0.000 HD
ENDROOT
BRANCH   1   8
ATOM      5  C   UNL     1      10.119  12.915  19.268  0.00  0.00    +0.000 A 
ATOM      6  C   UNL     1       9.549  12.282  20.370  0.00  0.00    +0.000 A 
ATOM      7  C   UNL     1       9.211  10.930  20.316  0.00  0.00    +0.000 A 
ATOM      8  C   UNL     1       9.356  10.196  19.137  0.00  0.00    +0.000 A 
ATOM      9  C   UNL     1       9.907  10.832  18.017  0.00  0.00    +0.000 A 
ATOM     10  C   UNL     1      10.274  12.188  18.079  0.00  0.00    +0.000 A 
BRANCH   5  14
ATOM     11  C   UNL     1      10.046  16.702  18.805  0.00  0.00    +0.000 C 
ATOM     12  N   UNL     1       9.567  15.332  18.868  0.00  0.00    +0.000 N 
ATOM     13  C   UNL     1       8.150  15.115  18.613  0.00  0.00    +0.000 C 
ATOM     14  C   UNL     1      10.480  14.360  19.295  0.00  0.00    +0.000 C 
ATOM     15  O   UNL     1      11.605  14.655  19.701  0.00  0.00    +0.000 OA
ENDBRANCH   5  14
ENDBRANCH   1   8
BRANCH   2  16
ATOM     16  C   UNL     1       7.707   6.887  18.257  0.00  0.00    +0.000 C 
BRANCH  16  17
ATOM     17  C   UNL     1       6.840   6.340  17.129  0.00  0.00    +0.000 C 
ATOM     18  S   UNL     1       5.052   6.566  17.329  0.00  0.00    +0.000 S 
ATOM     19  C   UNL     1       4.825   4.830  17.432  0.00  0.00    +0.000 C 
ATOM     20  N   UNL     1       3.588   4.321  17.727  0.00  0.00    +0.000 N 
ATOM     21  C   UNL     1       2.343   5.054  17.879  0.00  0.00    +0.000 C 
ATOM     22  C   UNL     1       1.507   4.150  18.773  0.00  0.00    +0.000 C 
ATOM     23  C   UNL     1       1.911   2.753  18.336  0.00  0.00    +0.000 C 
ATOM     24  C   UNL     1       3.378   2.891  17.933  0.00  0.00    +0.000 C 
ATOM     25  N   UNL     1       5.876   4.107  17.233  0.00  0.00    +0.000 NA
ATOM     26  C   UNL     1       7.013   4.844  17.002  0.00  0.00    +0.000 C 
ATOM     27  O   UNL     1       8.114   4.347  16.784  0.00  0.00    +0.000 OA
ENDBRANCH  16  17
ENDBRANCH   2  16
TORSDOF 4
ENDMDL
MODEL 3
REMARK VINA RESULT:      -8.4      6.034      6.925
REMARK  Name = 
REMARK  6 active torsions:
REMARK  status: ('A' for Active; 'I' for Inactive)
REMARK    1  A    between atoms: C_1  and  N_2
REMARK    2  A    between atoms: N_2  and  C_3
REMARK    3  A    between atoms: C_4  and  C_6
REMARK    4  A    between atoms: C_9  and  N_10
REMARK    5  A    between atoms: C_11  and  C_13
REMARK    6  A    between atoms: C_13  and  C_14
REMARK                            x       y       z     vdW  Elec       q    Type
REMARK                         _______ _______ _______ _____ _____    ______ ____
ROOT
ATOM      1  N   UNL     1       3.602   6.439  17.430  0.00  0.00    +0.000 N 
ATOM      2  C   UNL     1       4.932   6.634  17.082  0.00  0.00    +0.000 C 
ATOM      3  O   UNL     1       5.639   7.576  17.425  0.00  0.00    +0.000 OA
ATOM      4  H   UNL     1       3.177   5.537  17.233  0.00  0.00    +0.000 HD
ENDROOT
BRANCH   1   8
ATOM      5  C   UNL     1       1.320   9.155  19.752  0.00  0.00    +0.000 A 
ATOM      6  C   UNL     1       1.722   9.499  18.464  0.00  0.00    +0.000 A 
ATOM      7  C   UNL     1       2.428   8.589  17.676  0.00  0.00    +0.000 A 
ATOM      8  C   UNL     1       2.822   7.349  18.181  0.00  0.00    +0.000 A 
ATOM      9  C   UNL     1       2.441   7.007  19.485  0.00  0.00    +0.000 A 
ATOM     10  C   UNL     1       1.704   7.911  20.270  0.00  0.00    +0.000 A 
BRANCH   5  14
ATOM     11  C   UNL     1      -1.194  11.733  21.017  0.00  0.00    +0.000 C 
ATOM     12  N   UNL     1      -0.602  10.720  20.161  0.00  0.00    +0.000 N 
ATOM     13  C   UNL     1      -1.353  10.337  18.974  0.00  0.00    +0.000 C 
ATOM     14  C   UNL     1       0.572  10.110  20.619  0.00  0.00    +0.000 C 
ATOM     15  O   UNL     1       1.032  10.337  21.739  0.00  0.00    +0.000 OA
ENDBRANCH   5  14
ENDBRANCH   1   8
BRANCH   2  16
ATOM     16  C   UNL     1       5.524   5.547  16.208  0.00  0.00    +0.000 C 
BRANCH  16  17
ATOM     17  C   UNL     1       5.495   4.164  16.849  0.00  0.00    +0.000 C 
ATOM     18  S   UNL     1       3.856   3.411  17.026  0.00  0.00    +0.000 S 
ATOM     19  C   UNL     1       3.993   3.474  18.773  0.00  0.00    +0.000 C 
ATOM     20  N   UNL     1       2.925   3.122  19.554  0.00  0.00    +0.000 N 
ATOM     21  C   UNL     1       1.651   2.579  19.116  0.00  0.00    +0.000 C 
ATOM     22  C   UNL     1       0.697   2.967  20.238  0.00  0.00    +0.000 C 
ATOM     23  C   UNL     1       1.562   2.871  21.483  0.00  0.00    +0.000 C 
ATOM     24  C   UNL     1       2.958   3.267  21.007  0.00  0.00    +0.000 C 
ATOM     25  N   UNL     1       5.128   3.878  19.239  0.00  0.00    +0.000 NA
ATOM     26  C   UNL     1       6.032   4.221  18.261  0.00  0.00    +0.000 C 
ATOM     27  O   UNL     1       7.168   4.622  18.495  0.00  0.00    +0.000 OA
ENDBRANCH  16  17
ENDBRANCH   2  16
TORSDOF 4
ENDMDL
MODEL 4
REMARK VINA RESULT:      -8.3      1.475      1.555
REMARK  Name = 
REMARK  6 active torsions:
REMARK  status: ('A' for Active; 'I' for Inactive)
REMARK    1  A    between atoms: C_1  and  N_2
REMARK    2  A    between atoms: N_2  and  C_3
REMARK    3  A    between atoms: C_4  and  C_6
REMARK    4  A    between atoms: C_9  and  N_10
REMARK    5  A    between atoms: C_11  and  C_13
REMARK    6  A    between atoms: C_13  and  C_14
REMARK                            x       y       z     vdW  Elec       q    Type
REMARK                         _______ _______ _______ _____ _____    ______ ____
ROOT
ATOM      1  N   UNL     1       8.916   9.166  18.943  0.00  0.00    +0.000 N 
ATOM      2  C   UNL     1       8.258   8.306  18.073  0.00  0.00    +0.000 C 
ATOM      3  O   UNL     1       7.939   8.554  16.915  0.00  0.00    +0.000 OA
ATOM      4  H   UNL     1       9.282   8.788  19.813  0.00  0.00    +0.000 HD
ENDROOT
BRANCH   1   8
ATOM      5  C   UNL     1      10.018  13.158  18.033  0.00  0.00    +0.000 A 
ATOM      6  C   UNL     1       8.793  12.652  17.603  0.00  0.00    +0.000 A 
ATOM      7  C   UNL     1       8.403  11.356  17.943  0.00  0.00    +0.000 A 
ATOM      8  C   UNL     1       9.256  10.507  18.650  0.00  0.00    +0.000 A 
ATOM      9  C   UNL     1      10.499  11.002  19.065  0.00  0.00    +0.000 A 
ATOM     10  C   UNL     1      10.882  12.317  18.747  0.00  0.00    +0.000 A 
BRANCH   5  14
ATOM     11  C   UNL     1      10.378  16.955  17.897  0.00  0.00    +0.000 C 
ATOM     12  N   UNL     1       9.996  15.644  18.392  0.00  0.00    +0.000 N 
ATOM     13  C   UNL     1       9.278  15.599  19.658  0.00  0.00    +0.000 C 
ATOM     14  C   UNL     1      10.464  14.535  17.677  0.00  0.00    +0.000 C 
ATOM     15  O   UNL     1      11.249  14.650  16.734  0.00  0.00    +0.000 OA
ENDBRANCH   5  14
ENDBRANCH   1   8
BRANCH   2  16
ATOM     16  C   UNL     1       7.940   6.942  18.650  0.00  0.00    +0.000 C 
BRANCH  16  17
ATOM     17  C   UNL     1       6.974   6.128  17.797  0.00  0.00    +0.000 C 
ATOM     18  S   UNL     1       5.212   6.372  18.149  0.00  0.00    +0.000 S 
ATOM     19  C   UNL     1       5.070   4.709  18.689  0.00  0.00    +0.000 C 
ATOM     20  N   UNL     1       3.897   4.270  19.242  0.00  0.00    +0.000 N 
ATOM     21  C   UNL     1       2.648   5.003  19.362  0.00  0.00    +0.000 C 
ATOM     22  C   UNL     1       1.955   4.330  20.539  0.00  0.00    +0.000 C 
ATOM     23  C   UNL     1       2.365   2.874  20.403  0.00  0.00    +0.000 C 
ATOM     24  C   UNL     1       3.770   2.930  19.806  0.00  0.00    +0.000 C 
ATOM     25  N   UNL     1       6.121   3.974  18.544  0.00  0.00    +0.000 NA
ATOM     26  C   UNL     1       7.193   4.648  18.009  0.00  0.00    +0.000 C 
ATOM     27  O   UNL     1       8.282   4.127  17.786  0.00  0.00    +0.000 OA
ENDBRANCH  16  17
ENDBRANCH   2  16
TORSDOF 4
ENDMDL
MODEL 5
REMARK VINA RESULT:      -8.0      5.819      6.818
REMARK  Name = 
REMARK  6 active torsions:
REMARK  status: ('A' for Active; 'I' for Inactive)
REMARK    1  A    between atoms: C_1  and  N_2
REMARK    2  A    between atoms: N_2  and  C_3
REMARK    3  A    between atoms: C_4  and  C_6
REMARK    4  A    between atoms: C_9  and  N_10
REMARK    5  A    between atoms: C_11  and  C_13
REMARK    6  A    between atoms: C_13  and  C_14
REMARK                            x       y       z     vdW  Elec       q    Type
REMARK                         _______ _______ _______ _____ _____    ______ ____
ROOT
ATOM      1  N   UNL     1       3.508   6.416  17.484  0.00  0.00    +0.000 N 
ATOM      2  C   UNL     1       4.829   6.604  17.099  0.00  0.00    +0.000 C 
ATOM      3  O   UNL     1       5.558   7.529  17.442  0.00  0.00    +0.000 OA
ATOM      4  H   UNL     1       3.066   5.524  17.279  0.00  0.00    +0.000 HD
ENDROOT
BRANCH   1   8
ATOM      5  C   UNL     1       1.213   9.118  19.811  0.00  0.00    +0.000 A 
ATOM      6  C   UNL     1       1.688   7.935  20.373  0.00  0.00    +0.000 A 
ATOM      7  C   UNL     1       2.487   7.067  19.628  0.00  0.00    +0.000 A 
ATOM      8  C   UNL     1       2.764   7.316  18.282  0.00  0.00    +0.000 A 
ATOM      9  C   UNL     1       2.269   8.492  17.705  0.00  0.00    +0.000 A 
ATOM     10  C   UNL     1       1.487   9.382  18.462  0.00  0.00    +0.000 A 
BRANCH   5  14
ATOM     11  C   UNL     1      -0.168  12.249  21.501  0.00  0.00    +0.000 C 
ATOM     12  N   UNL     1       0.647  11.426  20.624  0.00  0.00    +0.000 N 
ATOM     13  C   UNL     1       1.605  12.116  19.772  0.00  0.00    +0.000 C 
ATOM     14  C   UNL     1       0.350  10.058  20.581  0.00  0.00    +0.000 C 
ATOM     15  O   UNL     1      -0.620   9.581  21.172  0.00  0.00    +0.000 OA
ENDBRANCH   5  14
ENDBRANCH   1   8
BRANCH   2  16
ATOM     16  C   UNL     1       5.380   5.532  16.180  0.00  0.00    +0.000 C 
BRANCH  16  17
ATOM     17  C   UNL     1       5.373   4.137  16.796  0.00  0.00    +0.000 C 
ATOM     18  S   UNL     1       3.740   3.389  17.036  0.00  0.00    +0.000 S 
ATOM     19  C   UNL     1       3.960   3.418  18.776  0.00  0.00    +0.000 C 
ATOM     20  N   UNL     1       2.928   3.056  19.600  0.00  0.00    +0.000 N 
ATOM     21  C   UNL     1       1.631   2.528  19.212  0.00  0.00    +0.000 C 
ATOM     22  C   UNL     1       0.734   2.898  20.385  0.00  0.00    +0.000 C 
ATOM     23  C   UNL     1       1.656   2.775  21.586  0.00  0.00    +0.000 C 
ATOM     24  C   UNL     1       3.030   3.173  21.051  0.00  0.00    +0.000 C 
ATOM     25  N   UNL     1       5.118   3.807  19.194  0.00  0.00    +0.000 NA
ATOM     26  C   UNL     1       5.976   4.165  18.182  0.00  0.00    +0.000 C 
ATOM     27  O   UNL     1       7.124   4.556  18.369  0.00  0.00    +0.000 OA
ENDBRANCH  16  17
ENDBRANCH   2  16
TORSDOF 4
ENDMDL
MODEL 6
REMARK VINA RESULT:      -8.0      6.283      7.763
REMARK  Name = 
REMARK  6 active torsions:
REMARK  status: ('A' for Active; 'I' for Inactive)
REMARK    1  A    between atoms: C_1  and  N_2
REMARK    2  A    between atoms: N_2  and  C_3
REMARK    3  A    between atoms: C_4  and  C_6
REMARK    4  A    between atoms: C_9  and  N_10
REMARK    5  A    between atoms: C_11  and  C_13
REMARK    6  A    between atoms: C_13  and  C_14
REMARK                            x       y       z     vdW  Elec       q    Type
REMARK                         _______ _______ _______ _____ _____    ______ ____
ROOT
ATOM      1  N   UNL     1       2.546   5.699  20.420  0.00  0.00    +0.000 N 
ATOM      2  C   UNL     1       1.722   4.597  20.606  0.00  0.00    +0.000 C 
ATOM      3  O   UNL     1       0.519   4.546  20.370  0.00  0.00    +0.000 OA
ATOM      4  H   UNL     1       3.552   5.569  20.483  0.00  0.00    +0.000 HD
ENDROOT
BRANCH   1   8
ATOM      5  C   UNL     1       1.262   9.559  19.221  0.00  0.00    +0.000 A 
ATOM      6  C   UNL     1       1.957   8.742  18.332  0.00  0.00    +0.000 A 
ATOM      7  C   UNL     1       2.337   7.452  18.704  0.00  0.00    +0.000 A 
ATOM      8  C   UNL     1       2.105   6.975  19.995  0.00  0.00    +0.000 A 
ATOM      9  C   UNL     1       1.427   7.800  20.901  0.00  0.00    +0.000 A 
ATOM     10  C   UNL     1       1.020   9.090  20.520  0.00  0.00    +0.000 A 
BRANCH   5  14
ATOM     11  C   UNL     1      -0.743  12.566  17.995  0.00  0.00    +0.000 C 
ATOM     12  N   UNL     1      -0.463  11.219  18.459  0.00  0.00    +0.000 N 
ATOM     13  C   UNL     1      -1.599  10.319  18.600  0.00  0.00    +0.000 C 
ATOM     14  C   UNL     1       0.853  10.945  18.854  0.00  0.00    +0.000 C 
ATOM     15  O   UNL     1       1.714  11.823  18.909  0.00  0.00    +0.000 OA
ENDBRANCH   5  14
ENDBRANCH   1   8
BRANCH   2  16
ATOM     16  C   UNL     1       2.423   3.365  21.139  0.00  0.00    +0.000 C 
BRANCH  16  17
ATOM     17  C   UNL     1       3.178   2.581  20.071  0.00  0.00    +0.000 C 
ATOM     18  S   UNL     1       4.827   3.206  19.653  0.00  0.00    +0.000 S 
ATOM     19  C   UNL     1       4.291   3.591  18.028  0.00  0.00    +0.000 C 
ATOM     20  N   UNL     1       5.128   4.260  17.175  0.00  0.00    +0.000 N 
ATOM     21  C   UNL     1       6.513   4.632  17.406  0.00  0.00    +0.000 C 
ATOM     22  C   UNL     1       6.719   5.823  16.480  0.00  0.00    +0.000 C 
ATOM     23  C   UNL     1       5.859   5.483  15.275  0.00  0.00    +0.000 C 
ATOM     24  C   UNL     1       4.684   4.699  15.855  0.00  0.00    +0.000 C 
ATOM     25  N   UNL     1       3.091   3.223  17.724  0.00  0.00    +0.000 NA
ATOM     26  C   UNL     1       2.426   2.611  18.760  0.00  0.00    +0.000 C 
ATOM     27  O   UNL     1       1.280   2.182  18.673  0.00  0.00    +0.000 OA
ENDBRANCH  16  17
ENDBRANCH   2  16
TORSDOF 4
ENDMDL
MODEL 7
REMARK VINA RESULT:      -8.0      6.044      7.063
REMARK  Name = 
REMARK  6 active torsions:
REMARK  status: ('A' for Active; 'I' for Inactive)
REMARK    1  A    between atoms: C_1  and  N_2
REMARK    2  A    between atoms: N_2  and  C_3
REMARK    3  A    between atoms: C_4  and  C_6
REMARK    4  A    between atoms: C_9  and  N_10
REMARK    5  A    between atoms: C_11  and  C_13
REMARK    6  A    between atoms: C_13  and  C_14
REMARK                            x       y       z     vdW  Elec       q    Type
REMARK                         _______ _______ _______ _____ _____    ______ ____
ROOT
ATOM      1  N   UNL     1       3.495   6.575  17.438  0.00  0.00    +0.000 N 
ATOM      2  C   UNL     1       4.860   6.704  17.220  0.00  0.00    +0.000 C 
ATOM      3  O   UNL     1       5.597   7.542  17.730  0.00  0.00    +0.000 OA
ATOM      4  H   UNL     1       3.027   5.738  17.100  0.00  0.00    +0.000 HD
ENDROOT
BRANCH   1   8
ATOM      5  C   UNL     1       1.104   9.205  19.752  0.00  0.00    +0.000 A 
ATOM      6  C   UNL     1       1.541   7.996  20.289  0.00  0.00    +0.000 A 
ATOM      7  C   UNL     1       2.370   7.151  19.551  0.00  0.00    +0.000 A 
ATOM      8  C   UNL     1       2.717   7.450  18.232  0.00  0.00    +0.000 A 
ATOM      9  C   UNL     1       2.262   8.653  17.678  0.00  0.00    +0.000 A 
ATOM     10  C   UNL     1       1.449   9.519  18.430  0.00  0.00    +0.000 A 
BRANCH   5  14
ATOM     11  C   UNL     1      -0.842  10.898  22.564  0.00  0.00    +0.000 C 
ATOM     12  N   UNL     1       0.149  10.060  21.911  0.00  0.00    +0.000 N 
ATOM     13  C   UNL     1       1.076   9.339  22.773  0.00  0.00    +0.000 C 
ATOM     14  C   UNL     1       0.210  10.122  20.514  0.00  0.00    +0.000 C 
ATOM     15  O   UNL     1      -0.467  10.922  19.865  0.00  0.00    +0.000 OA
ENDBRANCH   5  14
ENDBRANCH   1   8
BRANCH   2  16
ATOM     16  C   UNL     1       5.449   5.683  16.268  0.00  0.00    +0.000 C 
BRANCH  16  17
ATOM     17  C   UNL     1       5.427   4.258  16.811  0.00  0.00    +0.000 C 
ATOM     18  S   UNL     1       3.785   3.521  17.025  0.00  0.00    +0.000 S 
ATOM     19  C   UNL     1       4.020   3.457  18.763  0.00  0.00    +0.000 C 
ATOM     20  N   UNL     1       2.989   3.067  19.575  0.00  0.00    +0.000 N 
ATOM     21  C   UNL     1       1.682   2.577  19.172  0.00  0.00    +0.000 C 
ATOM     22  C   UNL     1       0.799   2.899  20.370  0.00  0.00    +0.000 C 
ATOM     23  C   UNL     1       1.728   2.700  21.555  0.00  0.00    +0.000 C 
ATOM     24  C   UNL     1       3.104   3.106  21.030  0.00  0.00    +0.000 C 
ATOM     25  N   UNL     1       5.186   3.807  19.191  0.00  0.00    +0.000 NA
ATOM     26  C   UNL     1       6.041   4.206  18.191  0.00  0.00    +0.000 C 
ATOM     27  O   UNL     1       7.196   4.570  18.389  0.00  0.00    +0.000 OA
ENDBRANCH  16  17
ENDBRANCH   2  16
TORSDOF 4
ENDMDL
MODEL 8
REMARK VINA RESULT:      -7.9      5.898      6.915
REMARK  Name = 
REMARK  6 active torsions:
REMARK  status: ('A' for Active; 'I' for Inactive)
REMARK    1  A    between atoms: C_1  and  N_2
REMARK    2  A    between atoms: N_2  and  C_3
REMARK    3  A    between atoms: C_4  and  C_6
REMARK    4  A    between atoms: C_9  and  N_10
REMARK    5  A    between atoms: C_11  and  C_13
REMARK    6  A    between atoms: C_13  and  C_14
REMARK                            x       y       z     vdW  Elec       q    Type
REMARK                         _______ _______ _______ _____ _____    ______ ____
ROOT
ATOM      1  N   UNL     1       3.809   6.492  17.427  0.00  0.00    +0.000 N 
ATOM      2  C   UNL     1       5.151   6.770  17.201  0.00  0.00    +0.000 C 
ATOM      3  O   UNL     1       5.770   7.740  17.629  0.00  0.00    +0.000 OA
ATOM      4  H   UNL     1       3.455   5.575  17.172  0.00  0.00    +0.000 HD
ENDROOT
BRANCH   1   8
ATOM      5  C   UNL     1       1.187   9.010  19.611  0.00  0.00    +0.000 A 
ATOM      6  C   UNL     1       1.634   9.389  18.348  0.00  0.00    +0.000 A 
ATOM      7  C   UNL     1       2.456   8.541  17.603  0.00  0.00    +0.000 A 
ATOM      8  C   UNL     1       2.917   7.334  18.131  0.00  0.00    +0.000 A 
ATOM      9  C   UNL     1       2.489   6.958  19.411  0.00  0.00    +0.000 A 
ATOM     10  C   UNL     1       1.639   7.798  20.152  0.00  0.00    +0.000 A 
BRANCH   5  14
ATOM     11  C   UNL     1      -0.554  10.701  22.556  0.00  0.00    +0.000 C 
ATOM     12  N   UNL     1       0.418   9.903  21.829  0.00  0.00    +0.000 N 
ATOM     13  C   UNL     1       1.486   9.292  22.607  0.00  0.00    +0.000 C 
ATOM     14  C   UNL     1       0.317   9.899  20.432  0.00  0.00    +0.000 C 
ATOM     15  O   UNL     1      -0.486  10.616  19.833  0.00  0.00    +0.000 OA
ENDBRANCH   5  14
ENDBRANCH   1   8
BRANCH   2  16
ATOM     16  C   UNL     1       5.877   5.745  16.355  0.00  0.00    +0.000 C 
BRANCH  16  17
ATOM     17  C   UNL     1       5.837   4.335  16.935  0.00  0.00    +0.000 C 
ATOM     18  S   UNL     1       4.215   3.524  16.924  0.00  0.00    +0.000 S 
ATOM     19  C   UNL     1       4.186   3.516  18.678  0.00  0.00    +0.000 C 
ATOM     20  N   UNL     1       3.063   3.097  19.339  0.00  0.00    +0.000 N 
ATOM     21  C   UNL     1       1.855   2.534  18.760  0.00  0.00    +0.000 C 
ATOM     22  C   UNL     1       0.787   2.842  19.800  0.00  0.00    +0.000 C 
ATOM     23  C   UNL     1       1.534   2.720  21.117  0.00  0.00    +0.000 C 
ATOM     24  C   UNL     1       2.954   3.180  20.792  0.00  0.00    +0.000 C 
ATOM     25  N   UNL     1       5.257   3.935  19.265  0.00  0.00    +0.000 NA
ATOM     26  C   UNL     1       6.236   4.349  18.392  0.00  0.00    +0.000 C 
ATOM     27  O   UNL     1       7.330   4.775  18.749  0.00  0.00    +0.000 OA
ENDBRANCH  16  17
ENDBRANCH   2  16
TORSDOF 4
ENDMDL
MODEL 9
REMARK VINA RESULT:      -7.8      0.973      1.213
REMARK  Name = 
REMARK  6 active torsions:
REMARK  status: ('A' for Active; 'I' for Inactive)
REMARK    1  A    between atoms: C_1  and  N_2
REMARK    2  A    between atoms: N_2  and  C_3
REMARK    3  A    between atoms: C_4  and  C_6
REMARK    4  A    between atoms: C_9  and  N_10
REMARK    5  A    between atoms: C_11  and  C_13
REMARK    6  A    between atoms: C_13  and  C_14
REMARK                            x       y       z     vdW  Elec       q    Type
REMARK                         _______ _______ _______ _____ _____    ______ ____
ROOT
ATOM      1  N   UNL     1       8.610   8.655  18.543  0.00  0.00    +0.000 N 
ATOM      2  C   UNL     1       7.598   8.185  17.717  0.00  0.00    +0.000 C 
ATOM      3  O   UNL     1       6.865   8.870  17.010  0.00  0.00    +0.000 OA
ATOM      4  H   UNL     1       9.262   7.983  18.941  0.00  0.00    +0.000 HD
ENDROOT
BRANCH   1   8
ATOM      5  C   UNL     1       9.588  12.725  19.218  0.00  0.00    +0.000 A 
ATOM      6  C   UNL     1       8.995  12.335  18.020  0.00  0.00    +0.000 A 
ATOM      7  C   UNL     1       8.623  11.006  17.813  0.00  0.00    +0.000 A 
ATOM      8  C   UNL     1       8.909  10.020  18.760  0.00  0.00    +0.000 A 
ATOM      9  C   UNL     1       9.527  10.403  19.957  0.00  0.00    +0.000 A 
ATOM     10  C   UNL     1       9.876  11.746  20.179  0.00  0.00    +0.000 A 
BRANCH   5  14
ATOM     11  C   UNL     1      11.673  15.897  19.613  0.00  0.00    +0.000 C 
ATOM     12  N   UNL     1      11.323  14.542  19.226  0.00  0.00    +0.000 N 
ATOM     13  C   UNL     1      12.333  13.777  18.508  0.00  0.00    +0.000 C 
ATOM     14  C   UNL     1      10.003  14.136  19.462  0.00  0.00    +0.000 C 
ATOM     15  O   UNL     1       9.145  14.915  19.879  0.00  0.00    +0.000 OA
ENDBRANCH   5  14
ENDBRANCH   1   8
BRANCH   2  16
ATOM     16  C   UNL     1       7.431   6.679  17.712  0.00  0.00    +0.000 C 
BRANCH  16  17
ATOM     17  C   UNL     1       6.421   6.180  16.684  0.00  0.00    +0.000 C 
ATOM     18  S   UNL     1       4.680   6.271  17.180  0.00  0.00    +0.000 S 
ATOM     19  C   UNL     1       4.559   4.522  17.147  0.00  0.00    +0.000 C 
ATOM     20  N   UNL     1       3.412   3.910  17.579  0.00  0.00    +0.000 N 
ATOM     21  C   UNL     1       2.173   4.545  17.993  0.00  0.00    +0.000 C 
ATOM     22  C   UNL     1       1.537   3.513  18.914  0.00  0.00    +0.000 C 
ATOM     23  C   UNL     1       1.935   2.189  18.285  0.00  0.00    +0.000 C 
ATOM     24  C   UNL     1       3.310   2.457  17.674  0.00  0.00    +0.000 C 
ATOM     25  N   UNL     1       5.599   3.889  16.717  0.00  0.00    +0.000 NA
ATOM     26  C   UNL     1       6.646   4.716  16.386  0.00  0.00    +0.000 C 
ATOM     27  O   UNL     1       7.721   4.312  15.952  0.00  0.00    +0.000 OA
ENDBRANCH  16  17
ENDBRANCH   2  16
TORSDOF 4
ENDMDL
