MODEL 1
REMARK VINA RESULT:      -7.8      0.000      0.000
REMARK  Name = 
REMARK  6 active torsions:
REMARK  status: ('A' for Active; 'I' for Inactive)
REMARK    1  A    between atoms: C_2  and  C_21
REMARK    2  A    between atoms: N_3  and  N_4
REMARK    3  A    between atoms: C_5  and  C_7
REMARK    4  A    between atoms: C_10  and  C_11
REMARK    5  A    between atoms: C_11  and  O_12
REMARK    6  A    between atoms: O_12  and  C_13
REMARK                            x       y       z     vdW  Elec       q    Type
REMARK                         _______ _______ _______ _____ _____    ______ ____
ROOT
ATOM      1  N   UNL     1       1.566   7.816  21.412  0.00  0.00    +0.000 N 
ATOM      2  C   UNL     1       1.951   7.334  20.181  0.00  0.00    +0.000 C 
ATOM      3  O   UNL     1       2.033   8.062  19.190  0.00  0.00    +0.000 OA
ATOM      4  H   UNL     1       1.461   7.210  22.229  0.00  0.00    +0.000 HD
ENDROOT
BRANCH   2   5
ATOM      5  C   UNL     1       2.248   5.901  20.143  0.00  0.00    +0.000 A 
ATOM      6  C   UNL     1       1.371   4.936  20.608  0.00  0.00    +0.000 A 
ATOM      7  S   UNL     1       2.044   3.375  20.436  0.00  0.00    +0.000 S 
ATOM      8  C   UNL     1       3.458   4.071  19.748  0.00  0.00    +0.000 A 
ATOM      9  N   UNL     1       3.441   5.388  19.630  0.00  0.00    +0.000 NA
BRANCH   8  10
ATOM     10  C   UNL     1       4.553   3.184  19.235  0.00  0.00    +0.000 C 
BRANCH  10  11
ATOM     11  O   UNL     1       5.739   3.966  19.048  0.00  0.00    +0.000 OA
BRANCH  11  12
ATOM     12  C   UNL     1       5.968   4.331  17.740  0.00  0.00    +0.000 A 
ATOM     13  C   UNL     1       5.258   3.779  16.665  0.00  0.00    +0.000 A 
ATOM     14  C   UNL     1       5.539   4.158  15.354  0.00  0.00    +0.000 A 
ATOM     15  C   UNL     1       6.510   5.119  15.095  0.00  0.00    +0.000 A 
ATOM     16  C   UNL     1       7.195   5.712  16.155  0.00  0.00    +0.000 A 
ATOM     17  C   UNL     1       6.926   5.322  17.474  0.00  0.00    +0.000 A 
ATOM     18 CL   UNL     1       7.820   6.081  18.741  0.00  0.00    +0.000 Cl
ENDBRANCH  11  12
ENDBRANCH  10  11
ENDBRANCH   8  10
ENDBRANCH   2   5
BRANCH   1  21
ATOM     19  O   UNL     1      -0.849   8.606  22.473  0.00  0.00    +0.000 OA
ATOM     20  C   UNL     1      -0.068   9.455  22.054  0.00  0.00    +0.000 C 
ATOM     21  N   UNL     1       1.161   9.155  21.509  0.00  0.00    +0.000 N 
ATOM     22  H   UNL     1       1.875   9.851  21.304  0.00  0.00    +0.000 HD
BRANCH  20  23
ATOM     23  C   UNL     1      -0.406  10.905  22.143  0.00  0.00    +0.000 A 
ATOM     24  C   UNL     1       0.281  11.803  21.314  0.00  0.00    +0.000 A 
ATOM     25  C   UNL     1       0.002  13.173  21.374  0.00  0.00    +0.000 A 
ATOM     26  C   UNL     1      -0.952  13.647  22.272  0.00  0.00    +0.000 A 
ATOM     27 CL   UNL     1      -1.287  15.332  22.355  0.00  0.00    +0.000 Cl
ATOM     28  C   UNL     1      -1.632  12.764  23.110  0.00  0.00    +0.000 A 
ATOM     29  C   UNL     1      -1.360  11.392  23.050  0.00  0.00    +0.000 A 
ENDBRANCH  20  23
ENDBRANCH   1  21
TORSDOF 6
ENDMDL
MODEL 2
REMARK VINA RESULT:      -7.8      6.184      8.103
REMARK  Name = 
REMARK  6 active torsions:
REMARK  status: ('A' for Active; 'I' for Inactive)
REMARK    1  A    between atoms: C_2  and  C_21
REMARK    2  A    between atoms: N_3  and  N_4
REMARK    3  A    between atoms: C_5  and  C_7
REMARK    4  A    between atoms: C_10  and  C_11
REMARK    5  A    between atoms: C_11  and  O_12
REMARK    6  A    between atoms: O_12  and  C_13
REMARK                            x       y       z     vdW  Elec       q    Type
REMARK                         _______ _______ _______ _____ _____    ______ ____
ROOT
ATOM      1  N   UNL     1       7.626   7.623  17.348  0.00  0.00    +0.000 N 
ATOM      2  C   UNL     1       7.441   6.453  18.051  0.00  0.00    +0.000 C 
ATOM      3  O   UNL     1       7.980   6.253  19.142  0.00  0.00    +0.000 OA
ATOM      4  H   UNL     1       7.211   7.778  16.427  0.00  0.00    +0.000 HD
ENDROOT
BRANCH   2   5
ATOM      5  C   UNL     1       6.564   5.475  17.406  0.00  0.00    +0.000 A 
ATOM      6  C   UNL     1       7.011   4.576  16.453  0.00  0.00    +0.000 A 
ATOM      7  S   UNL     1       5.724   3.601  15.893  0.00  0.00    +0.000 S 
ATOM      8  C   UNL     1       4.651   4.425  16.954  0.00  0.00    +0.000 A 
ATOM      9  N   UNL     1       5.204   5.365  17.702  0.00  0.00    +0.000 NA
BRANCH   8  10
ATOM     10  C   UNL     1       3.221   3.986  17.059  0.00  0.00    +0.000 C 
BRANCH  10  11
ATOM     11  O   UNL     1       3.160   2.766  17.807  0.00  0.00    +0.000 OA
BRANCH  11  12
ATOM     12  C   UNL     1       2.549   2.892  19.035  0.00  0.00    +0.000 A 
ATOM     13  C   UNL     1       1.251   3.397  19.185  0.00  0.00    +0.000 A 
ATOM     14  C   UNL     1       0.679   3.532  20.449  0.00  0.00    +0.000 A 
ATOM     15  C   UNL     1       1.381   3.135  21.581  0.00  0.00    +0.000 A 
ATOM     16  C   UNL     1       2.657   2.589  21.447  0.00  0.00    +0.000 A 
ATOM     17  C   UNL     1       3.241   2.466  20.179  0.00  0.00    +0.000 A 
ATOM     18 CL   UNL     1       4.830   1.799  20.081  0.00  0.00    +0.000 Cl
ENDBRANCH  11  12
ENDBRANCH  10  11
ENDBRANCH   8  10
ENDBRANCH   2   5
BRANCH   1  21
ATOM     19  O   UNL     1       7.133  10.332  17.408  0.00  0.00    +0.000 OA
ATOM     20  C   UNL     1       8.201   9.903  17.835  0.00  0.00    +0.000 C 
ATOM     21  N   UNL     1       8.535   8.566  17.847  0.00  0.00    +0.000 N 
ATOM     22  H   UNL     1       9.344   8.189  18.335  0.00  0.00    +0.000 HD
BRANCH  20  23
ATOM     23  C   UNL     1       9.215  10.834  18.408  0.00  0.00    +0.000 A 
ATOM     24  C   UNL     1       9.671  11.897  17.615  0.00  0.00    +0.000 A 
ATOM     25  C   UNL     1      10.630  12.787  18.111  0.00  0.00    +0.000 A 
ATOM     26  C   UNL     1      11.145  12.607  19.393  0.00  0.00    +0.000 A 
ATOM     27 CL   UNL     1      12.333  13.693  19.999  0.00  0.00    +0.000 Cl
ATOM     28  C   UNL     1      10.708  11.545  20.185  0.00  0.00    +0.000 A 
ATOM     29  C   UNL     1       9.745  10.656  19.695  0.00  0.00    +0.000 A 
ENDBRANCH  20  23
ENDBRANCH   1  21
TORSDOF 6
ENDMDL
MODEL 3
REMARK VINA RESULT:      -7.8      5.547      8.220
REMARK  Name = 
REMARK  6 active torsions:
REMARK  status: ('A' for Active; 'I' for Inactive)
REMARK    1  A    between atoms: C_2  and  C_21
REMARK    2  A    between atoms: N_3  and  N_4
REMARK    3  A    between atoms: C_5  and  C_7
REMARK    4  A    between atoms: C_10  and  C_11
REMARK    5  A    between atoms: C_11  and  O_12
REMARK    6  A    between atoms: O_12  and  C_13
REMARK                            x       y       z     vdW  Elec       q    Type
REMARK                         _______ _______ _______ _____ _____    ______ ____
ROOT
ATOM      1  N   UNL     1       7.474   8.470  18.189  0.00  0.00    +0.000 N 
ATOM      2  C   UNL     1       7.521   7.389  17.337  0.00  0.00    +0.000 C 
ATOM      3  O   UNL     1       8.214   7.390  16.317  0.00  0.00    +0.000 OA
ATOM      4  H   UNL     1       6.874   8.489  19.017  0.00  0.00    +0.000 HD
ENDROOT
BRANCH   2   5
ATOM      5  C   UNL     1       6.690   6.251  17.735  0.00  0.00    +0.000 A 
ATOM      6  C   UNL     1       6.818   5.614  18.957  0.00  0.00    +0.000 A 
ATOM      7  S   UNL     1       5.713   4.317  19.080  0.00  0.00    +0.000 S 
ATOM      8  C   UNL     1       5.124   4.682  17.506  0.00  0.00    +0.000 A 
ATOM      9  N   UNL     1       5.694   5.718  16.914  0.00  0.00    +0.000 NA
BRANCH   8  10
ATOM     10  C   UNL     1       3.965   3.913  16.946  0.00  0.00    +0.000 C 
BRANCH  10  11
ATOM     11  O   UNL     1       2.744   4.533  17.368  0.00  0.00    +0.000 OA
BRANCH  11  12
ATOM     12  C   UNL     1       2.201   3.983  18.508  0.00  0.00    +0.000 A 
ATOM     13  C   UNL     1       1.803   2.642  18.584  0.00  0.00    +0.000 A 
ATOM     14  C   UNL     1       1.234   2.131  19.749  0.00  0.00    +0.000 A 
ATOM     15  C   UNL     1       1.084   2.942  20.869  0.00  0.00    +0.000 A 
ATOM     16  C   UNL     1       1.516   4.267  20.825  0.00  0.00    +0.000 A 
ATOM     17  C   UNL     1       2.074   4.788  19.651  0.00  0.00    +0.000 A 
ATOM     18 CL   UNL     1       2.573   6.441  19.655  0.00  0.00    +0.000 Cl
ENDBRANCH  11  12
ENDBRANCH  10  11
ENDBRANCH   8  10
ENDBRANCH   2   5
BRANCH   1  21
ATOM     19  O   UNL     1       9.118   9.870  19.898  0.00  0.00    +0.000 OA
ATOM     20  C   UNL     1       8.958  10.273  18.750  0.00  0.00    +0.000 C 
ATOM     21  N   UNL     1       8.158   9.639  17.825  0.00  0.00    +0.000 N 
ATOM     22  H   UNL     1       8.141   9.874  16.835  0.00  0.00    +0.000 HD
BRANCH  20  23
ATOM     23  C   UNL     1       9.669  11.493  18.270  0.00  0.00    +0.000 A 
ATOM     24  C   UNL     1       8.958  12.700  18.209  0.00  0.00    +0.000 A 
ATOM     25  C   UNL     1       9.583  13.866  17.755  0.00  0.00    +0.000 A 
ATOM     26  C   UNL     1      10.915  13.823  17.346  0.00  0.00    +0.000 A 
ATOM     27 CL   UNL     1      11.682  15.254  16.775  0.00  0.00    +0.000 Cl
ATOM     28  C   UNL     1      11.628  12.626  17.390  0.00  0.00    +0.000 A 
ATOM     29  C   UNL     1      11.007  11.458  17.849  0.00  0.00    +0.000 A 
ENDBRANCH  20  23
ENDBRANCH   1  21
TORSDOF 6
ENDMDL
MODEL 4
REMARK VINA RESULT:      -7.8      2.599      3.994
REMARK  Name = 
REMARK  6 active torsions:
REMARK  status: ('A' for Active; 'I' for Inactive)
REMARK    1  A    between atoms: C_2  and  C_21
REMARK    2  A    between atoms: N_3  and  N_4
REMARK    3  A    between atoms: C_5  and  C_7
REMARK    4  A    between atoms: C_10  and  C_11
REMARK    5  A    between atoms: C_11  and  O_12
REMARK    6  A    between atoms: O_12  and  C_13
REMARK                            x       y       z     vdW  Elec       q    Type
REMARK                         _______ _______ _______ _____ _____    ______ ____
ROOT
ATOM      1  N   UNL     1       2.061   8.254  19.517  0.00  0.00    +0.000 N 
ATOM      2  C   UNL     1       2.521   8.229  18.219  0.00  0.00    +0.000 C 
ATOM      3  O   UNL     1       2.156   9.055  17.380  0.00  0.00    +0.000 OA
ATOM      4  H   UNL     1       2.333   7.550  20.207  0.00  0.00    +0.000 HD
ENDROOT
BRANCH   2   5
ATOM      5  C   UNL     1       3.468   7.153  17.918  0.00  0.00    +0.000 A 
ATOM      6  C   UNL     1       4.114   7.037  16.700  0.00  0.00    +0.000 A 
ATOM      7  S   UNL     1       5.124   5.659  16.682  0.00  0.00    +0.000 S 
ATOM      8  C   UNL     1       4.648   5.301  18.295  0.00  0.00    +0.000 A 
ATOM      9  N   UNL     1       3.799   6.157  18.838  0.00  0.00    +0.000 NA
BRANCH   8  10
ATOM     10  C   UNL     1       5.275   4.147  19.020  0.00  0.00    +0.000 C 
BRANCH  10  11
ATOM     11  O   UNL     1       4.492   2.970  18.788  0.00  0.00    +0.000 OA
BRANCH  11  12
ATOM     12  C   UNL     1       3.360   2.887  19.568  0.00  0.00    +0.000 A 
ATOM     13  C   UNL     1       3.410   2.653  20.949  0.00  0.00    +0.000 A 
ATOM     14  C   UNL     1       2.239   2.551  21.698  0.00  0.00    +0.000 A 
ATOM     15  C   UNL     1       1.001   2.713  21.088  0.00  0.00    +0.000 A 
ATOM     16  C   UNL     1       0.934   2.991  19.723  0.00  0.00    +0.000 A 
ATOM     17  C   UNL     1       2.108   3.079  18.963  0.00  0.00    +0.000 A 
ATOM     18 CL   UNL     1       1.959   3.407  17.275  0.00  0.00    +0.000 Cl
ENDBRANCH  11  12
ENDBRANCH  10  11
ENDBRANCH   8  10
ENDBRANCH   2   5
BRANCH   1  21
ATOM     19  O   UNL     1       1.380   8.873  22.112  0.00  0.00    +0.000 OA
ATOM     20  C   UNL     1       0.799   9.431  21.186  0.00  0.00    +0.000 C 
ATOM     21  N   UNL     1       1.072   9.187  19.858  0.00  0.00    +0.000 N 
ATOM     22  H   UNL     1       0.710   9.750  19.093  0.00  0.00    +0.000 HD
BRANCH  20  23
ATOM     23  C   UNL     1      -0.248  10.457  21.459  0.00  0.00    +0.000 A 
ATOM     24  C   UNL     1      -0.787  10.535  22.751  0.00  0.00    +0.000 A 
ATOM     25  C   UNL     1      -1.780  11.476  23.046  0.00  0.00    +0.000 A 
ATOM     26  C   UNL     1      -2.244  12.329  22.048  0.00  0.00    +0.000 A 
ATOM     27 CL   UNL     1      -3.473  13.478  22.406  0.00  0.00    +0.000 Cl
ATOM     28  C   UNL     1      -1.725  12.251  20.756  0.00  0.00    +0.000 A 
ATOM     29  C   UNL     1      -0.728  11.315  20.457  0.00  0.00    +0.000 A 
ENDBRANCH  20  23
ENDBRANCH   1  21
TORSDOF 6
ENDMDL
MODEL 5
REMARK VINA RESULT:      -7.8      1.814      2.588
REMARK  Name = 
REMARK  6 active torsions:
REMARK  status: ('A' for Active; 'I' for Inactive)
REMARK    1  A    between atoms: C_2  and  C_21
REMARK    2  A    between atoms: N_3  and  N_4
REMARK    3  A    between atoms: C_5  and  C_7
REMARK    4  A    between atoms: C_10  and  C_11
REMARK    5  A    between atoms: C_11  and  O_12
REMARK    6  A    between atoms: O_12  and  C_13
REMARK                            x       y       z     vdW  Elec       q    Type
REMARK                         _______ _______ _______ _____ _____    ______ ____
ROOT
ATOM      1  N   UNL     1       2.371   6.822  20.311  0.00  0.00    +0.000 N 
ATOM      2  C   UNL     1       1.931   5.520  20.226  0.00  0.00    +0.000 C 
ATOM      3  O   UNL     1       0.837   5.170  20.673  0.00  0.00    +0.000 OA
ATOM      4  H   UNL     1       3.293   7.111  19.975  0.00  0.00    +0.000 HD
ENDROOT
BRANCH   2   5
ATOM      5  C   UNL     1       2.858   4.594  19.573  0.00  0.00    +0.000 A 
ATOM      6  C   UNL     1       3.323   3.440  20.179  0.00  0.00    +0.000 A 
ATOM      7  S   UNL     1       4.403   2.610  19.148  0.00  0.00    +0.000 S 
ATOM      8  C   UNL     1       4.184   3.828  17.954  0.00  0.00    +0.000 A 
ATOM      9  N   UNL     1       3.345   4.797  18.280  0.00  0.00    +0.000 NA
BRANCH   8  10
ATOM     10  C   UNL     1       4.839   3.686  16.613  0.00  0.00    +0.000 C 
BRANCH  10  11
ATOM     11  O   UNL     1       6.262   3.692  16.785  0.00  0.00    +0.000 OA
BRANCH  11  12
ATOM     12  C   UNL     1       6.764   4.887  17.250  0.00  0.00    +0.000 A 
ATOM     13  C   UNL     1       7.591   4.971  18.379  0.00  0.00    +0.000 A 
ATOM     14  C   UNL     1       8.057   6.204  18.832  0.00  0.00    +0.000 A 
ATOM     15  C   UNL     1       7.734   7.370  18.147  0.00  0.00    +0.000 A 
ATOM     16  C   UNL     1       6.949   7.299  16.995  0.00  0.00    +0.000 A 
ATOM     17  C   UNL     1       6.466   6.064  16.546  0.00  0.00    +0.000 A 
ATOM     18 CL   UNL     1       5.486   6.045  15.125  0.00  0.00    +0.000 Cl
ENDBRANCH  11  12
ENDBRANCH  10  11
ENDBRANCH   8  10
ENDBRANCH   2   5
BRANCH   1  21
ATOM     19  O   UNL     1       1.328   9.108  19.184  0.00  0.00    +0.000 OA
ATOM     20  C   UNL     1       1.111   8.866  20.368  0.00  0.00    +0.000 C 
ATOM     21  N   UNL     1       1.590   7.748  21.016  0.00  0.00    +0.000 N 
ATOM     22  H   UNL     1       1.291   7.461  21.945  0.00  0.00    +0.000 HD
BRANCH  20  23
ATOM     23  C   UNL     1       0.267   9.784  21.186  0.00  0.00    +0.000 A 
ATOM     24  C   UNL     1      -0.082  11.030  20.647  0.00  0.00    +0.000 A 
ATOM     25  C   UNL     1      -0.863  11.925  21.386  0.00  0.00    +0.000 A 
ATOM     26  C   UNL     1      -1.283  11.582  22.669  0.00  0.00    +0.000 A 
ATOM     27 CL   UNL     1      -2.233  12.687  23.583  0.00  0.00    +0.000 Cl
ATOM     28  C   UNL     1      -0.931  10.350  23.220  0.00  0.00    +0.000 A 
ATOM     29  C   UNL     1      -0.154   9.449  22.482  0.00  0.00    +0.000 A 
ENDBRANCH  20  23
ENDBRANCH   1  21
TORSDOF 6
ENDMDL
MODEL 6
REMARK VINA RESULT:      -7.6      3.100     10.859
REMARK  Name = 
REMARK  6 active torsions:
REMARK  status: ('A' for Active; 'I' for Inactive)
REMARK    1  A    between atoms: C_2  and  C_21
REMARK    2  A    between atoms: N_3  and  N_4
REMARK    3  A    between atoms: C_5  and  C_7
REMARK    4  A    between atoms: C_10  and  C_11
REMARK    5  A    between atoms: C_11  and  O_12
REMARK    6  A    between atoms: O_12  and  C_13
REMARK                            x       y       z     vdW  Elec       q    Type
REMARK                         _______ _______ _______ _____ _____    ______ ____
ROOT
ATOM      1  N   UNL     1       1.875   8.066  19.802  0.00  0.00    +0.000 N 
ATOM      2  C   UNL     1       1.163   9.223  19.574  0.00  0.00    +0.000 C 
ATOM      3  O   UNL     1       1.128   9.762  18.467  0.00  0.00    +0.000 OA
ATOM      4  H   UNL     1       1.936   7.635  20.728  0.00  0.00    +0.000 HD
ENDROOT
BRANCH   2   5
ATOM      5  C   UNL     1       0.460   9.757  20.742  0.00  0.00    +0.000 A 
ATOM      6  C   UNL     1       0.304   9.046  21.919  0.00  0.00    +0.000 A 
ATOM      7  S   UNL     1      -0.584   9.955  23.061  0.00  0.00    +0.000 S 
ATOM      8  C   UNL     1      -0.704  11.242  21.928  0.00  0.00    +0.000 A 
ATOM      9  N   UNL     1      -0.109  11.032  20.766  0.00  0.00    +0.000 NA
BRANCH   8  10
ATOM     10  C   UNL     1      -1.355  12.532  22.330  0.00  0.00    +0.000 C 
BRANCH  10  11
ATOM     11  O   UNL     1      -2.612  12.652  21.652  0.00  0.00    +0.000 OA
BRANCH  11  12
ATOM     12  C   UNL     1      -3.703  12.660  22.492  0.00  0.00    +0.000 A 
ATOM     13  C   UNL     1      -3.593  12.463  23.875  0.00  0.00    +0.000 A 
ATOM     14  C   UNL     1      -4.725  12.452  24.687  0.00  0.00    +0.000 A 
ATOM     15  C   UNL     1      -5.983  12.672  24.138  0.00  0.00    +0.000 A 
ATOM     16  C   UNL     1      -6.107  12.914  22.770  0.00  0.00    +0.000 A 
ATOM     17  C   UNL     1      -4.972  12.910  21.948  0.00  0.00    +0.000 A 
ATOM     18 CL   UNL     1      -5.193  13.199  20.260  0.00  0.00    +0.000 Cl
ENDBRANCH  11  12
ENDBRANCH  10  11
ENDBRANCH   8  10
ENDBRANCH   2   5
BRANCH   1  21
ATOM     19  O   UNL     1       2.717   5.446  19.685  0.00  0.00    +0.000 OA
ATOM     20  C   UNL     1       3.036   6.224  18.790  0.00  0.00    +0.000 C 
ATOM     21  N   UNL     1       2.662   7.549  18.763  0.00  0.00    +0.000 N 
ATOM     22  H   UNL     1       2.789   8.157  17.958  0.00  0.00    +0.000 HD
BRANCH  20  23
ATOM     23  C   UNL     1       3.850   5.752  17.633  0.00  0.00    +0.000 A 
ATOM     24  C   UNL     1       3.954   4.372  17.407  0.00  0.00    +0.000 A 
ATOM     25  C   UNL     1       4.716   3.887  16.339  0.00  0.00    +0.000 A 
ATOM     26  C   UNL     1       5.387   4.779  15.505  0.00  0.00    +0.000 A 
ATOM     27 CL   UNL     1       6.334   4.183  14.199  0.00  0.00    +0.000 Cl
ATOM     28  C   UNL     1       5.301   6.153  15.729  0.00  0.00    +0.000 A 
ATOM     29  C   UNL     1       4.535   6.643  16.793  0.00  0.00    +0.000 A 
ENDBRANCH  20  23
ENDBRANCH   1  21
TORSDOF 6
ENDMDL
MODEL 7
REMARK VINA RESULT:      -7.5      1.880      2.761
REMARK  Name = 
REMARK  6 active torsions:
REMARK  status: ('A' for Active; 'I' for Inactive)
REMARK    1  A    between atoms: C_2  and  C_21
REMARK    2  A    between atoms: N_3  and  N_4
REMARK    3  A    between atoms: C_5  and  C_7
REMARK    4  A    between atoms: C_10  and  C_11
REMARK    5  A    between atoms: C_11  and  O_12
REMARK    6  A    between atoms: O_12  and  C_13
REMARK                            x       y       z     vdW  Elec       q    Type
REMARK                         _______ _______ _______ _____ _____    ______ ____
ROOT
ATOM      1  N   UNL     1       2.305   6.409  20.115  0.00  0.00    +0.000 N 
ATOM      2  C   UNL     1       1.873   5.102  20.149  0.00  0.00    +0.000 C 
ATOM      3  O   UNL     1       0.817   4.777  20.694  0.00  0.00    +0.000 OA
ATOM      4  H   UNL     1       3.198   6.679  19.696  0.00  0.00    +0.000 HD
ENDROOT
BRANCH   2   5
ATOM      5  C   UNL     1       2.761   4.139  19.495  0.00  0.00    +0.000 A 
ATOM      6  C   UNL     1       2.816   2.803  19.850  0.00  0.00    +0.000 A 
ATOM      7  S   UNL     1       3.973   1.974  18.904  0.00  0.00    +0.000 S 
ATOM      8  C   UNL     1       4.327   3.437  18.073  0.00  0.00    +0.000 A 
ATOM      9  N   UNL     1       3.623   4.490  18.454  0.00  0.00    +0.000 NA
BRANCH   8  10
ATOM     10  C   UNL     1       5.298   3.431  16.930  0.00  0.00    +0.000 C 
BRANCH  10  11
ATOM     11  O   UNL     1       4.790   4.265  15.881  0.00  0.00    +0.000 OA
BRANCH  11  12
ATOM     12  C   UNL     1       5.583   4.293  14.756  0.00  0.00    +0.000 A 
ATOM     13  C   UNL     1       5.234   3.635  13.569  0.00  0.00    +0.000 A 
ATOM     14  C   UNL     1       6.078   3.667  12.460  0.00  0.00    +0.000 A 
ATOM     15  C   UNL     1       7.268   4.385  12.506  0.00  0.00    +0.000 A 
ATOM     16  C   UNL     1       7.610   5.082  13.664  0.00  0.00    +0.000 A 
ATOM     17  C   UNL     1       6.772   5.040  14.786  0.00  0.00    +0.000 A 
ATOM     18 CL   UNL     1       7.259   5.910  16.195  0.00  0.00    +0.000 Cl
ENDBRANCH  11  12
ENDBRANCH  10  11
ENDBRANCH   8  10
ENDBRANCH   2   5
BRANCH   1  21
ATOM     19  O   UNL     1       1.588   8.842  19.042  0.00  0.00    +0.000 OA
ATOM     20  C   UNL     1       1.255   8.567  20.191  0.00  0.00    +0.000 C 
ATOM     21  N   UNL     1       1.566   7.377  20.810  0.00  0.00    +0.000 N 
ATOM     22  H   UNL     1       1.167   7.078  21.697  0.00  0.00    +0.000 HD
BRANCH  20  23
ATOM     23  C   UNL     1       0.444   9.527  20.994  0.00  0.00    +0.000 A 
ATOM     24  C   UNL     1       0.164   9.211  22.331  0.00  0.00    +0.000 A 
ATOM     25  C   UNL     1      -0.603  10.079  23.116  0.00  0.00    +0.000 A 
ATOM     26  C   UNL     1      -1.103  11.255  22.562  0.00  0.00    +0.000 A 
ATOM     27 CL   UNL     1      -2.056  12.317  23.523  0.00  0.00    +0.000 Cl
ATOM     28  C   UNL     1      -0.842  11.573  21.229  0.00  0.00    +0.000 A 
ATOM     29  C   UNL     1      -0.071  10.711  20.442  0.00  0.00    +0.000 A 
ENDBRANCH  20  23
ENDBRANCH   1  21
TORSDOF 6
ENDMDL
MODEL 8
REMARK VINA RESULT:      -7.5      2.104      2.642
REMARK  Name = 
REMARK  6 active torsions:
REMARK  status: ('A' for Active; 'I' for Inactive)
REMARK    1  A    between atoms: C_2  and  C_21
REMARK    2  A    between atoms: N_3  and  N_4
REMARK    3  A    between atoms: C_5  and  C_7
REMARK    4  A    between atoms: C_10  and  C_11
REMARK    5  A    between atoms: C_11  and  O_12
REMARK    6  A    between atoms: O_12  and  C_13
REMARK                            x       y       z     vdW  Elec       q    Type
REMARK                         _______ _______ _______ _____ _____    ______ ____
ROOT
ATOM      1  N   UNL     1       1.764   7.856  19.319  0.00  0.00    +0.000 N 
ATOM      2  C   UNL     1       1.649   7.097  20.463  0.00  0.00    +0.000 C 
ATOM      3  O   UNL     1       1.257   7.575  21.529  0.00  0.00    +0.000 OA
ATOM      4  H   UNL     1       2.123   7.472  18.442  0.00  0.00    +0.000 HD
ENDROOT
BRANCH   2   5
ATOM      5  C   UNL     1       2.030   5.691  20.313  0.00  0.00    +0.000 A 
ATOM      6  C   UNL     1       1.172   4.643  20.601  0.00  0.00    +0.000 A 
ATOM      7  S   UNL     1       1.945   3.142  20.340  0.00  0.00    +0.000 S 
ATOM      8  C   UNL     1       3.370   3.971  19.853  0.00  0.00    +0.000 A 
ATOM      9  N   UNL     1       3.289   5.291  19.862  0.00  0.00    +0.000 NA
BRANCH   8  10
ATOM     10  C   UNL     1       4.553   3.194  19.356  0.00  0.00    +0.000 C 
BRANCH  10  11
ATOM     11  O   UNL     1       5.652   4.092  19.157  0.00  0.00    +0.000 OA
BRANCH  11  12
ATOM     12  C   UNL     1       5.873   4.422  17.838  0.00  0.00    +0.000 A 
ATOM     13  C   UNL     1       5.109   3.895  16.789  0.00  0.00    +0.000 A 
ATOM     14  C   UNL     1       5.383   4.235  15.465  0.00  0.00    +0.000 A 
ATOM     15  C   UNL     1       6.401   5.134  15.170  0.00  0.00    +0.000 A 
ATOM     16  C   UNL     1       7.142   5.703  16.205  0.00  0.00    +0.000 A 
ATOM     17  C   UNL     1       6.880   5.352  17.535  0.00  0.00    +0.000 A 
ATOM     18 CL   UNL     1       7.844   6.078  18.770  0.00  0.00    +0.000 Cl
ENDBRANCH  11  12
ENDBRANCH  10  11
ENDBRANCH   8  10
ENDBRANCH   2   5
BRANCH   1  21
ATOM     19  O   UNL     1       2.254   9.620  17.262  0.00  0.00    +0.000 OA
ATOM     20  C   UNL     1       1.799  10.040  18.322  0.00  0.00    +0.000 C 
ATOM     21  N   UNL     1       1.521   9.234  19.404  0.00  0.00    +0.000 N 
ATOM     22  H   UNL     1       1.004   9.544  20.223  0.00  0.00    +0.000 HD
BRANCH  20  23
ATOM     23  C   UNL     1       1.486  11.488  18.489  0.00  0.00    +0.000 A 
ATOM     24  C   UNL     1       2.474  12.428  18.164  0.00  0.00    +0.000 A 
ATOM     25  C   UNL     1       2.225  13.796  18.317  0.00  0.00    +0.000 A 
ATOM     26  C   UNL     1       0.995  14.225  18.809  0.00  0.00    +0.000 A 
ATOM     27 CL   UNL     1       0.692  15.907  19.010  0.00  0.00    +0.000 Cl
ATOM     28  C   UNL     1       0.009  13.299  19.149  0.00  0.00    +0.000 A 
ATOM     29  C   UNL     1       0.252  11.929  18.992  0.00  0.00    +0.000 A 
ENDBRANCH  20  23
ENDBRANCH   1  21
TORSDOF 6
ENDMDL
MODEL 9
REMARK VINA RESULT:      -7.4      1.391      1.889
REMARK  Name = 
REMARK  6 active torsions:
REMARK  status: ('A' for Active; 'I' for Inactive)
REMARK    1  A    between atoms: C_2  and  C_21
REMARK    2  A    between atoms: N_3  and  N_4
REMARK    3  A    between atoms: C_5  and  C_7
REMARK    4  A    between atoms: C_10  and  C_11
REMARK    5  A    between atoms: C_11  and  O_12
REMARK    6  A    between atoms: O_12  and  C_13
REMARK                            x       y       z     vdW  Elec       q    Type
REMARK                         _______ _______ _______ _____ _____    ______ ____
ROOT
ATOM      1  N   UNL     1       1.668   7.800  20.974  0.00  0.00    +0.000 N 
ATOM      2  C   UNL     1       2.111   7.458  19.715  0.00  0.00    +0.000 C 
ATOM      3  O   UNL     1       2.109   8.261  18.780  0.00  0.00    +0.000 OA
ATOM      4  H   UNL     1       1.634   7.127  21.743  0.00  0.00    +0.000 HD
ENDROOT
BRANCH   2   5
ATOM      5  C   UNL     1       2.578   6.077  19.578  0.00  0.00    +0.000 A 
ATOM      6  C   UNL     1       1.737   4.983  19.679  0.00  0.00    +0.000 A 
ATOM      7  S   UNL     1       2.613   3.528  19.493  0.00  0.00    +0.000 S 
ATOM      8  C   UNL     1       4.057   4.436  19.281  0.00  0.00    +0.000 A 
ATOM      9  N   UNL     1       3.912   5.750  19.327  0.00  0.00    +0.000 NA
BRANCH   8  10
ATOM     10  C   UNL     1       5.341   3.732  18.959  0.00  0.00    +0.000 C 
BRANCH  10  11
ATOM     11  O   UNL     1       5.859   4.246  17.725  0.00  0.00    +0.000 OA
BRANCH  11  12
ATOM     12  C   UNL     1       6.595   5.402  17.866  0.00  0.00    +0.000 A 
ATOM     13  C   UNL     1       7.608   5.541  18.824  0.00  0.00    +0.000 A 
ATOM     14  C   UNL     1       8.311   6.738  18.950  0.00  0.00    +0.000 A 
ATOM     15  C   UNL     1       8.039   7.803  18.100  0.00  0.00    +0.000 A 
ATOM     16  C   UNL     1       7.066   7.667  17.111  0.00  0.00    +0.000 A 
ATOM     17  C   UNL     1       6.345   6.471  16.991  0.00  0.00    +0.000 A 
ATOM     18 CL   UNL     1       5.141   6.371  15.758  0.00  0.00    +0.000 Cl
ENDBRANCH  11  12
ENDBRANCH  10  11
ENDBRANCH   8  10
ENDBRANCH   2   5
BRANCH   1  21
ATOM     19  O   UNL     1      -0.863   8.214  21.977  0.00  0.00    +0.000 OA
ATOM     20  C   UNL     1      -0.170   9.179  21.670  0.00  0.00    +0.000 C 
ATOM     21  N   UNL     1       1.106   9.070  21.162  0.00  0.00    +0.000 N 
ATOM     22  H   UNL     1       1.741   9.858  21.051  0.00  0.00    +0.000 HD
BRANCH  20  23
ATOM     23  C   UNL     1      -0.679  10.568  21.863  0.00  0.00    +0.000 A 
ATOM     24  C   UNL     1      -0.574  11.473  20.797  0.00  0.00    +0.000 A 
ATOM     25  C   UNL     1      -1.029  12.788  20.940  0.00  0.00    +0.000 A 
ATOM     26  C   UNL     1      -1.575  13.204  22.152  0.00  0.00    +0.000 A 
ATOM     27 CL   UNL     1      -2.124  14.824  22.333  0.00  0.00    +0.000 Cl
ATOM     28  C   UNL     1      -1.672  12.316  23.223  0.00  0.00    +0.000 A 
ATOM     29  C   UNL     1      -1.223  10.998  23.083  0.00  0.00    +0.000 A 
ENDBRANCH  20  23
ENDBRANCH   1  21
TORSDOF 6
ENDMDL
