MODEL 1
REMARK VINA RESULT:      -8.2      0.000      0.000
REMARK  Name = 
REMARK  5 active torsions:
REMARK  status: ('A' for Active; 'I' for Inactive)
REMARK    1  A    between atoms: C_1  and  C_2
REMARK    2  A    between atoms: C_16  and  C_17
REMARK    3  A    between atoms: C_20  and  C_21
REMARK    4  A    between atoms: C_21  and  C_22
REMARK    5  A    between atoms: C_22  and  O_23
REMARK                            x       y       z     vdW  Elec       q    Type
REMARK                         _______ _______ _______ _____ _____    ______ ____
ROOT
ATOM      1  C   UNL     1       2.250   5.064  20.885  0.00  0.00    +0.000 C 
ATOM      2  C   UNL     1       2.161   6.346  20.143  0.00  0.00    +0.000 A 
ATOM      3  N   UNL     1       1.444   7.371  20.702  0.00  0.00    +0.000 NA
ATOM      4  C   UNL     1       1.531   8.368  19.849  0.00  0.00    +0.000 A 
ATOM      5  C   UNL     1       0.938   9.707  19.966  0.00  0.00    +0.000 A 
ATOM      6  N   UNL     1       0.181  10.139  21.064  0.00  0.00    +0.000 N 
ATOM      7  C   UNL     1       0.483   9.635  22.418  0.00  0.00    +0.000 C 
ATOM      8  C   UNL     1      -0.704   9.866  23.361  0.00  0.00    +0.000 C 
ATOM      9  O   UNL     1      -1.085  11.248  23.399  0.00  0.00    +0.000 OA
ATOM     10  C   UNL     1      -1.463  11.681  22.084  0.00  0.00    +0.000 C 
ATOM     11  C   UNL     1      -0.306  11.533  21.088  0.00  0.00    +0.000 C 
ATOM     12  N   UNL     1       1.121  10.551  18.965  0.00  0.00    +0.000 NA
ATOM     13  C   UNL     1       1.895  10.180  17.887  0.00  0.00    +0.000 A 
ATOM     14  C   UNL     1       2.484   8.983  17.757  0.00  0.00    +0.000 A 
ATOM     15  N   UNL     1       2.278   8.034  18.745  0.00  0.00    +0.000 N 
ATOM     16  C   UNL     1       2.684   6.708  18.900  0.00  0.00    +0.000 A 
ENDROOT
BRANCH  16  17
ATOM     17  C   UNL     1       3.487   5.937  17.944  0.00  0.00    +0.000 A 
ATOM     18  C   UNL     1       3.177   4.611  17.631  0.00  0.00    +0.000 A 
ATOM     19  C   UNL     1       3.976   3.886  16.746  0.00  0.00    +0.000 A 
ATOM     20  C   UNL     1       5.106   4.495  16.210  0.00  0.00    +0.000 A 
ATOM     21  N   UNL     1       5.414   5.786  16.466  0.00  0.00    +0.000 NA
ATOM     22  C   UNL     1       4.590   6.475  17.290  0.00  0.00    +0.000 A 
BRANCH  20  23
ATOM     23  C   UNL     1       6.061   3.681  15.366  0.00  0.00    +0.000 C 
BRANCH  23  24
ATOM     24  C   UNL     1       6.621   4.444  14.166  0.00  0.00    +0.000 C 
BRANCH  24  25
ATOM     25  O   UNL     1       7.673   5.326  14.565  0.00  0.00    +0.000 OA
ATOM     26  H   UNL     1       7.235   6.192  14.691  0.00  0.00    +0.000 HD
ENDBRANCH  24  25
ENDBRANCH  23  24
ENDBRANCH  20  23
ENDBRANCH  16  17
TORSDOF 4
ENDMDL
MODEL 2
REMARK VINA RESULT:      -7.7      0.853      1.139
REMARK  Name = 
REMARK  5 active torsions:
REMARK  status: ('A' for Active; 'I' for Inactive)
REMARK    1  A    between atoms: C_1  and  C_2
REMARK    2  A    between atoms: C_16  and  C_17
REMARK    3  A    between atoms: C_20  and  C_21
REMARK    4  A    between atoms: C_21  and  C_22
REMARK    5  A    between atoms: C_22  and  O_23
REMARK                            x       y       z     vdW  Elec       q    Type
REMARK                         _______ _______ _______ _____ _____    ______ ____
ROOT
ATOM      1  C   UNL     1       2.237   4.978  21.098  0.00  0.00    +0.000 C 
ATOM      2  C   UNL     1       2.179   6.228  20.300  0.00  0.00    +0.000 A 
ATOM      3  N   UNL     1       1.457   7.282  20.795  0.00  0.00    +0.000 NA
ATOM      4  C   UNL     1       1.575   8.240  19.902  0.00  0.00    +0.000 A 
ATOM      5  C   UNL     1       0.992   9.588  19.946  0.00  0.00    +0.000 A 
ATOM      6  N   UNL     1       0.210  10.073  21.004  0.00  0.00    +0.000 N 
ATOM      7  C   UNL     1       0.472   9.625  22.386  0.00  0.00    +0.000 C 
ATOM      8  C   UNL     1      -0.737   9.906  23.286  0.00  0.00    +0.000 C 
ATOM      9  O   UNL     1      -1.107  11.291  23.255  0.00  0.00    +0.000 OA
ATOM     10  C   UNL     1      -1.445  11.670  21.913  0.00  0.00    +0.000 C 
ATOM     11  C   UNL     1      -0.265  11.470  20.955  0.00  0.00    +0.000 C 
ATOM     12  N   UNL     1       1.209  10.387  18.915  0.00  0.00    +0.000 NA
ATOM     13  C   UNL     1       2.007   9.964  17.875  0.00  0.00    +0.000 A 
ATOM     14  C   UNL     1       2.587   8.757  17.812  0.00  0.00    +0.000 A 
ATOM     15  N   UNL     1       2.348   7.853  18.834  0.00  0.00    +0.000 N 
ATOM     16  C   UNL     1       2.737   6.532  19.056  0.00  0.00    +0.000 A 
ENDROOT
BRANCH  16  17
ATOM     17  C   UNL     1       3.558   5.714  18.156  0.00  0.00    +0.000 A 
ATOM     18  C   UNL     1       4.819   6.139  17.729  0.00  0.00    +0.000 A 
ATOM     19  C   UNL     1       5.567   5.361  16.844  0.00  0.00    +0.000 A 
ATOM     20  C   UNL     1       5.021   4.174  16.368  0.00  0.00    +0.000 A 
ATOM     21  N   UNL     1       3.819   3.719  16.788  0.00  0.00    +0.000 NA
ATOM     22  C   UNL     1       3.142   4.474  17.684  0.00  0.00    +0.000 A 
BRANCH  20  23
ATOM     23  C   UNL     1       5.752   3.393  15.300  0.00  0.00    +0.000 C 
BRANCH  23  24
ATOM     24  C   UNL     1       6.066   4.212  14.048  0.00  0.00    +0.000 C 
BRANCH  24  25
ATOM     25  O   UNL     1       6.367   3.359  12.941  0.00  0.00    +0.000 OA
ATOM     26  H   UNL     1       5.528   2.890  12.755  0.00  0.00    +0.000 HD
ENDBRANCH  24  25
ENDBRANCH  23  24
ENDBRANCH  20  23
ENDBRANCH  16  17
TORSDOF 4
ENDMDL
MODEL 3
REMARK VINA RESULT:      -7.2      3.163      7.678
REMARK  Name = 
REMARK  5 active torsions:
REMARK  status: ('A' for Active; 'I' for Inactive)
REMARK    1  A    between atoms: C_1  and  C_2
REMARK    2  A    between atoms: C_16  and  C_17
REMARK    3  A    between atoms: C_20  and  C_21
REMARK    4  A    between atoms: C_21  and  C_22
REMARK    5  A    between atoms: C_22  and  O_23
REMARK                            x       y       z     vdW  Elec       q    Type
REMARK                         _______ _______ _______ _____ _____    ______ ____
ROOT
ATOM      1  C   UNL     1      -0.166   9.218  22.472  0.00  0.00    +0.000 C 
ATOM      2  C   UNL     1       0.602   8.899  21.243  0.00  0.00    +0.000 A 
ATOM      3  N   UNL     1       1.147   7.647  21.124  0.00  0.00    +0.000 NA
ATOM      4  C   UNL     1       1.761   7.639  19.961  0.00  0.00    +0.000 A 
ATOM      5  C   UNL     1       2.508   6.534  19.347  0.00  0.00    +0.000 A 
ATOM      6  N   UNL     1       2.662   5.268  19.928  0.00  0.00    +0.000 N 
ATOM      7  C   UNL     1       1.589   4.702  20.770  0.00  0.00    +0.000 C 
ATOM      8  C   UNL     1       2.127   3.564  21.644  0.00  0.00    +0.000 C 
ATOM      9  O   UNL     1       2.753   2.544  20.854  0.00  0.00    +0.000 OA
ATOM     10  C   UNL     1       3.851   3.107  20.121  0.00  0.00    +0.000 C 
ATOM     11  C   UNL     1       3.386   4.222  19.177  0.00  0.00    +0.000 C 
ATOM     12  N   UNL     1       3.083   6.755  18.176  0.00  0.00    +0.000 NA
ATOM     13  C   UNL     1       2.920   7.972  17.551  0.00  0.00    +0.000 A 
ATOM     14  C   UNL     1       2.216   8.993  18.059  0.00  0.00    +0.000 A 
ATOM     15  N   UNL     1       1.641   8.843  19.311  0.00  0.00    +0.000 N 
ATOM     16  C   UNL     1       0.908   9.694  20.137  0.00  0.00    +0.000 A 
ENDROOT
BRANCH  16  17
ATOM     17  C   UNL     1       0.561  11.090  19.843  0.00  0.00    +0.000 A 
ATOM     18  C   UNL     1      -0.497  11.415  18.989  0.00  0.00    +0.000 A 
ATOM     19  C   UNL     1      -0.787  12.749  18.696  0.00  0.00    +0.000 A 
ATOM     20  C   UNL     1       0.017  13.745  19.239  0.00  0.00    +0.000 A 
ATOM     21  N   UNL     1       1.026  13.465  20.095  0.00  0.00    +0.000 NA
ATOM     22  C   UNL     1       1.249  12.164  20.397  0.00  0.00    +0.000 A 
BRANCH  20  23
ATOM     23  C   UNL     1      -0.190  15.182  18.818  0.00  0.00    +0.000 C 
BRANCH  23  24
ATOM     24  C   UNL     1       0.971  16.104  19.190  0.00  0.00    +0.000 C 
BRANCH  24  25
ATOM     25  O   UNL     1       2.174  15.703  18.529  0.00  0.00    +0.000 OA
ATOM     26  H   UNL     1       1.872  15.301  17.689  0.00  0.00    +0.000 HD
ENDBRANCH  24  25
ENDBRANCH  23  24
ENDBRANCH  20  23
ENDBRANCH  16  17
TORSDOF 4
ENDMDL
MODEL 4
REMARK VINA RESULT:      -6.9      3.128      8.060
REMARK  Name = 
REMARK  5 active torsions:
REMARK  status: ('A' for Active; 'I' for Inactive)
REMARK    1  A    between atoms: C_1  and  C_2
REMARK    2  A    between atoms: C_16  and  C_17
REMARK    3  A    between atoms: C_20  and  C_21
REMARK    4  A    between atoms: C_21  and  C_22
REMARK    5  A    between atoms: C_22  and  O_23
REMARK                            x       y       z     vdW  Elec       q    Type
REMARK                         _______ _______ _______ _____ _____    ______ ____
ROOT
ATOM      1  C   UNL     1      -0.068   9.261  22.806  0.00  0.00    +0.000 C 
ATOM      2  C   UNL     1       0.593   9.020  21.499  0.00  0.00    +0.000 A 
ATOM      3  N   UNL     1       1.149   7.789  21.271  0.00  0.00    +0.000 NA
ATOM      4  C   UNL     1       1.656   7.851  20.059  0.00  0.00    +0.000 A 
ATOM      5  C   UNL     1       2.367   6.795  19.326  0.00  0.00    +0.000 A 
ATOM      6  N   UNL     1       2.597   5.507  19.828  0.00  0.00    +0.000 N 
ATOM      7  C   UNL     1       1.616   4.876  20.732  0.00  0.00    +0.000 C 
ATOM      8  C   UNL     1       2.252   3.710  21.497  0.00  0.00    +0.000 C 
ATOM      9  O   UNL     1       2.825   2.744  20.605  0.00  0.00    +0.000 OA
ATOM     10  C   UNL     1       3.841   3.368  19.807  0.00  0.00    +0.000 C 
ATOM     11  C   UNL     1       3.271   4.516  18.965  0.00  0.00    +0.000 C 
ATOM     12  N   UNL     1       2.830   7.086  18.122  0.00  0.00    +0.000 NA
ATOM     13  C   UNL     1       2.588   8.327  17.575  0.00  0.00    +0.000 A 
ATOM     14  C   UNL     1       1.912   9.306  18.194  0.00  0.00    +0.000 A 
ATOM     15  N   UNL     1       1.455   9.082  19.482  0.00  0.00    +0.000 N 
ATOM     16  C   UNL     1       0.782   9.875  20.412  0.00  0.00    +0.000 A 
ENDROOT
BRANCH  16  17
ATOM     17  C   UNL     1       0.383  11.274  20.220  0.00  0.00    +0.000 A 
ATOM     18  C   UNL     1       1.296  12.321  20.364  0.00  0.00    +0.000 A 
ATOM     19  C   UNL     1       0.885  13.647  20.212  0.00  0.00    +0.000 A 
ATOM     20  C   UNL     1      -0.455  13.907  19.949  0.00  0.00    +0.000 A 
ATOM     21  N   UNL     1      -1.356  12.915  19.769  0.00  0.00    +0.000 NA
ATOM     22  C   UNL     1      -0.914  11.640  19.875  0.00  0.00    +0.000 A 
BRANCH  20  23
ATOM     23  C   UNL     1      -0.946  15.337  19.925  0.00  0.00    +0.000 C 
BRANCH  23  24
ATOM     24  C   UNL     1      -0.093  16.263  19.058  0.00  0.00    +0.000 C 
BRANCH  24  25
ATOM     25  O   UNL     1      -0.856  16.795  17.973  0.00  0.00    +0.000 OA
ATOM     26  H   UNL     1      -0.825  16.100  17.285  0.00  0.00    +0.000 HD
ENDBRANCH  24  25
ENDBRANCH  23  24
ENDBRANCH  20  23
ENDBRANCH  16  17
TORSDOF 4
ENDMDL
MODEL 5
REMARK VINA RESULT:      -6.9      1.412      8.554
REMARK  Name = 
REMARK  5 active torsions:
REMARK  status: ('A' for Active; 'I' for Inactive)
REMARK    1  A    between atoms: C_1  and  C_2
REMARK    2  A    between atoms: C_16  and  C_17
REMARK    3  A    between atoms: C_20  and  C_21
REMARK    4  A    between atoms: C_21  and  C_22
REMARK    5  A    between atoms: C_22  and  O_23
REMARK                            x       y       z     vdW  Elec       q    Type
REMARK                         _______ _______ _______ _____ _____    ______ ____
ROOT
ATOM      1  C   UNL     1       2.172  10.507  17.736  0.00  0.00    +0.000 C 
ATOM      2  C   UNL     1       2.166   9.202  18.444  0.00  0.00    +0.000 A 
ATOM      3  N   UNL     1       2.864   8.161  17.892  0.00  0.00    +0.000 NA
ATOM      4  C   UNL     1       2.690   7.147  18.712  0.00  0.00    +0.000 A 
ATOM      5  C   UNL     1       3.228   5.786  18.586  0.00  0.00    +0.000 A 
ATOM      6  N   UNL     1       4.058   5.361  17.539  0.00  0.00    +0.000 N 
ATOM      7  C   UNL     1       5.007   6.305  16.916  0.00  0.00    +0.000 C 
ATOM      8  C   UNL     1       5.467   5.788  15.548  0.00  0.00    +0.000 C 
ATOM      9  O   UNL     1       6.035   4.474  15.645  0.00  0.00    +0.000 OA
ATOM     10  C   UNL     1       5.057   3.563  16.166  0.00  0.00    +0.000 C 
ATOM     11  C   UNL     1       4.584   3.981  17.563  0.00  0.00    +0.000 C 
ATOM     12  N   UNL     1       2.894   4.904  19.513  0.00  0.00    +0.000 NA
ATOM     13  C   UNL     1       2.115   5.292  20.581  0.00  0.00    +0.000 A 
ATOM     14  C   UNL     1       1.634   6.531  20.753  0.00  0.00    +0.000 A 
ATOM     15  N   UNL     1       1.899   7.484  19.783  0.00  0.00    +0.000 N 
ATOM     16  C   UNL     1       1.522   8.817  19.622  0.00  0.00    +0.000 A 
ENDROOT
BRANCH  16  17
ATOM     17  C   UNL     1       0.657   9.583  20.528  0.00  0.00    +0.000 A 
ATOM     18  C   UNL     1      -0.476  10.255  20.063  0.00  0.00    +0.000 A 
ATOM     19  C   UNL     1      -1.264  11.006  20.936  0.00  0.00    +0.000 A 
ATOM     20  C   UNL     1      -0.881  11.103  22.270  0.00  0.00    +0.000 A 
ATOM     21  N   UNL     1       0.190  10.437  22.758  0.00  0.00    +0.000 NA
ATOM     22  C   UNL     1       0.903   9.678  21.893  0.00  0.00    +0.000 A 
BRANCH  20  23
ATOM     23  C   UNL     1      -1.637  12.026  23.197  0.00  0.00    +0.000 C 
BRANCH  23  24
ATOM     24  C   UNL     1      -1.254  13.498  23.042  0.00  0.00    +0.000 C 
BRANCH  24  25
ATOM     25  O   UNL     1       0.133  13.636  22.726  0.00  0.00    +0.000 OA
ATOM     26  H   UNL     1       0.297  12.963  22.035  0.00  0.00    +0.000 HD
ENDBRANCH  24  25
ENDBRANCH  23  24
ENDBRANCH  20  23
ENDBRANCH  16  17
TORSDOF 4
ENDMDL
MODEL 6
REMARK VINA RESULT:      -6.9      2.851      8.211
REMARK  Name = 
REMARK  5 active torsions:
REMARK  status: ('A' for Active; 'I' for Inactive)
REMARK    1  A    between atoms: C_1  and  C_2
REMARK    2  A    between atoms: C_16  and  C_17
REMARK    3  A    between atoms: C_20  and  C_21
REMARK    4  A    between atoms: C_21  and  C_22
REMARK    5  A    between atoms: C_22  and  O_23
REMARK                            x       y       z     vdW  Elec       q    Type
REMARK                         _______ _______ _______ _____ _____    ______ ____
ROOT
ATOM      1  C   UNL     1      -0.191   9.326  23.203  0.00  0.00    +0.000 C 
ATOM      2  C   UNL     1       0.387   9.302  21.836  0.00  0.00    +0.000 A 
ATOM      3  N   UNL     1       1.037   8.168  21.426  0.00  0.00    +0.000 NA
ATOM      4  C   UNL     1       1.441   8.418  20.199  0.00  0.00    +0.000 A 
ATOM      5  C   UNL     1       2.190   7.529  19.301  0.00  0.00    +0.000 A 
ATOM      6  N   UNL     1       2.579   6.223  19.629  0.00  0.00    +0.000 N 
ATOM      7  C   UNL     1       1.733   5.397  20.514  0.00  0.00    +0.000 C 
ATOM      8  C   UNL     1       2.534   4.224  21.090  0.00  0.00    +0.000 C 
ATOM      9  O   UNL     1       3.125   3.429  20.054  0.00  0.00    +0.000 OA
ATOM     10  C   UNL     1       4.012   4.239  19.270  0.00  0.00    +0.000 C 
ATOM     11  C   UNL     1       3.274   5.410  18.611  0.00  0.00    +0.000 C 
ATOM     12  N   UNL     1       2.529   8.000  18.112  0.00  0.00    +0.000 NA
ATOM     13  C   UNL     1       2.129   9.262  17.734  0.00  0.00    +0.000 A 
ATOM     14  C   UNL     1       1.415  10.091  18.508  0.00  0.00    +0.000 A 
ATOM     15  N   UNL     1       1.081   9.678  19.788  0.00  0.00    +0.000 N 
ATOM     16  C   UNL     1       0.411  10.289  20.848  0.00  0.00    +0.000 A 
ENDROOT
BRANCH  16  17
ATOM     17  C   UNL     1      -0.132  11.652  20.851  0.00  0.00    +0.000 A 
ATOM     18  C   UNL     1      -1.509  11.890  20.811  0.00  0.00    +0.000 A 
ATOM     19  C   UNL     1      -2.002  13.196  20.779  0.00  0.00    +0.000 A 
ATOM     20  C   UNL     1      -1.099  14.253  20.750  0.00  0.00    +0.000 A 
ATOM     21  N   UNL     1       0.236  14.057  20.822  0.00  0.00    +0.000 NA
ATOM     22  C   UNL     1       0.679  12.780  20.903  0.00  0.00    +0.000 A 
BRANCH  20  23
ATOM     23  C   UNL     1      -1.610  15.664  20.569  0.00  0.00    +0.000 C 
BRANCH  23  24
ATOM     24  C   UNL     1      -0.896  16.437  19.461  0.00  0.00    +0.000 C 
BRANCH  24  25
ATOM     25  O   UNL     1      -0.534  15.571  18.383  0.00  0.00    +0.000 OA
ATOM     26  H   UNL     1      -1.010  14.736  18.567  0.00  0.00    +0.000 HD
ENDBRANCH  24  25
ENDBRANCH  23  24
ENDBRANCH  20  23
ENDBRANCH  16  17
TORSDOF 4
ENDMDL
MODEL 7
REMARK VINA RESULT:      -6.9      3.031      8.213
REMARK  Name = 
REMARK  5 active torsions:
REMARK  status: ('A' for Active; 'I' for Inactive)
REMARK    1  A    between atoms: C_1  and  C_2
REMARK    2  A    between atoms: C_16  and  C_17
REMARK    3  A    between atoms: C_20  and  C_21
REMARK    4  A    between atoms: C_21  and  C_22
REMARK    5  A    between atoms: C_22  and  O_23
REMARK                            x       y       z     vdW  Elec       q    Type
REMARK                         _______ _______ _______ _____ _____    ______ ____
ROOT
ATOM      1  C   UNL     1      -0.007   9.336  22.905  0.00  0.00    +0.000 C 
ATOM      2  C   UNL     1       0.614   9.100  21.578  0.00  0.00    +0.000 A 
ATOM      3  N   UNL     1       1.163   7.870  21.327  0.00  0.00    +0.000 NA
ATOM      4  C   UNL     1       1.633   7.937  20.101  0.00  0.00    +0.000 A 
ATOM      5  C   UNL     1       2.320   6.885  19.342  0.00  0.00    +0.000 A 
ATOM      6  N   UNL     1       2.565   5.594  19.831  0.00  0.00    +0.000 N 
ATOM      7  C   UNL     1       1.611   4.959  20.762  0.00  0.00    +0.000 C 
ATOM      8  C   UNL     1       2.270   3.790  21.502  0.00  0.00    +0.000 C 
ATOM      9  O   UNL     1       2.815   2.828  20.588  0.00  0.00    +0.000 OA
ATOM     10  C   UNL     1       3.806   3.455  19.762  0.00  0.00    +0.000 C 
ATOM     11  C   UNL     1       3.212   4.607  18.943  0.00  0.00    +0.000 C 
ATOM     12  N   UNL     1       2.746   7.181  18.125  0.00  0.00    +0.000 NA
ATOM     13  C   UNL     1       2.488   8.424  17.591  0.00  0.00    +0.000 A 
ATOM     14  C   UNL     1       1.833   9.400  18.235  0.00  0.00    +0.000 A 
ATOM     15  N   UNL     1       1.415   9.171  19.536  0.00  0.00    +0.000 N 
ATOM     16  C   UNL     1       0.771   9.960  20.489  0.00  0.00    +0.000 A 
ENDROOT
BRANCH  16  17
ATOM     17  C   UNL     1       0.367  11.360  20.315  0.00  0.00    +0.000 A 
ATOM     18  C   UNL     1      -0.902  11.700  19.838  0.00  0.00    +0.000 A 
ATOM     19  C   UNL     1      -1.252  13.038  19.647  0.00  0.00    +0.000 A 
ATOM     20  C   UNL     1      -0.306  14.023  19.906  0.00  0.00    +0.000 A 
ATOM     21  N   UNL     1       0.917  13.729  20.401  0.00  0.00    +0.000 NA
ATOM     22  C   UNL     1       1.207  12.425  20.621  0.00  0.00    +0.000 A 
BRANCH  20  23
ATOM     23  C   UNL     1      -0.617  15.463  19.568  0.00  0.00    +0.000 C 
BRANCH  23  24
ATOM     24  C   UNL     1      -1.677  16.090  20.473  0.00  0.00    +0.000 C 
BRANCH  24  25
ATOM     25  O   UNL     1      -2.765  16.609  19.704  0.00  0.00    +0.000 OA
ATOM     26  H   UNL     1      -3.134  17.330  20.253  0.00  0.00    +0.000 HD
ENDBRANCH  24  25
ENDBRANCH  23  24
ENDBRANCH  20  23
ENDBRANCH  16  17
TORSDOF 4
ENDMDL
MODEL 8
REMARK VINA RESULT:      -6.9      2.867      8.134
REMARK  Name = 
REMARK  5 active torsions:
REMARK  status: ('A' for Active; 'I' for Inactive)
REMARK    1  A    between atoms: C_1  and  C_2
REMARK    2  A    between atoms: C_16  and  C_17
REMARK    3  A    between atoms: C_20  and  C_21
REMARK    4  A    between atoms: C_21  and  C_22
REMARK    5  A    between atoms: C_22  and  O_23
REMARK                            x       y       z     vdW  Elec       q    Type
REMARK                         _______ _______ _______ _____ _____    ______ ____
ROOT
ATOM      1  C   UNL     1      -0.044   9.255  22.724  0.00  0.00    +0.000 C 
ATOM      2  C   UNL     1       0.622   8.970  21.428  0.00  0.00    +0.000 A 
ATOM      3  N   UNL     1       1.162   7.726  21.236  0.00  0.00    +0.000 NA
ATOM      4  C   UNL     1       1.678   7.749  20.026  0.00  0.00    +0.000 A 
ATOM      5  C   UNL     1       2.379   6.664  19.326  0.00  0.00    +0.000 A 
ATOM      6  N   UNL     1       2.587   5.386  19.864  0.00  0.00    +0.000 N 
ATOM      7  C   UNL     1       1.591   4.793  20.777  0.00  0.00    +0.000 C 
ATOM      8  C   UNL     1       2.205   3.639  21.576  0.00  0.00    +0.000 C 
ATOM      9  O   UNL     1       2.771   2.642  20.714  0.00  0.00    +0.000 OA
ATOM     10  C   UNL     1       3.800   3.231  19.906  0.00  0.00    +0.000 C 
ATOM     11  C   UNL     1       3.253   4.364  19.031  0.00  0.00    +0.000 C 
ATOM     12  N   UNL     1       2.854   6.917  18.118  0.00  0.00    +0.000 NA
ATOM     13  C   UNL     1       2.633   8.146  17.537  0.00  0.00    +0.000 A 
ATOM     14  C   UNL     1       1.967   9.150  18.126  0.00  0.00    +0.000 A 
ATOM     15  N   UNL     1       1.499   8.967  19.417  0.00  0.00    +0.000 N 
ATOM     16  C   UNL     1       0.831   9.793  20.320  0.00  0.00    +0.000 A 
ENDROOT
BRANCH  16  17
ATOM     17  C   UNL     1       0.453  11.192  20.089  0.00  0.00    +0.000 A 
ATOM     18  C   UNL     1       1.392  12.224  20.154  0.00  0.00    +0.000 A 
ATOM     19  C   UNL     1       1.003  13.551  19.966  0.00  0.00    +0.000 A 
ATOM     20  C   UNL     1      -0.341  13.831  19.748  0.00  0.00    +0.000 A 
ATOM     21  N   UNL     1      -1.269  12.853  19.645  0.00  0.00    +0.000 NA
ATOM     22  C   UNL     1      -0.850  11.574  19.783  0.00  0.00    +0.000 A 
BRANCH  20  23
ATOM     23  C   UNL     1      -0.803  15.269  19.686  0.00  0.00    +0.000 C 
BRANCH  23  24
ATOM     24  C   UNL     1      -1.871  15.615  20.724  0.00  0.00    +0.000 C 
BRANCH  24  25
ATOM     25  O   UNL     1      -1.736  14.798  21.889  0.00  0.00    +0.000 OA
ATOM     26  H   UNL     1      -0.774  14.639  21.970  0.00  0.00    +0.000 HD
ENDBRANCH  24  25
ENDBRANCH  23  24
ENDBRANCH  20  23
ENDBRANCH  16  17
TORSDOF 4
ENDMDL
MODEL 9
REMARK VINA RESULT:      -6.7      1.442      8.691
REMARK  Name = 
REMARK  5 active torsions:
REMARK  status: ('A' for Active; 'I' for Inactive)
REMARK    1  A    between atoms: C_1  and  C_2
REMARK    2  A    between atoms: C_16  and  C_17
REMARK    3  A    between atoms: C_20  and  C_21
REMARK    4  A    between atoms: C_21  and  C_22
REMARK    5  A    between atoms: C_22  and  O_23
REMARK                            x       y       z     vdW  Elec       q    Type
REMARK                         _______ _______ _______ _____ _____    ______ ____
ROOT
ATOM      1  C   UNL     1       2.043  10.605  17.918  0.00  0.00    +0.000 C 
ATOM      2  C   UNL     1       2.059   9.282  18.591  0.00  0.00    +0.000 A 
ATOM      3  N   UNL     1       2.753   8.260  17.999  0.00  0.00    +0.000 NA
ATOM      4  C   UNL     1       2.601   7.224  18.794  0.00  0.00    +0.000 A 
ATOM      5  C   UNL     1       3.145   5.871  18.622  0.00  0.00    +0.000 A 
ATOM      6  N   UNL     1       3.958   5.480  17.549  0.00  0.00    +0.000 N 
ATOM      7  C   UNL     1       4.889   6.446  16.933  0.00  0.00    +0.000 C 
ATOM      8  C   UNL     1       5.326   5.969  15.544  0.00  0.00    +0.000 C 
ATOM      9  O   UNL     1       5.905   4.657  15.595  0.00  0.00    +0.000 OA
ATOM     10  C   UNL     1       4.943   3.725  16.110  0.00  0.00    +0.000 C 
ATOM     11  C   UNL     1       4.493   4.103  17.526  0.00  0.00    +0.000 C 
ATOM     12  N   UNL     1       2.835   4.962  19.532  0.00  0.00    +0.000 NA
ATOM     13  C   UNL     1       2.074   5.316  20.624  0.00  0.00    +0.000 A 
ATOM     14  C   UNL     1       1.589   6.547  20.838  0.00  0.00    +0.000 A 
ATOM     15  N   UNL     1       1.828   7.527  19.889  0.00  0.00    +0.000 N 
ATOM     16  C   UNL     1       1.440   8.861  19.770  0.00  0.00    +0.000 A 
ENDROOT
BRANCH  16  17
ATOM     17  C   UNL     1       0.588   9.596  20.713  0.00  0.00    +0.000 A 
ATOM     18  C   UNL     1       0.624   9.338  22.085  0.00  0.00    +0.000 A 
ATOM     19  C   UNL     1      -0.221  10.025  22.959  0.00  0.00    +0.000 A 
ATOM     20  C   UNL     1      -1.124  10.943  22.435  0.00  0.00    +0.000 A 
ATOM     21  N   UNL     1      -1.160  11.240  21.117  0.00  0.00    +0.000 NA
ATOM     22  C   UNL     1      -0.293  10.592  20.304  0.00  0.00    +0.000 A 
BRANCH  20  23
ATOM     23  C   UNL     1      -2.144  11.588  23.346  0.00  0.00    +0.000 C 
BRANCH  23  24
ATOM     24  C   UNL     1      -2.907  12.740  22.693  0.00  0.00    +0.000 C 
BRANCH  24  25
ATOM     25  O   UNL     1      -4.151  12.289  22.152  0.00  0.00    +0.000 OA
ATOM     26  H   UNL     1      -3.974  12.162  21.198  0.00  0.00    +0.000 HD
ENDBRANCH  24  25
ENDBRANCH  23  24
ENDBRANCH  20  23
ENDBRANCH  16  17
TORSDOF 4
ENDMDL
