MODEL 1
REMARK VINA RESULT:      -7.1      0.000      0.000
REMARK  Name = 
REMARK  9 active torsions:
REMARK  status: ('A' for Active; 'I' for Inactive)
REMARK    1  A    between atoms: C_1  and  O_2
REMARK    2  A    between atoms: O_2  and  C_3
REMARK    3  A    between atoms: C_9  and  C_10
REMARK    4  A    between atoms: C_21  and  C_22
REMARK    5  A    between atoms: N_24  and  CA_25
REMARK    6  A    between atoms: CA_25  and  CB_26
REMARK    7  A    between atoms: CA_25  and  C_28
REMARK    8  A    between atoms: CB_26  and  OG_27
REMARK    9  A    between atoms: C_28  and  O_29
REMARK                            x       y       z     vdW  Elec       q    Type
REMARK                         _______ _______ _______ _____ _____    ______ ____
ROOT
ATOM      1  C   UNK A   0      -0.607  12.804  20.478  0.00  0.00    +0.000 C 
ATOM      2  C   UNK A   0       0.634  13.653  20.130  0.00  0.00    +0.000 C 
ATOM      3  C   UNK A   0       1.280  12.870  19.002  0.00  0.00    +0.000 C 
ATOM      4  C   UNK A   0       0.075  12.451  18.177  0.00  0.00    +0.000 C 
ATOM      5  N   UNK A   0      -1.031  12.337  19.135  0.00  0.00    +0.000 N 
ATOM      6  C   UNK A   0      -2.347  12.081  18.759  0.00  0.00    +0.000 A 
ATOM      7  C   UNK A   0      -2.588  11.489  17.384  0.00  0.00    +0.000 A 
ATOM      8  C   UNK A   0      -3.842  11.182  17.048  0.00  0.00    +0.000 A 
ATOM      9  N   UNK A   0      -4.873  11.432  17.930  0.00  0.00    +0.000 N 
ATOM     10  N   UNK A   0      -6.182  11.172  17.724  0.00  0.00    +0.000 NA
ATOM     11  C   UNK A   0      -6.781  11.656  18.804  0.00  0.00    +0.000 A 
ATOM     12  C   UNK A   0      -5.883  12.218  19.736  0.00  0.00    +0.000 A 
ATOM     13  C   UNK A   0      -4.627  12.032  19.171  0.00  0.00    +0.000 A 
ATOM     14  N   UNK A   0      -3.345  12.332  19.591  0.00  0.00    +0.000 NA
ENDROOT
BRANCH   1  21
ATOM     15  C   UNK A   0      -0.976  11.486  22.653  0.00  0.00    +0.000 A 
ATOM     16  N   UNK A   0      -0.803  10.424  23.484  0.00  0.00    +0.000 NA
ATOM     17  C   UNK A   0       0.092   9.487  23.117  0.00  0.00    +0.000 A 
ATOM     18  C   UNK A   0       0.830   9.571  21.959  0.00  0.00    +0.000 A 
ATOM     19  F   UNK A   0       1.742   8.638  21.661  0.00  0.00    +0.000 F 
ATOM     20  C   UNK A   0       0.623  10.646  21.106  0.00  0.00    +0.000 A 
ATOM     21  C   UNK A   0      -0.315  11.643  21.425  0.00  0.00    +0.000 A 
BRANCH  15  23
ATOM     22  C   UNK A   0      -1.155  13.645  23.496  0.00  0.00    +0.000 C 
ATOM     23  O   UNK A   0      -1.850  12.465  23.076  0.00  0.00    +0.000 OA
ENDBRANCH  15  23
ENDBRANCH   1  21
BRANCH  12  24
ATOM     24  C   UNK A   0      -6.296  12.842  20.977  0.00  0.00    +0.000 C 
ATOM     25  O   UNK A   0      -7.145  13.727  20.980  0.00  0.00    +0.000 OA
ATOM     26  N   SER A   1      -5.703  12.385  22.126  0.00  0.00    +0.000 N 
ATOM     27  H   SER A   1      -5.039  11.622  22.044  0.00  0.00    +0.000 HD
BRANCH  26  28
ATOM     28  CA  SER A   1      -6.002  12.964  23.449  0.00  0.00    +0.000 C 
BRANCH  28  29
ATOM     29  CB  SER A   1      -7.430  12.628  23.938  0.00  0.00    +0.000 C 
BRANCH  29  30
ATOM     30  OG  SER A   1      -7.730  11.235  23.828  0.00  0.00    +0.000 OA
ATOM     31  H   SER A   1      -8.673  11.109  24.020  0.00  0.00    +0.000 HD
ENDBRANCH  29  30
ENDBRANCH  28  29
BRANCH  28  32
ATOM     32  C   SER A   1      -4.975  12.564  24.523  0.00  0.00    +0.000 C 
BRANCH  32  33
ATOM     33  O   SER A   1      -4.197  13.695  24.911  0.00  0.00    +0.000 OA
ATOM     34  H   SER A   1      -3.619  13.898  24.155  0.00  0.00    +0.000 HD
ENDBRANCH  32  33
ENDBRANCH  28  32
ENDBRANCH  26  28
ENDBRANCH  12  24
TORSDOF 8
ENDMDL
MODEL 2
REMARK VINA RESULT:      -7.1      6.667      9.438
REMARK  Name = 
REMARK  9 active torsions:
REMARK  status: ('A' for Active; 'I' for Inactive)
REMARK    1  A    between atoms: C_1  and  O_2
REMARK    2  A    between atoms: O_2  and  C_3
REMARK    3  A    between atoms: C_9  and  C_10
REMARK    4  A    between atoms: C_21  and  C_22
REMARK    5  A    between atoms: N_24  and  CA_25
REMARK    6  A    between atoms: CA_25  and  CB_26
REMARK    7  A    between atoms: CA_25  and  C_28
REMARK    8  A    between atoms: CB_26  and  OG_27
REMARK    9  A    between atoms: C_28  and  O_29
REMARK                            x       y       z     vdW  Elec       q    Type
REMARK                         _______ _______ _______ _____ _____    ______ ____
ROOT
ATOM      1  C   UNK A   0       4.028   5.243  17.253  0.00  0.00    +0.000 C 
ATOM      2  C   UNK A   0       3.899   3.983  16.371  0.00  0.00    +0.000 C 
ATOM      3  C   UNK A   0       3.972   2.851  17.378  0.00  0.00    +0.000 C 
ATOM      4  C   UNK A   0       3.118   3.383  18.516  0.00  0.00    +0.000 C 
ATOM      5  N   UNK A   0       3.255   4.843  18.454  0.00  0.00    +0.000 N 
ATOM      6  C   UNK A   0       2.532   5.716  19.264  0.00  0.00    +0.000 A 
ATOM      7  C   UNK A   0       1.903   5.155  20.524  0.00  0.00    +0.000 A 
ATOM      8  C   UNK A   0       1.266   6.003  21.334  0.00  0.00    +0.000 A 
ATOM      9  N   UNK A   0       1.172   7.338  20.999  0.00  0.00    +0.000 N 
ATOM     10  N   UNK A   0       0.563   8.302  21.721  0.00  0.00    +0.000 NA
ATOM     11  C   UNK A   0       0.663   9.385  20.961  0.00  0.00    +0.000 A 
ATOM     12  C   UNK A   0       1.349   9.156  19.750  0.00  0.00    +0.000 A 
ATOM     13  C   UNK A   0       1.714   7.817  19.800  0.00  0.00    +0.000 A 
ATOM     14  N   UNK A   0       2.422   6.995  18.944  0.00  0.00    +0.000 NA
ENDROOT
BRANCH   1  21
ATOM     15  C   UNK A   0       6.352   6.159  16.649  0.00  0.00    +0.000 A 
ATOM     16  N   UNK A   0       7.614   6.577  16.933  0.00  0.00    +0.000 NA
ATOM     17  C   UNK A   0       8.051   6.416  18.197  0.00  0.00    +0.000 A 
ATOM     18  C   UNK A   0       7.285   5.845  19.187  0.00  0.00    +0.000 A 
ATOM     19  F   UNK A   0       7.782   5.664  20.416  0.00  0.00    +0.000 F 
ATOM     20  C   UNK A   0       5.989   5.449  18.890  0.00  0.00    +0.000 A 
ATOM     21  C   UNK A   0       5.469   5.613  17.593  0.00  0.00    +0.000 A 
BRANCH  15  23
ATOM     22  C   UNK A   0       6.561   5.285  14.505  0.00  0.00    +0.000 C 
ATOM     23  O   UNK A   0       5.945   6.275  15.336  0.00  0.00    +0.000 OA
ENDBRANCH  15  23
ENDBRANCH   1  21
BRANCH  12  24
ATOM     24  C   UNK A   0       1.556  10.173  18.738  0.00  0.00    +0.000 C 
ATOM     25  O   UNK A   0       1.906   9.865  17.604  0.00  0.00    +0.000 OA
ATOM     26  N   SER A   1       1.330  11.473  19.113  0.00  0.00    +0.000 N 
ATOM     27  H   SER A   1       1.004  11.643  20.058  0.00  0.00    +0.000 HD
BRANCH  26  28
ATOM     28  CA  SER A   1       1.546  12.604  18.192  0.00  0.00    +0.000 C 
BRANCH  28  29
ATOM     29  CB  SER A   1       0.376  13.615  18.204  0.00  0.00    +0.000 C 
BRANCH  29  30
ATOM     30  OG  SER A   1      -0.786  13.112  17.541  0.00  0.00    +0.000 OA
ATOM     31  H   SER A   1      -1.472  12.949  18.207  0.00  0.00    +0.000 HD
ENDBRANCH  29  30
ENDBRANCH  28  29
BRANCH  28  32
ATOM     32  C   SER A   1       2.873  13.341  18.451  0.00  0.00    +0.000 C 
BRANCH  32  33
ATOM     33  O   SER A   1       3.187  14.196  17.353  0.00  0.00    +0.000 OA
ATOM     34  H   SER A   1       3.626  14.977  17.735  0.00  0.00    +0.000 HD
ENDBRANCH  32  33
ENDBRANCH  28  32
ENDBRANCH  26  28
ENDBRANCH  12  24
TORSDOF 8
ENDMDL
MODEL 3
REMARK VINA RESULT:      -7.1      0.855      1.139
REMARK  Name = 
REMARK  9 active torsions:
REMARK  status: ('A' for Active; 'I' for Inactive)
REMARK    1  A    between atoms: C_1  and  O_2
REMARK    2  A    between atoms: O_2  and  C_3
REMARK    3  A    between atoms: C_9  and  C_10
REMARK    4  A    between atoms: C_21  and  C_22
REMARK    5  A    between atoms: N_24  and  CA_25
REMARK    6  A    between atoms: CA_25  and  CB_26
REMARK    7  A    between atoms: CA_25  and  C_28
REMARK    8  A    between atoms: CB_26  and  OG_27
REMARK    9  A    between atoms: C_28  and  O_29
REMARK                            x       y       z     vdW  Elec       q    Type
REMARK                         _______ _______ _______ _____ _____    ______ ____
ROOT
ATOM      1  C   UNK A   0      -0.954  12.908  20.347  0.00  0.00    +0.000 C 
ATOM      2  C   UNK A   0       0.226  13.789  19.886  0.00  0.00    +0.000 C 
ATOM      3  C   UNK A   0       0.814  12.998  18.732  0.00  0.00    +0.000 C 
ATOM      4  C   UNK A   0      -0.433  12.516  18.011  0.00  0.00    +0.000 C 
ATOM      5  N   UNK A   0      -1.460  12.390  19.051  0.00  0.00    +0.000 N 
ATOM      6  C   UNK A   0      -2.790  12.080  18.782  0.00  0.00    +0.000 A 
ATOM      7  C   UNK A   0      -3.112  11.442  17.444  0.00  0.00    +0.000 A 
ATOM      8  C   UNK A   0      -4.375  11.084  17.211  0.00  0.00    +0.000 A 
ATOM      9  N   UNK A   0      -5.346  11.323  18.162  0.00  0.00    +0.000 N 
ATOM     10  N   UNK A   0      -6.656  11.013  18.061  0.00  0.00    +0.000 NA
ATOM     11  C   UNK A   0      -7.190  11.506  19.172  0.00  0.00    +0.000 A 
ATOM     12  C   UNK A   0      -6.246  12.124  20.018  0.00  0.00    +0.000 A 
ATOM     13  C   UNK A   0      -5.030  11.965  19.366  0.00  0.00    +0.000 A 
ATOM     14  N   UNK A   0      -3.732  12.319  19.680  0.00  0.00    +0.000 NA
ENDROOT
BRANCH   1  21
ATOM     15  C   UNK A   0      -1.106  11.644  22.580  0.00  0.00    +0.000 A 
ATOM     16  N   UNK A   0      -0.834  10.613  23.422  0.00  0.00    +0.000 NA
ATOM     17  C   UNK A   0       0.057   9.691  23.008  0.00  0.00    +0.000 A 
ATOM     18  C   UNK A   0       0.696   9.762  21.792  0.00  0.00    +0.000 A 
ATOM     19  F   UNK A   0       1.609   8.847  21.446  0.00  0.00    +0.000 F 
ATOM     20  C   UNK A   0       0.388  10.805  20.930  0.00  0.00    +0.000 A 
ATOM     21  C   UNK A   0      -0.552  11.784  21.298  0.00  0.00    +0.000 A 
BRANCH  15  23
ATOM     22  C   UNK A   0      -1.267  13.705  23.643  0.00  0.00    +0.000 C 
ATOM     23  O   UNK A   0      -1.972  12.611  23.046  0.00  0.00    +0.000 OA
ENDBRANCH  15  23
ENDBRANCH   1  21
BRANCH  12  24
ATOM     24  C   UNK A   0      -6.589  12.767  21.271  0.00  0.00    +0.000 C 
ATOM     25  O   UNK A   0      -7.617  13.426  21.376  0.00  0.00    +0.000 OA
ATOM     26  N   SER A   1      -5.717  12.589  22.316  0.00  0.00    +0.000 N 
ATOM     27  H   SER A   1      -4.908  11.996  22.161  0.00  0.00    +0.000 HD
BRANCH  26  28
ATOM     28  CA  SER A   1      -5.926  13.225  23.630  0.00  0.00    +0.000 C 
BRANCH  28  29
ATOM     29  CB  SER A   1      -5.354  12.385  24.796  0.00  0.00    +0.000 C 
BRANCH  29  30
ATOM     30  OG  SER A   1      -4.104  11.774  24.467  0.00  0.00    +0.000 OA
ATOM     31  H   SER A   1      -3.521  11.834  25.240  0.00  0.00    +0.000 HD
ENDBRANCH  29  30
ENDBRANCH  28  29
BRANCH  28  32
ATOM     32  C   SER A   1      -5.367  14.658  23.696  0.00  0.00    +0.000 C 
BRANCH  32  33
ATOM     33  O   SER A   1      -6.336  15.590  23.217  0.00  0.00    +0.000 OA
ATOM     34  H   SER A   1      -6.937  15.083  22.642  0.00  0.00    +0.000 HD
ENDBRANCH  32  33
ENDBRANCH  28  32
ENDBRANCH  26  28
ENDBRANCH  12  24
TORSDOF 8
ENDMDL
MODEL 4
REMARK VINA RESULT:      -7.1      1.406      1.929
REMARK  Name = 
REMARK  9 active torsions:
REMARK  status: ('A' for Active; 'I' for Inactive)
REMARK    1  A    between atoms: C_1  and  O_2
REMARK    2  A    between atoms: O_2  and  C_3
REMARK    3  A    between atoms: C_9  and  C_10
REMARK    4  A    between atoms: C_21  and  C_22
REMARK    5  A    between atoms: N_24  and  CA_25
REMARK    6  A    between atoms: CA_25  and  CB_26
REMARK    7  A    between atoms: CA_25  and  C_28
REMARK    8  A    between atoms: CB_26  and  OG_27
REMARK    9  A    between atoms: C_28  and  O_29
REMARK                            x       y       z     vdW  Elec       q    Type
REMARK                         _______ _______ _______ _____ _____    ______ ____
ROOT
ATOM      1  C   UNK A   0      -1.077  12.853  20.388  0.00  0.00    +0.000 C 
ATOM      2  C   UNK A   0       0.043  13.768  19.848  0.00  0.00    +0.000 C 
ATOM      3  C   UNK A   0       0.506  13.041  18.600  0.00  0.00    +0.000 C 
ATOM      4  C   UNK A   0      -0.809  12.582  17.993  0.00  0.00    +0.000 C 
ATOM      5  N   UNK A   0      -1.717  12.394  19.131  0.00  0.00    +0.000 N 
ATOM      6  C   UNK A   0      -3.066  12.083  18.991  0.00  0.00    +0.000 A 
ATOM      7  C   UNK A   0      -3.527  11.509  17.665  0.00  0.00    +0.000 A 
ATOM      8  C   UNK A   0      -4.807  11.149  17.552  0.00  0.00    +0.000 A 
ATOM      9  N   UNK A   0      -5.671  11.331  18.612  0.00  0.00    +0.000 N 
ATOM     10  N   UNK A   0      -6.982  11.012  18.638  0.00  0.00    +0.000 NA
ATOM     11  C   UNK A   0      -7.396  11.444  19.822  0.00  0.00    +0.000 A 
ATOM     12  C   UNK A   0      -6.369  12.030  20.593  0.00  0.00    +0.000 A 
ATOM     13  C   UNK A   0      -5.230  11.916  19.806  0.00  0.00    +0.000 A 
ATOM     14  N   UNK A   0      -3.907  12.268  19.996  0.00  0.00    +0.000 NA
ENDROOT
BRANCH   1  21
ATOM     15  C   UNK A   0      -0.875  11.552  22.596  0.00  0.00    +0.000 A 
ATOM     16  N   UNK A   0      -0.510  10.489  23.361  0.00  0.00    +0.000 NA
ATOM     17  C   UNK A   0       0.229   9.528  22.774  0.00  0.00    +0.000 A 
ATOM     18  C   UNK A   0       0.628   9.589  21.459  0.00  0.00    +0.000 A 
ATOM     19  F   UNK A   0       1.402   8.630  20.935  0.00  0.00    +0.000 F 
ATOM     20  C   UNK A   0       0.224  10.665  20.682  0.00  0.00    +0.000 A 
ATOM     21  C   UNK A   0      -0.568  11.688  21.234  0.00  0.00    +0.000 A 
BRANCH  15  23
ATOM     22  C   UNK A   0      -2.936  12.174  23.474  0.00  0.00    +0.000 C 
ATOM     23  O   UNK A   0      -1.577  12.556  23.230  0.00  0.00    +0.000 OA
ENDBRANCH  15  23
ENDBRANCH   1  21
BRANCH  12  24
ATOM     24  C   UNK A   0      -6.578  12.607  21.905  0.00  0.00    +0.000 C 
ATOM     25  O   UNK A   0      -7.197  11.995  22.768  0.00  0.00    +0.000 OA
ATOM     26  N   SER A   1      -6.040  13.850  22.126  0.00  0.00    +0.000 N 
ATOM     27  H   SER A   1      -5.506  14.275  21.375  0.00  0.00    +0.000 HD
BRANCH  26  28
ATOM     28  CA  SER A   1      -6.217  14.567  23.402  0.00  0.00    +0.000 C 
BRANCH  28  29
ATOM     29  CB  SER A   1      -4.973  15.395  23.799  0.00  0.00    +0.000 C 
BRANCH  29  30
ATOM     30  OG  SER A   1      -5.216  16.242  24.924  0.00  0.00    +0.000 OA
ATOM     31  H   SER A   1      -5.391  17.140  24.599  0.00  0.00    +0.000 HD
ENDBRANCH  29  30
ENDBRANCH  28  29
BRANCH  28  32
ATOM     32  C   SER A   1      -7.467  15.466  23.415  0.00  0.00    +0.000 C 
BRANCH  32  33
ATOM     33  O   SER A   1      -7.155  16.755  22.889  0.00  0.00    +0.000 OA
ATOM     34  H   SER A   1      -6.602  16.600  22.103  0.00  0.00    +0.000 HD
ENDBRANCH  32  33
ENDBRANCH  28  32
ENDBRANCH  26  28
ENDBRANCH  12  24
TORSDOF 8
ENDMDL
MODEL 5
REMARK VINA RESULT:      -6.9      0.899      1.511
REMARK  Name = 
REMARK  9 active torsions:
REMARK  status: ('A' for Active; 'I' for Inactive)
REMARK    1  A    between atoms: C_1  and  O_2
REMARK    2  A    between atoms: O_2  and  C_3
REMARK    3  A    between atoms: C_9  and  C_10
REMARK    4  A    between atoms: C_21  and  C_22
REMARK    5  A    between atoms: N_24  and  CA_25
REMARK    6  A    between atoms: CA_25  and  CB_26
REMARK    7  A    between atoms: CA_25  and  C_28
REMARK    8  A    between atoms: CB_26  and  OG_27
REMARK    9  A    between atoms: C_28  and  O_29
REMARK                            x       y       z     vdW  Elec       q    Type
REMARK                         _______ _______ _______ _____ _____    ______ ____
ROOT
ATOM      1  C   UNK A   0      -1.057  12.707  20.315  0.00  0.00    +0.000 C 
ATOM      2  C   UNK A   0       0.160  13.562  19.904  0.00  0.00    +0.000 C 
ATOM      3  C   UNK A   0       0.730  12.802  18.722  0.00  0.00    +0.000 C 
ATOM      4  C   UNK A   0      -0.526  12.399  17.968  0.00  0.00    +0.000 C 
ATOM      5  N   UNK A   0      -1.568  12.266  18.993  0.00  0.00    +0.000 N 
ATOM      6  C   UNK A   0      -2.906  12.018  18.698  0.00  0.00    +0.000 A 
ATOM      7  C   UNK A   0      -3.236  11.452  17.331  0.00  0.00    +0.000 A 
ATOM      8  C   UNK A   0      -4.510  11.152  17.070  0.00  0.00    +0.000 A 
ATOM      9  N   UNK A   0      -5.481  11.385  18.022  0.00  0.00    +0.000 N 
ATOM     10  N   UNK A   0      -6.801  11.129  17.896  0.00  0.00    +0.000 NA
ATOM     11  C   UNK A   0      -7.328  11.592  19.022  0.00  0.00    +0.000 A 
ATOM     12  C   UNK A   0      -6.371  12.137  19.904  0.00  0.00    +0.000 A 
ATOM     13  C   UNK A   0      -5.155  11.961  19.256  0.00  0.00    +0.000 A 
ATOM     14  N   UNK A   0      -3.848  12.253  19.597  0.00  0.00    +0.000 NA
ENDROOT
BRANCH   1  21
ATOM     15  C   UNK A   0      -0.723  11.619  22.619  0.00  0.00    +0.000 A 
ATOM     16  N   UNK A   0      -0.498  10.572  23.456  0.00  0.00    +0.000 NA
ATOM     17  C   UNK A   0      -0.200   9.384  22.898  0.00  0.00    +0.000 A 
ATOM     18  C   UNK A   0      -0.108   9.198  21.538  0.00  0.00    +0.000 A 
ATOM     19  F   UNK A   0       0.237   8.008  21.032  0.00  0.00    +0.000 F 
ATOM     20  C   UNK A   0      -0.369  10.269  20.694  0.00  0.00    +0.000 A 
ATOM     21  C   UNK A   0      -0.707  11.528  21.219  0.00  0.00    +0.000 A 
BRANCH  15  23
ATOM     22  C   UNK A   0      -2.308  12.935  23.697  0.00  0.00    +0.000 C 
ATOM     23  O   UNK A   0      -0.964  12.842  23.210  0.00  0.00    +0.000 OA
ENDBRANCH  15  23
ENDBRANCH   1  21
BRANCH  12  24
ATOM     24  C   UNK A   0      -6.702  12.737  21.181  0.00  0.00    +0.000 C 
ATOM     25  O   UNK A   0      -7.786  13.285  21.353  0.00  0.00    +0.000 OA
ATOM     26  N   SER A   1      -5.756  12.647  22.170  0.00  0.00    +0.000 N 
ATOM     27  H   SER A   1      -4.900  12.143  21.962  0.00  0.00    +0.000 HD
BRANCH  26  28
ATOM     28  CA  SER A   1      -5.950  13.254  23.500  0.00  0.00    +0.000 C 
BRANCH  28  29
ATOM     29  CB  SER A   1      -5.890  14.798  23.465  0.00  0.00    +0.000 C 
BRANCH  29  30
ATOM     30  OG  SER A   1      -4.649  15.284  22.950  0.00  0.00    +0.000 OA
ATOM     31  H   SER A   1      -4.067  15.493  23.698  0.00  0.00    +0.000 HD
ENDBRANCH  29  30
ENDBRANCH  28  29
BRANCH  28  32
ATOM     32  C   SER A   1      -7.254  12.798  24.180  0.00  0.00    +0.000 C 
BRANCH  32  33
ATOM     33  O   SER A   1      -7.437  11.393  24.009  0.00  0.00    +0.000 OA
ATOM     34  H   SER A   1      -7.329  10.997  24.892  0.00  0.00    +0.000 HD
ENDBRANCH  32  33
ENDBRANCH  28  32
ENDBRANCH  26  28
ENDBRANCH  12  24
TORSDOF 8
ENDMDL
MODEL 6
REMARK VINA RESULT:      -6.6      2.847      5.123
REMARK  Name = 
REMARK  9 active torsions:
REMARK  status: ('A' for Active; 'I' for Inactive)
REMARK    1  A    between atoms: C_1  and  O_2
REMARK    2  A    between atoms: O_2  and  C_3
REMARK    3  A    between atoms: C_9  and  C_10
REMARK    4  A    between atoms: C_21  and  C_22
REMARK    5  A    between atoms: N_24  and  CA_25
REMARK    6  A    between atoms: CA_25  and  CB_26
REMARK    7  A    between atoms: CA_25  and  C_28
REMARK    8  A    between atoms: CB_26  and  OG_27
REMARK    9  A    between atoms: C_28  and  O_29
REMARK                            x       y       z     vdW  Elec       q    Type
REMARK                         _______ _______ _______ _____ _____    ______ ____
ROOT
ATOM      1  C   UNK A   0      -0.756  10.996  19.425  0.00  0.00    +0.000 C 
ATOM      2  C   UNK A   0       0.068   9.701  19.593  0.00  0.00    +0.000 C 
ATOM      3  C   UNK A   0       1.083   9.792  18.469  0.00  0.00    +0.000 C 
ATOM      4  C   UNK A   0       1.478  11.258  18.517  0.00  0.00    +0.000 C 
ATOM      5  N   UNK A   0       0.294  11.963  19.022  0.00  0.00    +0.000 N 
ATOM      6  C   UNK A   0       0.281  13.323  19.321  0.00  0.00    +0.000 A 
ATOM      7  C   UNK A   0       1.372  14.190  18.722  0.00  0.00    +0.000 A 
ATOM      8  C   UNK A   0       1.323  15.503  18.953  0.00  0.00    +0.000 A 
ATOM      9  N   UNK A   0       0.318  16.027  19.741  0.00  0.00    +0.000 N 
ATOM     10  N   UNK A   0       0.147  17.329  20.054  0.00  0.00    +0.000 NA
ATOM     11  C   UNK A   0      -0.887  17.326  20.886  0.00  0.00    +0.000 A 
ATOM     12  C   UNK A   0      -1.417  16.039  21.114  0.00  0.00    +0.000 A 
ATOM     13  C   UNK A   0      -0.643  15.195  20.327  0.00  0.00    +0.000 A 
ATOM     14  N   UNK A   0      -0.668  13.835  20.087  0.00  0.00    +0.000 NA
ENDROOT
BRANCH   1  21
ATOM     15  C   UNK A   0      -3.091  11.566  18.514  0.00  0.00    +0.000 A 
ATOM     16  N   UNK A   0      -4.072  11.560  17.573  0.00  0.00    +0.000 NA
ATOM     17  C   UNK A   0      -3.866  10.820  16.467  0.00  0.00    +0.000 A 
ATOM     18  C   UNK A   0      -2.726  10.076  16.266  0.00  0.00    +0.000 A 
ATOM     19  F   UNK A   0      -2.589   9.319  15.170  0.00  0.00    +0.000 F 
ATOM     20  C   UNK A   0      -1.721  10.114  17.221  0.00  0.00    +0.000 A 
ATOM     21  C   UNK A   0      -1.869  10.888  18.386  0.00  0.00    +0.000 A 
BRANCH  15  23
ATOM     22  C   UNK A   0      -4.726  12.646  19.764  0.00  0.00    +0.000 C 
ATOM     23  O   UNK A   0      -3.345  12.279  19.668  0.00  0.00    +0.000 OA
ENDBRANCH  15  23
ENDBRANCH   1  21
BRANCH  12  24
ATOM     24  C   UNK A   0      -2.524  15.771  22.010  0.00  0.00    +0.000 C 
ATOM     25  O   UNK A   0      -3.329  16.652  22.292  0.00  0.00    +0.000 OA
ATOM     26  N   SER A   1      -2.624  14.495  22.505  0.00  0.00    +0.000 N 
ATOM     27  H   SER A   1      -1.942  13.812  22.193  0.00  0.00    +0.000 HD
BRANCH  26  28
ATOM     28  CA  SER A   1      -3.677  14.103  23.459  0.00  0.00    +0.000 C 
BRANCH  28  29
ATOM     29  CB  SER A   1      -3.991  12.590  23.413  0.00  0.00    +0.000 C 
BRANCH  29  30
ATOM     30  OG  SER A   1      -4.500  12.099  24.655  0.00  0.00    +0.000 OA
ATOM     31  H   SER A   1      -5.462  12.004  24.576  0.00  0.00    +0.000 HD
ENDBRANCH  29  30
ENDBRANCH  28  29
BRANCH  28  32
ATOM     32  C   SER A   1      -3.361  14.526  24.906  0.00  0.00    +0.000 C 
BRANCH  32  33
ATOM     33  O   SER A   1      -4.001  15.764  25.211  0.00  0.00    +0.000 OA
ATOM     34  H   SER A   1      -3.824  16.353  24.456  0.00  0.00    +0.000 HD
ENDBRANCH  32  33
ENDBRANCH  28  32
ENDBRANCH  26  28
ENDBRANCH  12  24
TORSDOF 8
ENDMDL
MODEL 7
REMARK VINA RESULT:      -6.5      2.769      4.926
REMARK  Name = 
REMARK  9 active torsions:
REMARK  status: ('A' for Active; 'I' for Inactive)
REMARK    1  A    between atoms: C_1  and  O_2
REMARK    2  A    between atoms: O_2  and  C_3
REMARK    3  A    between atoms: C_9  and  C_10
REMARK    4  A    between atoms: C_21  and  C_22
REMARK    5  A    between atoms: N_24  and  CA_25
REMARK    6  A    between atoms: CA_25  and  CB_26
REMARK    7  A    between atoms: CA_25  and  C_28
REMARK    8  A    between atoms: CB_26  and  OG_27
REMARK    9  A    between atoms: C_28  and  O_29
REMARK                            x       y       z     vdW  Elec       q    Type
REMARK                         _______ _______ _______ _____ _____    ______ ____
ROOT
ATOM      1  C   UNK A   0      -1.070  11.001  19.389  0.00  0.00    +0.000 C 
ATOM      2  C   UNK A   0      -0.177   9.749  19.525  0.00  0.00    +0.000 C 
ATOM      3  C   UNK A   0       0.899   9.980  18.482  0.00  0.00    +0.000 C 
ATOM      4  C   UNK A   0       1.196  11.460  18.655  0.00  0.00    +0.000 C 
ATOM      5  N   UNK A   0      -0.060  12.056  19.125  0.00  0.00    +0.000 N 
ATOM      6  C   UNK A   0      -0.180  13.387  19.513  0.00  0.00    +0.000 A 
ATOM      7  C   UNK A   0       0.889  14.358  19.050  0.00  0.00    +0.000 A 
ATOM      8  C   UNK A   0       0.742  15.646  19.365  0.00  0.00    +0.000 A 
ATOM      9  N   UNK A   0      -0.342  16.052  20.116  0.00  0.00    +0.000 N 
ATOM     10  N   UNK A   0      -0.617  17.315  20.504  0.00  0.00    +0.000 NA
ATOM     11  C   UNK A   0      -1.699  17.192  21.262  0.00  0.00    +0.000 A 
ATOM     12  C   UNK A   0      -2.159  15.862  21.366  0.00  0.00    +0.000 A 
ATOM     13  C   UNK A   0      -1.284  15.124  20.578  0.00  0.00    +0.000 A 
ATOM     14  N   UNK A   0      -1.207  13.785  20.246  0.00  0.00    +0.000 NA
ENDROOT
BRANCH   1  21
ATOM     15  C   UNK A   0      -3.349  11.549  18.335  0.00  0.00    +0.000 A 
ATOM     16  N   UNK A   0      -4.262  11.552  17.328  0.00  0.00    +0.000 NA
ATOM     17  C   UNK A   0      -3.962  10.851  16.217  0.00  0.00    +0.000 A 
ATOM     18  C   UNK A   0      -2.795  10.138  16.074  0.00  0.00    +0.000 A 
ATOM     19  F   UNK A   0      -2.564   9.418  14.969  0.00  0.00    +0.000 F 
ATOM     20  C   UNK A   0      -1.859  10.168  17.099  0.00  0.00    +0.000 A 
ATOM     21  C   UNK A   0      -2.106  10.901  18.273  0.00  0.00    +0.000 A 
BRANCH  15  23
ATOM     22  C   UNK A   0      -5.118  12.379  19.593  0.00  0.00    +0.000 C 
ATOM     23  O   UNK A   0      -3.699  12.221  19.488  0.00  0.00    +0.000 OA
ENDBRANCH  15  23
ENDBRANCH   1  21
BRANCH  12  24
ATOM     24  C   UNK A   0      -3.301  15.465  22.165  0.00  0.00    +0.000 C 
ATOM     25  O   UNK A   0      -4.220  16.249  22.376  0.00  0.00    +0.000 OA
ATOM     26  N   SER A   1      -3.300  14.182  22.651  0.00  0.00    +0.000 N 
ATOM     27  H   SER A   1      -2.522  13.582  22.399  0.00  0.00    +0.000 HD
BRANCH  26  28
ATOM     28  CA  SER A   1      -4.380  13.668  23.512  0.00  0.00    +0.000 C 
BRANCH  28  29
ATOM     29  CB  SER A   1      -5.691  13.407  22.733  0.00  0.00    +0.000 C 
BRANCH  29  30
ATOM     30  OG  SER A   1      -6.248  12.122  23.018  0.00  0.00    +0.000 OA
ATOM     31  H   SER A   1      -5.919  11.830  23.883  0.00  0.00    +0.000 HD
ENDBRANCH  29  30
ENDBRANCH  28  29
BRANCH  28  32
ATOM     32  C   SER A   1      -3.975  12.402  24.289  0.00  0.00    +0.000 C 
BRANCH  32  33
ATOM     33  O   SER A   1      -4.775  12.263  25.462  0.00  0.00    +0.000 OA
ATOM     34  H   SER A   1      -5.700  12.266  25.161  0.00  0.00    +0.000 HD
ENDBRANCH  32  33
ENDBRANCH  28  32
ENDBRANCH  26  28
ENDBRANCH  12  24
TORSDOF 8
ENDMDL
MODEL 8
REMARK VINA RESULT:      -6.4      3.134      6.358
REMARK  Name = 
REMARK  9 active torsions:
REMARK  status: ('A' for Active; 'I' for Inactive)
REMARK    1  A    between atoms: C_1  and  O_2
REMARK    2  A    between atoms: O_2  and  C_3
REMARK    3  A    between atoms: C_9  and  C_10
REMARK    4  A    between atoms: C_21  and  C_22
REMARK    5  A    between atoms: N_24  and  CA_25
REMARK    6  A    between atoms: CA_25  and  CB_26
REMARK    7  A    between atoms: CA_25  and  C_28
REMARK    8  A    between atoms: CB_26  and  OG_27
REMARK    9  A    between atoms: C_28  and  O_29
REMARK                            x       y       z     vdW  Elec       q    Type
REMARK                         _______ _______ _______ _____ _____    ______ ____
ROOT
ATOM      1  C   UNK A   0      -5.648  13.170  22.834  0.00  0.00    +0.000 C 
ATOM      2  C   UNK A   0      -6.496  12.717  24.042  0.00  0.00    +0.000 C 
ATOM      3  C   UNK A   0      -7.910  13.066  23.617  0.00  0.00    +0.000 C 
ATOM      4  C   UNK A   0      -7.917  12.643  22.158  0.00  0.00    +0.000 C 
ATOM      5  N   UNK A   0      -6.532  12.808  21.700  0.00  0.00    +0.000 N 
ATOM      6  C   UNK A   0      -6.090  12.417  20.439  0.00  0.00    +0.000 A 
ATOM      7  C   UNK A   0      -7.133  12.205  19.357  0.00  0.00    +0.000 A 
ATOM      8  C   UNK A   0      -6.707  11.895  18.132  0.00  0.00    +0.000 A 
ATOM      9  N   UNK A   0      -5.356  11.748  17.888  0.00  0.00    +0.000 N 
ATOM     10  N   UNK A   0      -4.787  11.440  16.703  0.00  0.00    +0.000 NA
ATOM     11  C   UNK A   0      -3.495  11.332  16.984  0.00  0.00    +0.000 A 
ATOM     12  C   UNK A   0      -3.196  11.584  18.340  0.00  0.00    +0.000 A 
ATOM     13  C   UNK A   0      -4.420  11.895  18.919  0.00  0.00    +0.000 A 
ATOM     14  N   UNK A   0      -4.799  12.259  20.197  0.00  0.00    +0.000 NA
ENDROOT
BRANCH   1  21
ATOM     15  C   UNK A   0      -4.193  15.171  23.533  0.00  0.00    +0.000 A 
ATOM     16  N   UNK A   0      -3.808  16.474  23.499  0.00  0.00    +0.000 NA
ATOM     17  C   UNK A   0      -4.570  17.328  22.789  0.00  0.00    +0.000 A 
ATOM     18  C   UNK A   0      -5.707  16.938  22.120  0.00  0.00    +0.000 A 
ATOM     19  F   UNK A   0      -6.456  17.833  21.466  0.00  0.00    +0.000 F 
ATOM     20  C   UNK A   0      -6.072  15.599  22.140  0.00  0.00    +0.000 A 
ATOM     21  C   UNK A   0      -5.303  14.657  22.845  0.00  0.00    +0.000 A 
BRANCH  15  23
ATOM     22  C   UNK A   0      -2.767  15.034  25.364  0.00  0.00    +0.000 C 
ATOM     23  O   UNK A   0      -3.437  14.324  24.316  0.00  0.00    +0.000 OA
ENDBRANCH  15  23
ENDBRANCH   1  21
BRANCH  12  24
ATOM     24  C   UNK A   0      -1.862  11.494  18.900  0.00  0.00    +0.000 C 
ATOM     25  O   UNK A   0      -0.923  11.099  18.219  0.00  0.00    +0.000 OA
ATOM     26  N   SER A   1      -1.714  11.880  20.208  0.00  0.00    +0.000 N 
ATOM     27  H   SER A   1      -2.533  12.234  20.693  0.00  0.00    +0.000 HD
BRANCH  26  28
ATOM     28  CA  SER A   1      -0.420  11.796  20.910  0.00  0.00    +0.000 C 
BRANCH  28  29
ATOM     29  CB  SER A   1      -0.182  12.988  21.866  0.00  0.00    +0.000 C 
BRANCH  29  30
ATOM     30  OG  SER A   1      -1.044  12.954  23.006  0.00  0.00    +0.000 OA
ATOM     31  H   SER A   1      -0.915  12.108  23.462  0.00  0.00    +0.000 HD
ENDBRANCH  29  30
ENDBRANCH  28  29
BRANCH  28  32
ATOM     32  C   SER A   1      -0.238  10.471  21.673  0.00  0.00    +0.000 C 
BRANCH  32  33
ATOM     33  O   SER A   1       1.129  10.295  22.040  0.00  0.00    +0.000 OA
ATOM     34  H   SER A   1       1.649  10.820  21.406  0.00  0.00    +0.000 HD
ENDBRANCH  32  33
ENDBRANCH  28  32
ENDBRANCH  26  28
ENDBRANCH  12  24
TORSDOF 8
ENDMDL
MODEL 9
REMARK VINA RESULT:      -6.4      3.307      6.661
REMARK  Name = 
REMARK  9 active torsions:
REMARK  status: ('A' for Active; 'I' for Inactive)
REMARK    1  A    between atoms: C_1  and  O_2
REMARK    2  A    between atoms: O_2  and  C_3
REMARK    3  A    between atoms: C_9  and  C_10
REMARK    4  A    between atoms: C_21  and  C_22
REMARK    5  A    between atoms: N_24  and  CA_25
REMARK    6  A    between atoms: CA_25  and  CB_26
REMARK    7  A    between atoms: CA_25  and  C_28
REMARK    8  A    between atoms: CB_26  and  OG_27
REMARK    9  A    between atoms: C_28  and  O_29
REMARK                            x       y       z     vdW  Elec       q    Type
REMARK                         _______ _______ _______ _____ _____    ______ ____
ROOT
ATOM      1  C   UNK A   0      -5.375  12.992  21.895  0.00  0.00    +0.000 C 
ATOM      2  C   UNK A   0      -6.439  12.617  22.949  0.00  0.00    +0.000 C 
ATOM      3  C   UNK A   0      -7.735  13.066  22.301  0.00  0.00    +0.000 C 
ATOM      4  C   UNK A   0      -7.538  12.628  20.860  0.00  0.00    +0.000 C 
ATOM      5  N   UNK A   0      -6.090  12.684  20.631  0.00  0.00    +0.000 N 
ATOM      6  C   UNK A   0      -5.481  12.247  19.458  0.00  0.00    +0.000 A 
ATOM      7  C   UNK A   0      -6.348  12.102  18.222  0.00  0.00    +0.000 A 
ATOM      8  C   UNK A   0      -5.755  11.747  17.082  0.00  0.00    +0.000 A 
ATOM      9  N   UNK A   0      -4.398  11.497  17.059  0.00  0.00    +0.000 N 
ATOM     10  N   UNK A   0      -3.670  11.134  15.981  0.00  0.00    +0.000 NA
ATOM     11  C   UNK A   0      -2.452  10.933  16.468  0.00  0.00    +0.000 A 
ATOM     12  C   UNK A   0      -2.358  11.177  17.854  0.00  0.00    +0.000 A 
ATOM     13  C   UNK A   0      -3.632  11.585  18.228  0.00  0.00    +0.000 A 
ATOM     14  N   UNK A   0      -4.184  11.990  19.428  0.00  0.00    +0.000 NA
ENDROOT
BRANCH   1  21
ATOM     15  C   UNK A   0      -3.888  14.881  22.802  0.00  0.00    +0.000 A 
ATOM     16  N   UNK A   0      -3.405  16.152  22.830  0.00  0.00    +0.000 NA
ATOM     17  C   UNK A   0      -3.995  17.057  22.026  0.00  0.00    +0.000 A 
ATOM     18  C   UNK A   0      -5.053  16.750  21.202  0.00  0.00    +0.000 A 
ATOM     19  F   UNK A   0      -5.635  17.696  20.456  0.00  0.00    +0.000 F 
ATOM     20  C   UNK A   0      -5.517  15.443  21.162  0.00  0.00    +0.000 A 
ATOM     21  C   UNK A   0      -4.926  14.449  21.963  0.00  0.00    +0.000 A 
BRANCH  15  23
ATOM     22  C   UNK A   0      -1.992  13.618  23.265  0.00  0.00    +0.000 C 
ATOM     23  O   UNK A   0      -3.313  13.983  23.677  0.00  0.00    +0.000 OA
ENDBRANCH  15  23
ENDBRANCH   1  21
BRANCH  12  24
ATOM     24  C   UNK A   0      -1.142  10.994  18.622  0.00  0.00    +0.000 C 
ATOM     25  O   UNK A   0      -0.995  10.007  19.334  0.00  0.00    +0.000 OA
ATOM     26  N   SER A   1      -0.181  11.965  18.498  0.00  0.00    +0.000 N 
ATOM     27  H   SER A   1      -0.362  12.731  17.858  0.00  0.00    +0.000 HD
BRANCH  26  28
ATOM     28  CA  SER A   1       1.082  11.921  19.258  0.00  0.00    +0.000 C 
BRANCH  28  29
ATOM     29  CB  SER A   1       2.201  12.765  18.605  0.00  0.00    +0.000 C 
BRANCH  29  30
ATOM     30  OG  SER A   1       2.594  12.256  17.329  0.00  0.00    +0.000 OA
ATOM     31  H   SER A   1       3.505  12.540  17.152  0.00  0.00    +0.000 HD
ENDBRANCH  29  30
ENDBRANCH  28  29
BRANCH  28  32
ATOM     32  C   SER A   1       0.909  12.336  20.731  0.00  0.00    +0.000 C 
BRANCH  32  33
ATOM     33  O   SER A   1       0.912  11.184  21.573  0.00  0.00    +0.000 OA
ATOM     34  H   SER A   1       0.609  11.487  22.447  0.00  0.00    +0.000 HD
ENDBRANCH  32  33
ENDBRANCH  28  32
ENDBRANCH  26  28
ENDBRANCH  12  24
TORSDOF 8
ENDMDL
