MODEL 1
REMARK VINA RESULT:      -6.8      0.000      0.000
REMARK  Name = 
REMARK  10 active torsions:
REMARK  status: ('A' for Active; 'I' for Inactive)
REMARK    1  A    between atoms: C_1  and  N_2
REMARK    2  A    between atoms: N_2  and  C_3
REMARK    3  A    between atoms: N_2  and  C_4
REMARK    4  A    between atoms: C_4  and  C_5
REMARK    5  A    between atoms: C_5  and  C_6
REMARK    6  A    between atoms: C_5  and  C_7
REMARK    7  A    between atoms: C_5  and  C_8
REMARK    8  A    between atoms: C_8  and  N_9
REMARK    9  A    between atoms: N_9  and  S_10
REMARK   10  A    between atoms: S_10  and  C_13
REMARK                            x       y       z     vdW  Elec       q    Type
REMARK                         _______ _______ _______ _____ _____    ______ ____
ROOT
ATOM      1  S   UNL     1       3.301   2.982  18.035  0.00  0.00    +0.000 S 
ATOM      2  O   UNL     1       2.430   2.716  16.912  0.00  0.00    +0.000 OA
ATOM      3  O   UNL     1       3.525   2.014  19.091  0.00  0.00    +0.000 OA
ENDROOT
BRANCH   1   4
ATOM      4  C   UNL     1       2.752   4.478  18.823  0.00  0.00    +0.000 A 
ATOM      5  C   UNL     1       2.203   4.425  20.109  0.00  0.00    +0.000 A 
ATOM      6  C   UNL     1       1.816   5.605  20.742  0.00  0.00    +0.000 A 
ATOM      7  C   UNL     1       1.969   6.831  20.090  0.00  0.00    +0.000 A 
ATOM      8 CL   UNL     1       1.516   8.262  20.952  0.00  0.00    +0.000 Cl
ATOM      9  C   UNL     1       2.488   6.879  18.788  0.00  0.00    +0.000 A 
ATOM     10 CL   UNL     1       2.713   8.358  17.930  0.00  0.00    +0.000 Cl
ATOM     11  C   UNL     1       2.870   5.698  18.149  0.00  0.00    +0.000 A 
ENDBRANCH   1   4
BRANCH   1  12
ATOM     12  N   UNL     1       4.824   3.453  17.465  0.00  0.00    +0.000 NA
ATOM     13  H   UNL     1       5.213   4.148  18.100  0.00  0.00    +0.000 HD
BRANCH  12  14
ATOM     14  C   UNL     1       4.939   3.796  16.024  0.00  0.00    +0.000 C 
BRANCH  14  15
ATOM     15  C   UNL     1       5.970   4.945  15.761  0.00  0.00    +0.000 C 
ATOM     16  C   UNL     1       5.230   6.285  15.600  0.00  0.00    +0.000 C 
ATOM     17  C   UNL     1       6.761   4.618  14.481  0.00  0.00    +0.000 C 
BRANCH  15  18
ATOM     18  C   UNL     1       6.906   5.011  17.028  0.00  0.00    +0.000 C 
BRANCH  18  20
ATOM     19  C   UNL     1       6.637   5.486  19.380  0.00  0.00    +0.000 C 
ATOM     20  N   UNL     1       6.730   6.081  18.038  0.00  0.00    +0.000 NA
ATOM     21  C   UNL     1       7.793   7.083  18.053  0.00  0.00    +0.000 C 
ENDBRANCH  18  20
ENDBRANCH  15  18
ENDBRANCH  14  15
ENDBRANCH  12  14
ENDBRANCH   1  12
TORSDOF 6
ENDMDL
MODEL 2
REMARK VINA RESULT:      -6.6      3.749      6.183
REMARK  Name = 
REMARK  10 active torsions:
REMARK  status: ('A' for Active; 'I' for Inactive)
REMARK    1  A    between atoms: C_1  and  N_2
REMARK    2  A    between atoms: N_2  and  C_3
REMARK    3  A    between atoms: N_2  and  C_4
REMARK    4  A    between atoms: C_4  and  C_5
REMARK    5  A    between atoms: C_5  and  C_6
REMARK    6  A    between atoms: C_5  and  C_7
REMARK    7  A    between atoms: C_5  and  C_8
REMARK    8  A    between atoms: C_8  and  N_9
REMARK    9  A    between atoms: N_9  and  S_10
REMARK   10  A    between atoms: S_10  and  C_13
REMARK                            x       y       z     vdW  Elec       q    Type
REMARK                         _______ _______ _______ _____ _____    ______ ____
ROOT
ATOM      1  S   UNL     1       6.667   5.557  17.975  0.00  0.00    +0.000 S 
ATOM      2  O   UNL     1       7.571   6.682  17.907  0.00  0.00    +0.000 OA
ATOM      3  O   UNL     1       6.900   4.426  18.853  0.00  0.00    +0.000 OA
ENDROOT
BRANCH   1   4
ATOM      4  C   UNL     1       6.472   4.898  16.336  0.00  0.00    +0.000 A 
ATOM      5  C   UNL     1       5.490   3.933  16.087  0.00  0.00    +0.000 A 
ATOM      6  C   UNL     1       5.310   3.452  14.791  0.00  0.00    +0.000 A 
ATOM      7  C   UNL     1       6.113   3.928  13.750  0.00  0.00    +0.000 A 
ATOM      8 CL   UNL     1       5.802   3.327  12.158  0.00  0.00    +0.000 Cl
ATOM      9  C   UNL     1       7.119   4.870  14.009  0.00  0.00    +0.000 A 
ATOM     10 CL   UNL     1       8.138   5.506  12.771  0.00  0.00    +0.000 Cl
ATOM     11  C   UNL     1       7.306   5.347  15.307  0.00  0.00    +0.000 A 
ENDBRANCH   1   4
BRANCH   1  12
ATOM     12  N   UNL     1       5.100   6.114  18.293  0.00  0.00    +0.000 NA
ATOM     13  H   UNL     1       5.135   7.117  18.464  0.00  0.00    +0.000 HD
BRANCH  12  14
ATOM     14  C   UNL     1       4.287   5.346  19.269  0.00  0.00    +0.000 C 
BRANCH  14  15
ATOM     15  C   UNL     1       2.748   5.487  19.011  0.00  0.00    +0.000 C 
ATOM     16  C   UNL     1       2.469   6.768  18.206  0.00  0.00    +0.000 C 
ATOM     17  C   UNL     1       2.021   5.543  20.368  0.00  0.00    +0.000 C 
BRANCH  15  18
ATOM     18  C   UNL     1       2.314   4.230  18.166  0.00  0.00    +0.000 C 
BRANCH  18  20
ATOM     19  C   UNL     1       0.892   2.372  18.762  0.00  0.00    +0.000 C 
ATOM     20  N   UNL     1       2.270   2.885  18.787  0.00  0.00    +0.000 NA
ATOM     21  C   UNL     1       3.140   1.895  18.156  0.00  0.00    +0.000 C 
ENDBRANCH  18  20
ENDBRANCH  15  18
ENDBRANCH  14  15
ENDBRANCH  12  14
ENDBRANCH   1  12
TORSDOF 6
ENDMDL
MODEL 3
REMARK VINA RESULT:      -6.4      1.737      2.465
REMARK  Name = 
REMARK  10 active torsions:
REMARK  status: ('A' for Active; 'I' for Inactive)
REMARK    1  A    between atoms: C_1  and  N_2
REMARK    2  A    between atoms: N_2  and  C_3
REMARK    3  A    between atoms: N_2  and  C_4
REMARK    4  A    between atoms: C_4  and  C_5
REMARK    5  A    between atoms: C_5  and  C_6
REMARK    6  A    between atoms: C_5  and  C_7
REMARK    7  A    between atoms: C_5  and  C_8
REMARK    8  A    between atoms: C_8  and  N_9
REMARK    9  A    between atoms: N_9  and  S_10
REMARK   10  A    between atoms: S_10  and  C_13
REMARK                            x       y       z     vdW  Elec       q    Type
REMARK                         _______ _______ _______ _____ _____    ______ ____
ROOT
ATOM      1  S   UNL     1       3.252   5.115  18.980  0.00  0.00    +0.000 S 
ATOM      2  O   UNL     1       2.210   4.148  19.239  0.00  0.00    +0.000 OA
ATOM      3  O   UNL     1       4.480   5.158  19.749  0.00  0.00    +0.000 OA
ENDROOT
BRANCH   1   4
ATOM      4  C   UNL     1       2.538   6.741  19.070  0.00  0.00    +0.000 A 
ATOM      5  C   UNL     1       2.534   7.561  17.936  0.00  0.00    +0.000 A 
ATOM      6  C   UNL     1       1.933   8.818  17.998  0.00  0.00    +0.000 A 
ATOM      7  C   UNL     1       1.346   9.255  19.189  0.00  0.00    +0.000 A 
ATOM      8 CL   UNL     1       0.572  10.803  19.181  0.00  0.00    +0.000 Cl
ATOM      9  C   UNL     1       1.381   8.444  20.332  0.00  0.00    +0.000 A 
ATOM     10 CL   UNL     1       0.667   8.917  21.829  0.00  0.00    +0.000 Cl
ATOM     11  C   UNL     1       1.988   7.189  20.275  0.00  0.00    +0.000 A 
ENDBRANCH   1   4
BRANCH   1  12
ATOM     12  N   UNL     1       3.693   5.042  17.347  0.00  0.00    +0.000 NA
ATOM     13  H   UNL     1       2.881   4.766  16.798  0.00  0.00    +0.000 HD
BRANCH  12  14
ATOM     14  C   UNL     1       4.945   4.318  17.010  0.00  0.00    +0.000 C 
BRANCH  14  15
ATOM     15  C   UNL     1       5.846   5.113  16.005  0.00  0.00    +0.000 C 
ATOM     16  C   UNL     1       5.127   6.401  15.566  0.00  0.00    +0.000 C 
ATOM     17  C   UNL     1       6.132   4.221  14.782  0.00  0.00    +0.000 C 
BRANCH  15  18
ATOM     18  C   UNL     1       7.167   5.487  16.780  0.00  0.00    +0.000 C 
BRANCH  18  20
ATOM     19  C   UNL     1       7.812   5.869  19.075  0.00  0.00    +0.000 C 
ATOM     20  N   UNL     1       7.131   6.448  17.907  0.00  0.00    +0.000 NA
ATOM     21  C   UNL     1       7.739   7.745  17.618  0.00  0.00    +0.000 C 
ENDBRANCH  18  20
ENDBRANCH  15  18
ENDBRANCH  14  15
ENDBRANCH  12  14
ENDBRANCH   1  12
TORSDOF 6
ENDMDL
MODEL 4
REMARK VINA RESULT:      -6.2      1.287      2.471
REMARK  Name = 
REMARK  10 active torsions:
REMARK  status: ('A' for Active; 'I' for Inactive)
REMARK    1  A    between atoms: C_1  and  N_2
REMARK    2  A    between atoms: N_2  and  C_3
REMARK    3  A    between atoms: N_2  and  C_4
REMARK    4  A    between atoms: C_4  and  C_5
REMARK    5  A    between atoms: C_5  and  C_6
REMARK    6  A    between atoms: C_5  and  C_7
REMARK    7  A    between atoms: C_5  and  C_8
REMARK    8  A    between atoms: C_8  and  N_9
REMARK    9  A    between atoms: N_9  and  S_10
REMARK   10  A    between atoms: S_10  and  C_13
REMARK                            x       y       z     vdW  Elec       q    Type
REMARK                         _______ _______ _______ _____ _____    ______ ____
ROOT
ATOM      1  S   UNL     1       3.968   3.137  18.397  0.00  0.00    +0.000 S 
ATOM      2  O   UNL     1       2.971   2.256  17.833  0.00  0.00    +0.000 OA
ATOM      3  O   UNL     1       4.904   2.701  19.415  0.00  0.00    +0.000 OA
ENDROOT
BRANCH   1   4
ATOM      4  C   UNL     1       3.141   4.571  19.047  0.00  0.00    +0.000 A 
ATOM      5  C   UNL     1       2.575   4.525  20.326  0.00  0.00    +0.000 A 
ATOM      6  C   UNL     1       1.967   5.666  20.850  0.00  0.00    +0.000 A 
ATOM      7  C   UNL     1       1.918   6.842  20.097  0.00  0.00    +0.000 A 
ATOM      8 CL   UNL     1       1.195   8.234  20.828  0.00  0.00    +0.000 Cl
ATOM      9  C   UNL     1       2.457   6.874  18.803  0.00  0.00    +0.000 A 
ATOM     10 CL   UNL     1       2.440   8.294  17.824  0.00  0.00    +0.000 Cl
ATOM     11  C   UNL     1       3.059   5.732  18.273  0.00  0.00    +0.000 A 
ENDBRANCH   1   4
BRANCH   1  12
ATOM     12  N   UNL     1       4.881   3.826  17.148  0.00  0.00    +0.000 NA
ATOM     13  H   UNL     1       4.961   3.152  16.388  0.00  0.00    +0.000 HD
BRANCH  12  14
ATOM     14  C   UNL     1       6.154   4.494  17.521  0.00  0.00    +0.000 C 
BRANCH  14  15
ATOM     15  C   UNL     1       6.534   5.651  16.537  0.00  0.00    +0.000 C 
ATOM     16  C   UNL     1       7.394   6.697  17.268  0.00  0.00    +0.000 C 
ATOM     17  C   UNL     1       5.239   6.302  16.012  0.00  0.00    +0.000 C 
BRANCH  15  18
ATOM     18  C   UNL     1       7.375   4.999  15.374  0.00  0.00    +0.000 C 
BRANCH  18  20
ATOM     19  C   UNL     1       7.999   5.297  13.061  0.00  0.00    +0.000 C 
ATOM     20  N   UNL     1       6.880   5.033  13.978  0.00  0.00    +0.000 NA
ATOM     21  C   UNL     1       6.207   3.812  13.542  0.00  0.00    +0.000 C 
ENDBRANCH  18  20
ENDBRANCH  15  18
ENDBRANCH  14  15
ENDBRANCH  12  14
ENDBRANCH   1  12
TORSDOF 6
ENDMDL
MODEL 5
REMARK VINA RESULT:      -6.0      0.958      1.235
REMARK  Name = 
REMARK  10 active torsions:
REMARK  status: ('A' for Active; 'I' for Inactive)
REMARK    1  A    between atoms: C_1  and  N_2
REMARK    2  A    between atoms: N_2  and  C_3
REMARK    3  A    between atoms: N_2  and  C_4
REMARK    4  A    between atoms: C_4  and  C_5
REMARK    5  A    between atoms: C_5  and  C_6
REMARK    6  A    between atoms: C_5  and  C_7
REMARK    7  A    between atoms: C_5  and  C_8
REMARK    8  A    between atoms: C_8  and  N_9
REMARK    9  A    between atoms: N_9  and  S_10
REMARK   10  A    between atoms: S_10  and  C_13
REMARK                            x       y       z     vdW  Elec       q    Type
REMARK                         _______ _______ _______ _____ _____    ______ ____
ROOT
ATOM      1  S   UNL     1       3.780   3.282  18.642  0.00  0.00    +0.000 S 
ATOM      2  O   UNL     1       2.761   2.274  18.456  0.00  0.00    +0.000 OA
ATOM      3  O   UNL     1       4.924   3.079  19.510  0.00  0.00    +0.000 OA
ENDROOT
BRANCH   1   4
ATOM      4  C   UNL     1       2.989   4.780  19.183  0.00  0.00    +0.000 A 
ATOM      5  C   UNL     1       2.380   4.828  20.441  0.00  0.00    +0.000 A 
ATOM      6  C   UNL     1       1.801   6.019  20.881  0.00  0.00    +0.000 A 
ATOM      7  C   UNL     1       1.824   7.151  20.062  0.00  0.00    +0.000 A 
ATOM      8 CL   UNL     1       1.133   8.609  20.689  0.00  0.00    +0.000 Cl
ATOM      9  C   UNL     1       2.406   7.090  18.788  0.00  0.00    +0.000 A 
ATOM     10 CL   UNL     1       2.478   8.452  17.732  0.00  0.00    +0.000 Cl
ATOM     11  C   UNL     1       2.980   5.898  18.343  0.00  0.00    +0.000 A 
ENDBRANCH   1   4
BRANCH   1  12
ATOM     12  N   UNL     1       4.383   3.757  17.133  0.00  0.00    +0.000 NA
ATOM     13  H   UNL     1       4.022   3.125  16.420  0.00  0.00    +0.000 HD
BRANCH  12  14
ATOM     14  C   UNL     1       5.838   4.036  17.035  0.00  0.00    +0.000 C 
BRANCH  14  15
ATOM     15  C   UNL     1       6.152   5.269  16.122  0.00  0.00    +0.000 C 
ATOM     16  C   UNL     1       4.969   5.531  15.172  0.00  0.00    +0.000 C 
ATOM     17  C   UNL     1       7.428   4.974  15.311  0.00  0.00    +0.000 C 
BRANCH  15  18
ATOM     18  C   UNL     1       6.340   6.506  17.080  0.00  0.00    +0.000 C 
BRANCH  18  20
ATOM     19  C   UNL     1       7.857   8.277  17.704  0.00  0.00    +0.000 C 
ATOM     20  N   UNL     1       7.671   6.819  17.651  0.00  0.00    +0.000 NA
ATOM     21  C   UNL     1       7.901   6.277  18.988  0.00  0.00    +0.000 C 
ENDBRANCH  18  20
ENDBRANCH  15  18
ENDBRANCH  14  15
ENDBRANCH  12  14
ENDBRANCH   1  12
TORSDOF 6
ENDMDL
MODEL 6
REMARK VINA RESULT:      -6.0      1.479      2.745
REMARK  Name = 
REMARK  10 active torsions:
REMARK  status: ('A' for Active; 'I' for Inactive)
REMARK    1  A    between atoms: C_1  and  N_2
REMARK    2  A    between atoms: N_2  and  C_3
REMARK    3  A    between atoms: N_2  and  C_4
REMARK    4  A    between atoms: C_4  and  C_5
REMARK    5  A    between atoms: C_5  and  C_6
REMARK    6  A    between atoms: C_5  and  C_7
REMARK    7  A    between atoms: C_5  and  C_8
REMARK    8  A    between atoms: C_8  and  N_9
REMARK    9  A    between atoms: N_9  and  S_10
REMARK   10  A    between atoms: S_10  and  C_13
REMARK                            x       y       z     vdW  Elec       q    Type
REMARK                         _______ _______ _______ _____ _____    ______ ____
ROOT
ATOM      1  S   UNL     1       4.050   2.882  18.872  0.00  0.00    +0.000 S 
ATOM      2  O   UNL     1       3.134   2.040  18.137  0.00  0.00    +0.000 OA
ATOM      3  O   UNL     1       4.814   2.395  20.004  0.00  0.00    +0.000 OA
ENDROOT
BRANCH   1   4
ATOM      4  C   UNL     1       3.160   4.314  19.436  0.00  0.00    +0.000 A 
ATOM      5  C   UNL     1       2.423   4.251  20.623  0.00  0.00    +0.000 A 
ATOM      6  C   UNL     1       1.763   5.389  21.086  0.00  0.00    +0.000 A 
ATOM      7  C   UNL     1       1.835   6.582  20.361  0.00  0.00    +0.000 A 
ATOM      8 CL   UNL     1       1.037   7.970  21.018  0.00  0.00    +0.000 Cl
ATOM      9  C   UNL     1       2.548   6.633  19.154  0.00  0.00    +0.000 A 
ATOM     10 CL   UNL     1       2.686   8.075  18.217  0.00  0.00    +0.000 Cl
ATOM     11  C   UNL     1       3.202   5.494  18.685  0.00  0.00    +0.000 A 
ENDBRANCH   1   4
BRANCH   1  12
ATOM     12  N   UNL     1       5.153   3.585  17.796  0.00  0.00    +0.000 NA
ATOM     13  H   UNL     1       5.585   4.390  18.246  0.00  0.00    +0.000 HD
BRANCH  12  14
ATOM     14  C   UNL     1       4.693   3.824  16.405  0.00  0.00    +0.000 C 
BRANCH  14  15
ATOM     15  C   UNL     1       5.677   4.736  15.596  0.00  0.00    +0.000 C 
ATOM     16  C   UNL     1       7.122   4.488  16.063  0.00  0.00    +0.000 C 
ATOM     17  C   UNL     1       5.290   6.209  15.825  0.00  0.00    +0.000 C 
BRANCH  15  18
ATOM     18  C   UNL     1       5.535   4.322  14.082  0.00  0.00    +0.000 C 
BRANCH  18  20
ATOM     19  C   UNL     1       6.321   3.148  12.124  0.00  0.00    +0.000 C 
ATOM     20  N   UNL     1       6.730   3.944  13.291  0.00  0.00    +0.000 NA
ATOM     21  C   UNL     1       7.529   5.073  12.820  0.00  0.00    +0.000 C 
ENDBRANCH  18  20
ENDBRANCH  15  18
ENDBRANCH  14  15
ENDBRANCH  12  14
ENDBRANCH   1  12
TORSDOF 6
ENDMDL
MODEL 7
REMARK VINA RESULT:      -6.0      2.102      3.442
REMARK  Name = 
REMARK  10 active torsions:
REMARK  status: ('A' for Active; 'I' for Inactive)
REMARK    1  A    between atoms: C_1  and  N_2
REMARK    2  A    between atoms: N_2  and  C_3
REMARK    3  A    between atoms: N_2  and  C_4
REMARK    4  A    between atoms: C_4  and  C_5
REMARK    5  A    between atoms: C_5  and  C_6
REMARK    6  A    between atoms: C_5  and  C_7
REMARK    7  A    between atoms: C_5  and  C_8
REMARK    8  A    between atoms: C_8  and  N_9
REMARK    9  A    between atoms: N_9  and  S_10
REMARK   10  A    between atoms: S_10  and  C_13
REMARK                            x       y       z     vdW  Elec       q    Type
REMARK                         _______ _______ _______ _____ _____    ______ ____
ROOT
ATOM      1  S   UNL     1       3.512   5.224  19.063  0.00  0.00    +0.000 S 
ATOM      2  O   UNL     1       2.547   4.197  19.385  0.00  0.00    +0.000 OA
ATOM      3  O   UNL     1       4.747   5.389  19.805  0.00  0.00    +0.000 OA
ENDROOT
BRANCH   1   4
ATOM      4  C   UNL     1       2.684   6.797  19.094  0.00  0.00    +0.000 A 
ATOM      5  C   UNL     1       2.679   7.601  17.950  0.00  0.00    +0.000 A 
ATOM      6  C   UNL     1       1.990   8.814  17.964  0.00  0.00    +0.000 A 
ATOM      7  C   UNL     1       1.317   9.223  19.118  0.00  0.00    +0.000 A 
ATOM      8 CL   UNL     1       0.440  10.713  19.051  0.00  0.00    +0.000 Cl
ATOM      9  C   UNL     1       1.352   8.430  20.274  0.00  0.00    +0.000 A 
ATOM     10 CL   UNL     1       0.536   8.869  21.729  0.00  0.00    +0.000 Cl
ATOM     11  C   UNL     1       2.047   7.219  20.265  0.00  0.00    +0.000 A 
ENDBRANCH   1   4
BRANCH   1  12
ATOM     12  N   UNL     1       3.931   5.107  17.426  0.00  0.00    +0.000 NA
ATOM     13  H   UNL     1       3.182   4.632  16.927  0.00  0.00    +0.000 HD
BRANCH  12  14
ATOM     14  C   UNL     1       5.297   4.622  17.104  0.00  0.00    +0.000 C 
BRANCH  14  15
ATOM     15  C   UNL     1       6.142   5.683  16.322  0.00  0.00    +0.000 C 
ATOM     16  C   UNL     1       7.045   6.455  17.299  0.00  0.00    +0.000 C 
ATOM     17  C   UNL     1       5.181   6.653  15.607  0.00  0.00    +0.000 C 
BRANCH  15  18
ATOM     18  C   UNL     1       7.036   4.885  15.298  0.00  0.00    +0.000 C 
BRANCH  18  20
ATOM     19  C   UNL     1       8.008   5.306  13.129  0.00  0.00    +0.000 C 
ATOM     20  N   UNL     1       6.768   4.965  13.843  0.00  0.00    +0.000 NA
ATOM     21  C   UNL     1       6.222   3.744  13.257  0.00  0.00    +0.000 C 
ENDBRANCH  18  20
ENDBRANCH  15  18
ENDBRANCH  14  15
ENDBRANCH  12  14
ENDBRANCH   1  12
TORSDOF 6
ENDMDL
MODEL 8
REMARK VINA RESULT:      -5.9      3.124      5.133
REMARK  Name = 
REMARK  10 active torsions:
REMARK  status: ('A' for Active; 'I' for Inactive)
REMARK    1  A    between atoms: C_1  and  N_2
REMARK    2  A    between atoms: N_2  and  C_3
REMARK    3  A    between atoms: N_2  and  C_4
REMARK    4  A    between atoms: C_4  and  C_5
REMARK    5  A    between atoms: C_5  and  C_6
REMARK    6  A    between atoms: C_5  and  C_7
REMARK    7  A    between atoms: C_5  and  C_8
REMARK    8  A    between atoms: C_8  and  N_9
REMARK    9  A    between atoms: N_9  and  S_10
REMARK   10  A    between atoms: S_10  and  C_13
REMARK                            x       y       z     vdW  Elec       q    Type
REMARK                         _______ _______ _______ _____ _____    ______ ____
ROOT
ATOM      1  S   UNL     1       2.782   6.589  18.596  0.00  0.00    +0.000 S 
ATOM      2  O   UNL     1       4.077   6.958  18.072  0.00  0.00    +0.000 OA
ATOM      3  O   UNL     1       1.822   5.822  17.826  0.00  0.00    +0.000 OA
ENDROOT
BRANCH   1   4
ATOM      4  C   UNL     1       1.949   8.071  19.119  0.00  0.00    +0.000 A 
ATOM      5  C   UNL     1       1.669   9.075  18.186  0.00  0.00    +0.000 A 
ATOM      6  C   UNL     1       0.976  10.216  18.590  0.00  0.00    +0.000 A 
ATOM      7  C   UNL     1       0.572  10.353  19.921  0.00  0.00    +0.000 A 
ATOM      8 CL   UNL     1      -0.330  11.769  20.344  0.00  0.00    +0.000 Cl
ATOM      9  C   UNL     1       0.883   9.360  20.860  0.00  0.00    +0.000 A 
ATOM     10 CL   UNL     1       0.406   9.461  22.515  0.00  0.00    +0.000 Cl
ATOM     11  C   UNL     1       1.584   8.221  20.460  0.00  0.00    +0.000 A 
ENDBRANCH   1   4
BRANCH   1  12
ATOM     12  N   UNL     1       2.982   5.788  20.074  0.00  0.00    +0.000 NA
ATOM     13  H   UNL     1       3.844   5.246  20.042  0.00  0.00    +0.000 HD
BRANCH  12  14
ATOM     14  C   UNL     1       1.811   5.057  20.619  0.00  0.00    +0.000 C 
BRANCH  14  15
ATOM     15  C   UNL     1       1.954   3.504  20.480  0.00  0.00    +0.000 C 
ATOM     16  C   UNL     1       0.851   2.958  19.556  0.00  0.00    +0.000 C 
ATOM     17  C   UNL     1       1.840   2.867  21.879  0.00  0.00    +0.000 C 
BRANCH  15  18
ATOM     18  C   UNL     1       3.365   3.237  19.829  0.00  0.00    +0.000 C 
BRANCH  18  20
ATOM     19  C   UNL     1       4.563   3.517  17.752  0.00  0.00    +0.000 C 
ATOM     20  N   UNL     1       3.470   2.793  18.419  0.00  0.00    +0.000 NA
ATOM     21  C   UNL     1       3.697   1.360  18.249  0.00  0.00    +0.000 C 
ENDBRANCH  18  20
ENDBRANCH  15  18
ENDBRANCH  14  15
ENDBRANCH  12  14
ENDBRANCH   1  12
TORSDOF 6
ENDMDL
MODEL 9
REMARK VINA RESULT:      -5.9      4.000      6.272
REMARK  Name = 
REMARK  10 active torsions:
REMARK  status: ('A' for Active; 'I' for Inactive)
REMARK    1  A    between atoms: C_1  and  N_2
REMARK    2  A    between atoms: N_2  and  C_3
REMARK    3  A    between atoms: N_2  and  C_4
REMARK    4  A    between atoms: C_4  and  C_5
REMARK    5  A    between atoms: C_5  and  C_6
REMARK    6  A    between atoms: C_5  and  C_7
REMARK    7  A    between atoms: C_5  and  C_8
REMARK    8  A    between atoms: C_8  and  N_9
REMARK    9  A    between atoms: N_9  and  S_10
REMARK   10  A    between atoms: S_10  and  C_13
REMARK                            x       y       z     vdW  Elec       q    Type
REMARK                         _______ _______ _______ _____ _____    ______ ____
ROOT
ATOM      1  S   UNL     1       6.890   4.916  17.818  0.00  0.00    +0.000 S 
ATOM      2  O   UNL     1       6.557   6.309  18.007  0.00  0.00    +0.000 OA
ATOM      3  O   UNL     1       8.164   4.359  18.233  0.00  0.00    +0.000 OA
ENDROOT
BRANCH   1   4
ATOM      4  C   UNL     1       6.702   4.526  16.093  0.00  0.00    +0.000 A 
ATOM      5  C   UNL     1       5.743   3.589  15.694  0.00  0.00    +0.000 A 
ATOM      6  C   UNL     1       5.566   3.319  14.338  0.00  0.00    +0.000 A 
ATOM      7  C   UNL     1       6.350   3.978  13.386  0.00  0.00    +0.000 A 
ATOM      8 CL   UNL     1       6.044   3.635  11.718  0.00  0.00    +0.000 Cl
ATOM      9  C   UNL     1       7.333   4.892  13.791  0.00  0.00    +0.000 A 
ATOM     10 CL   UNL     1       8.327   5.747  12.670  0.00  0.00    +0.000 Cl
ATOM     11  C   UNL     1       7.517   5.158  15.149  0.00  0.00    +0.000 A 
ENDBRANCH   1   4
BRANCH   1  12
ATOM     12  N   UNL     1       5.681   3.950  18.506  0.00  0.00    +0.000 NA
ATOM     13  H   UNL     1       5.817   2.987  18.204  0.00  0.00    +0.000 HD
BRANCH  12  14
ATOM     14  C   UNL     1       4.282   4.437  18.412  0.00  0.00    +0.000 C 
BRANCH  14  15
ATOM     15  C   UNL     1       3.235   3.278  18.519  0.00  0.00    +0.000 C 
ATOM     16  C   UNL     1       3.834   1.979  17.952  0.00  0.00    +0.000 C 
ATOM     17  C   UNL     1       1.975   3.673  17.725  0.00  0.00    +0.000 C 
BRANCH  15  18
ATOM     18  C   UNL     1       2.925   3.089  20.053  0.00  0.00    +0.000 C 
BRANCH  18  20
ATOM     19  C   UNL     1       1.295   2.787  21.809  0.00  0.00    +0.000 C 
ATOM     20  N   UNL     1       1.656   3.591  20.632  0.00  0.00    +0.000 NA
ATOM     21  C   UNL     1       1.684   4.997  21.027  0.00  0.00    +0.000 C 
ENDBRANCH  18  20
ENDBRANCH  15  18
ENDBRANCH  14  15
ENDBRANCH  12  14
ENDBRANCH   1  12
TORSDOF 6
ENDMDL
