MODEL 1
REMARK VINA RESULT:      -6.6      0.000      0.000
REMARK  Name = 
REMARK  8 active torsions:
REMARK  status: ('A' for Active; 'I' for Inactive)
REMARK    1  A    between atoms: C_1  and  N_2
REMARK    2  A    between atoms: N_2  and  C_3
REMARK    3  A    between atoms: N_2  and  C_4
REMARK    4  A    between atoms: C_4  and  C_5
REMARK    5  A    between atoms: C_4  and  C_17
REMARK    6  A    between atoms: C_5  and  N_6
REMARK    7  A    between atoms: C_7  and  C_9
REMARK    8  A    between atoms: C_13  and  C_14
REMARK                            x       y       z     vdW  Elec       q    Type
REMARK                         _______ _______ _______ _____ _____    ______ ____
ROOT
ATOM      1  N   UNL     1       3.565   6.165  19.582  0.00  0.00    +0.000 N 
ATOM      2  C   UNL     1       3.206   7.034  18.576  0.00  0.00    +0.000 C 
ATOM      3  O   UNL     1       3.684   6.997  17.448  0.00  0.00    +0.000 OA
ATOM      4  H   UNL     1       3.080   6.151  20.471  0.00  0.00    +0.000 HD
ENDROOT
BRANCH   2   5
ATOM      5  C   UNL     1       2.162   8.048  18.908  0.00  0.00    +0.000 A 
ATOM      6  C   UNL     1       1.598   8.870  17.924  0.00  0.00    +0.000 A 
ATOM      7  C   UNL     1       0.615   9.801  18.267  0.00  0.00    +0.000 A 
ATOM      8  C   UNL     1       0.187   9.914  19.591  0.00  0.00    +0.000 A 
ATOM      9  C   UNL     1       0.734   9.084  20.577  0.00  0.00    +0.000 A 
ATOM     10  C   UNL     1       1.714   8.147  20.235  0.00  0.00    +0.000 A 
BRANCH   9  11
ATOM     11  C   UNL     1       0.287   9.205  21.936  0.00  0.00    +0.000 C 
ATOM     12  N   UNL     1      -0.088   9.292  23.031  0.00  0.00    +0.000 NA
ENDBRANCH   9  11
ENDBRANCH   2   5
BRANCH   1  13
ATOM     13  C   UNL     1       4.616   5.172  19.408  0.00  0.00    +0.000 C 
BRANCH  13  14
ATOM     14  C   UNL     1       4.103   3.718  19.135  0.00  0.00    +0.000 C 
BRANCH  14  15
ATOM     15  C   UNL     1       2.909   3.440  20.030  0.00  0.00    +0.000 A 
ATOM     16  C   UNL     1       2.761   2.739  21.215  0.00  0.00    +0.000 A 
ATOM     17  C   UNL     1       1.394   2.829  21.568  0.00  0.00    +0.000 A 
ATOM     18  C   UNL     1       0.794   3.584  20.589  0.00  0.00    +0.000 A 
ATOM     19  O   UNL     1       1.698   3.956  19.647  0.00  0.00    +0.000 OA
ENDBRANCH  14  15
BRANCH  14  21
ATOM     20  C   UNL     1       4.964   3.771  16.840  0.00  0.00    +0.000 C 
ATOM     21  N   UNL     1       3.818   3.426  17.692  0.00  0.00    +0.000 NA
ATOM     22  C   UNL     1       3.502   2.004  17.479  0.00  0.00    +0.000 C 
ENDBRANCH  14  21
ENDBRANCH  13  14
ENDBRANCH   1  13
TORSDOF 6
ENDMDL
MODEL 2
REMARK VINA RESULT:      -6.5      1.830      2.496
REMARK  Name = 
REMARK  8 active torsions:
REMARK  status: ('A' for Active; 'I' for Inactive)
REMARK    1  A    between atoms: C_1  and  N_2
REMARK    2  A    between atoms: N_2  and  C_3
REMARK    3  A    between atoms: N_2  and  C_4
REMARK    4  A    between atoms: C_4  and  C_5
REMARK    5  A    between atoms: C_4  and  C_17
REMARK    6  A    between atoms: C_5  and  N_6
REMARK    7  A    between atoms: C_7  and  C_9
REMARK    8  A    between atoms: C_13  and  C_14
REMARK                            x       y       z     vdW  Elec       q    Type
REMARK                         _______ _______ _______ _____ _____    ______ ____
ROOT
ATOM      1  N   UNL     1       3.997   6.879  17.942  0.00  0.00    +0.000 N 
ATOM      2  C   UNL     1       2.744   6.731  18.494  0.00  0.00    +0.000 C 
ATOM      3  O   UNL     1       2.198   5.644  18.651  0.00  0.00    +0.000 OA
ATOM      4  H   UNL     1       4.466   7.776  17.919  0.00  0.00    +0.000 HD
ENDROOT
BRANCH   2   5
ATOM      5  C   UNL     1       2.053   7.979  18.929  0.00  0.00    +0.000 A 
ATOM      6  C   UNL     1       1.697   8.979  18.014  0.00  0.00    +0.000 A 
ATOM      7  C   UNL     1       1.042  10.131  18.453  0.00  0.00    +0.000 A 
ATOM      8  C   UNL     1       0.735  10.291  19.805  0.00  0.00    +0.000 A 
ATOM      9  C   UNL     1       1.072   9.290  20.724  0.00  0.00    +0.000 A 
ATOM     10  C   UNL     1       1.723   8.132  20.285  0.00  0.00    +0.000 A 
BRANCH   9  11
ATOM     11  C   UNL     1       0.750   9.461  22.112  0.00  0.00    +0.000 C 
ATOM     12  N   UNL     1       0.501   9.587  23.238  0.00  0.00    +0.000 NA
ENDBRANCH   9  11
ENDBRANCH   2   5
BRANCH   1  13
ATOM     13  C   UNL     1       4.750   5.747  17.419  0.00  0.00    +0.000 C 
BRANCH  13  14
ATOM     14  C   UNL     1       5.463   4.876  18.508  0.00  0.00    +0.000 C 
BRANCH  14  15
ATOM     15  C   UNL     1       4.730   3.554  18.641  0.00  0.00    +0.000 A 
ATOM     16  C   UNL     1       3.896   2.849  17.791  0.00  0.00    +0.000 A 
ATOM     17  C   UNL     1       3.513   1.675  18.484  0.00  0.00    +0.000 A 
ATOM     18  C   UNL     1       4.142   1.729  19.705  0.00  0.00    +0.000 A 
ATOM     19  O   UNL     1       4.877   2.864  19.817  0.00  0.00    +0.000 OA
ENDBRANCH  14  15
BRANCH  14  21
ATOM     20  C   UNL     1       7.246   4.542  16.858  0.00  0.00    +0.000 C 
ATOM     21  N   UNL     1       6.935   4.696  18.285  0.00  0.00    +0.000 NA
ATOM     22  C   UNL     1       7.705   5.839  18.800  0.00  0.00    +0.000 C 
ENDBRANCH  14  21
ENDBRANCH  13  14
ENDBRANCH   1  13
TORSDOF 6
ENDMDL
MODEL 3
REMARK VINA RESULT:      -6.4      4.113      6.335
REMARK  Name = 
REMARK  8 active torsions:
REMARK  status: ('A' for Active; 'I' for Inactive)
REMARK    1  A    between atoms: C_1  and  N_2
REMARK    2  A    between atoms: N_2  and  C_3
REMARK    3  A    between atoms: N_2  and  C_4
REMARK    4  A    between atoms: C_4  and  C_5
REMARK    5  A    between atoms: C_4  and  C_17
REMARK    6  A    between atoms: C_5  and  N_6
REMARK    7  A    between atoms: C_7  and  C_9
REMARK    8  A    between atoms: C_13  and  C_14
REMARK                            x       y       z     vdW  Elec       q    Type
REMARK                         _______ _______ _______ _____ _____    ______ ____
ROOT
ATOM      1  N   UNL     1       5.656   4.053  17.255  0.00  0.00    +0.000 N 
ATOM      2  C   UNL     1       5.164   4.111  18.541  0.00  0.00    +0.000 C 
ATOM      3  O   UNL     1       5.844   4.427  19.511  0.00  0.00    +0.000 OA
ATOM      4  H   UNL     1       5.050   3.891  16.461  0.00  0.00    +0.000 HD
ENDROOT
BRANCH   2   5
ATOM      5  C   UNL     1       3.718   3.788  18.719  0.00  0.00    +0.000 A 
ATOM      6  C   UNL     1       2.813   3.857  17.652  0.00  0.00    +0.000 A 
ATOM      7  C   UNL     1       1.469   3.537  17.850  0.00  0.00    +0.000 A 
ATOM      8  C   UNL     1       1.020   3.143  19.112  0.00  0.00    +0.000 A 
ATOM      9  C   UNL     1       1.921   3.054  20.180  0.00  0.00    +0.000 A 
ATOM     10  C   UNL     1       3.270   3.369  19.982  0.00  0.00    +0.000 A 
BRANCH   9  11
ATOM     11  C   UNL     1       1.453   2.645  21.473  0.00  0.00    +0.000 C 
ATOM     12  N   UNL     1       1.063   2.325  22.519  0.00  0.00    +0.000 NA
ENDBRANCH   9  11
ENDBRANCH   2   5
BRANCH   1  13
ATOM     13  C   UNL     1       7.062   4.283  16.955  0.00  0.00    +0.000 C 
BRANCH  13  14
ATOM     14  C   UNL     1       7.327   5.376  15.865  0.00  0.00    +0.000 C 
BRANCH  14  15
ATOM     15  C   UNL     1       7.008   4.798  14.499  0.00  0.00    +0.000 A 
ATOM     16  C   UNL     1       6.153   3.793  14.075  0.00  0.00    +0.000 A 
ATOM     17  C   UNL     1       6.299   3.706  12.670  0.00  0.00    +0.000 A 
ATOM     18  C   UNL     1       7.221   4.663  12.320  0.00  0.00    +0.000 A 
ATOM     19  O   UNL     1       7.664   5.328  13.418  0.00  0.00    +0.000 OA
ENDBRANCH  14  15
BRANCH  14  21
ATOM     20  C   UNL     1       5.171   6.538  15.971  0.00  0.00    +0.000 C 
ATOM     21  N   UNL     1       6.626   6.678  16.114  0.00  0.00    +0.000 NA
ATOM     22  C   UNL     1       6.906   7.193  17.464  0.00  0.00    +0.000 C 
ENDBRANCH  14  21
ENDBRANCH  13  14
ENDBRANCH   1  13
TORSDOF 6
ENDMDL
MODEL 4
REMARK VINA RESULT:      -6.4      1.266      1.815
REMARK  Name = 
REMARK  8 active torsions:
REMARK  status: ('A' for Active; 'I' for Inactive)
REMARK    1  A    between atoms: C_1  and  N_2
REMARK    2  A    between atoms: N_2  and  C_3
REMARK    3  A    between atoms: N_2  and  C_4
REMARK    4  A    between atoms: C_4  and  C_5
REMARK    5  A    between atoms: C_4  and  C_17
REMARK    6  A    between atoms: C_5  and  N_6
REMARK    7  A    between atoms: C_7  and  C_9
REMARK    8  A    between atoms: C_13  and  C_14
REMARK                            x       y       z     vdW  Elec       q    Type
REMARK                         _______ _______ _______ _____ _____    ______ ____
ROOT
ATOM      1  N   UNL     1       2.512   7.134  18.859  0.00  0.00    +0.000 N 
ATOM      2  C   UNL     1       2.177   8.335  18.272  0.00  0.00    +0.000 C 
ATOM      3  O   UNL     1       2.650   8.724  17.210  0.00  0.00    +0.000 OA
ATOM      4  H   UNL     1       2.030   6.791  19.680  0.00  0.00    +0.000 HD
ENDROOT
BRANCH   2   5
ATOM      5  C   UNL     1       1.166   9.169  18.986  0.00  0.00    +0.000 A 
ATOM      6  C   UNL     1       0.265   9.985  18.291  0.00  0.00    +0.000 A 
ATOM      7  C   UNL     1      -0.675  10.746  18.990  0.00  0.00    +0.000 A 
ATOM      8  C   UNL     1      -0.724  10.693  20.384  0.00  0.00    +0.000 A 
ATOM      9  C   UNL     1       0.162   9.866  21.085  0.00  0.00    +0.000 A 
ATOM     10  C   UNL     1       1.101   9.100  20.387  0.00  0.00    +0.000 A 
BRANCH   9  11
ATOM     11  C   UNL     1       0.103   9.815  22.518  0.00  0.00    +0.000 C 
ATOM     12  N   UNL     1       0.072   9.768  23.677  0.00  0.00    +0.000 NA
ENDBRANCH   9  11
ENDBRANCH   2   5
BRANCH   1  13
ATOM     13  C   UNL     1       3.530   6.258  18.298  0.00  0.00    +0.000 C 
BRANCH  13  14
ATOM     14  C   UNL     1       4.240   5.328  19.339  0.00  0.00    +0.000 C 
BRANCH  14  15
ATOM     15  C   UNL     1       3.231   4.334  19.882  0.00  0.00    +0.000 A 
ATOM     16  C   UNL     1       3.080   2.966  19.734  0.00  0.00    +0.000 A 
ATOM     17  C   UNL     1       1.937   2.602  20.484  0.00  0.00    +0.000 A 
ATOM     18  C   UNL     1       1.465   3.762  21.051  0.00  0.00    +0.000 A 
ATOM     19  O   UNL     1       2.236   4.820  20.691  0.00  0.00    +0.000 OA
ENDBRANCH  14  15
BRANCH  14  21
ATOM     20  C   UNL     1       5.437   4.502  17.365  0.00  0.00    +0.000 C 
ATOM     21  N   UNL     1       5.481   4.662  18.824  0.00  0.00    +0.000 NA
ATOM     22  C   UNL     1       6.689   5.430  19.163  0.00  0.00    +0.000 C 
ENDBRANCH  14  21
ENDBRANCH  13  14
ENDBRANCH   1  13
TORSDOF 6
ENDMDL
MODEL 5
REMARK VINA RESULT:      -6.4      1.499      3.310
REMARK  Name = 
REMARK  8 active torsions:
REMARK  status: ('A' for Active; 'I' for Inactive)
REMARK    1  A    between atoms: C_1  and  N_2
REMARK    2  A    between atoms: N_2  and  C_3
REMARK    3  A    between atoms: N_2  and  C_4
REMARK    4  A    between atoms: C_4  and  C_5
REMARK    5  A    between atoms: C_4  and  C_17
REMARK    6  A    between atoms: C_5  and  N_6
REMARK    7  A    between atoms: C_7  and  C_9
REMARK    8  A    between atoms: C_13  and  C_14
REMARK                            x       y       z     vdW  Elec       q    Type
REMARK                         _______ _______ _______ _____ _____    ______ ____
ROOT
ATOM      1  N   UNL     1       3.796   6.217  19.505  0.00  0.00    +0.000 N 
ATOM      2  C   UNL     1       2.455   6.310  19.806  0.00  0.00    +0.000 C 
ATOM      3  O   UNL     1       1.745   5.338  20.039  0.00  0.00    +0.000 OA
ATOM      4  H   UNL     1       4.380   7.040  19.419  0.00  0.00    +0.000 HD
ENDROOT
BRANCH   2   5
ATOM      5  C   UNL     1       1.875   7.684  19.859  0.00  0.00    +0.000 A 
ATOM      6  C   UNL     1       1.850   8.515  18.732  0.00  0.00    +0.000 A 
ATOM      7  C   UNL     1       1.291   9.792  18.813  0.00  0.00    +0.000 A 
ATOM      8  C   UNL     1       0.750  10.245  20.018  0.00  0.00    +0.000 A 
ATOM      9  C   UNL     1       0.755   9.414  21.145  0.00  0.00    +0.000 A 
ATOM     10  C   UNL     1       1.310   8.133  21.064  0.00  0.00    +0.000 A 
BRANCH   9  11
ATOM     11  C   UNL     1       0.194   9.886  22.379  0.00  0.00    +0.000 C 
ATOM     12  N   UNL     1      -0.271  10.276  23.368  0.00  0.00    +0.000 NA
ENDBRANCH   9  11
ENDBRANCH   2   5
BRANCH   1  13
ATOM     13  C   UNL     1       4.468   4.934  19.359  0.00  0.00    +0.000 C 
BRANCH  13  14
ATOM     14  C   UNL     1       3.977   4.072  18.147  0.00  0.00    +0.000 C 
BRANCH  14  15
ATOM     15  C   UNL     1       4.736   4.494  16.903  0.00  0.00    +0.000 A 
ATOM     16  C   UNL     1       5.511   3.799  15.989  0.00  0.00    +0.000 A 
ATOM     17  C   UNL     1       5.962   4.747  15.040  0.00  0.00    +0.000 A 
ATOM     18  C   UNL     1       5.432   5.956  15.423  0.00  0.00    +0.000 A 
ATOM     19  O   UNL     1       4.692   5.819  16.553  0.00  0.00    +0.000 OA
ENDBRANCH  14  15
BRANCH  14  21
ATOM     20  C   UNL     1       4.277   2.282  19.796  0.00  0.00    +0.000 C 
ATOM     21  N   UNL     1       4.036   2.592  18.380  0.00  0.00    +0.000 NA
ATOM     22  C   UNL     1       2.786   1.930  17.973  0.00  0.00    +0.000 C 
ENDBRANCH  14  21
ENDBRANCH  13  14
ENDBRANCH   1  13
TORSDOF 6
ENDMDL
MODEL 6
REMARK VINA RESULT:      -6.3      2.476      4.189
REMARK  Name = 
REMARK  8 active torsions:
REMARK  status: ('A' for Active; 'I' for Inactive)
REMARK    1  A    between atoms: C_1  and  N_2
REMARK    2  A    between atoms: N_2  and  C_3
REMARK    3  A    between atoms: N_2  and  C_4
REMARK    4  A    between atoms: C_4  and  C_5
REMARK    5  A    between atoms: C_4  and  C_17
REMARK    6  A    between atoms: C_5  and  N_6
REMARK    7  A    between atoms: C_7  and  C_9
REMARK    8  A    between atoms: C_13  and  C_14
REMARK                            x       y       z     vdW  Elec       q    Type
REMARK                         _______ _______ _______ _____ _____    ______ ____
ROOT
ATOM      1  N   UNL     1       3.802   6.444  17.444  0.00  0.00    +0.000 N 
ATOM      2  C   UNL     1       3.227   6.527  18.693  0.00  0.00    +0.000 C 
ATOM      3  O   UNL     1       3.438   5.717  19.589  0.00  0.00    +0.000 OA
ATOM      4  H   UNL     1       3.693   7.181  16.758  0.00  0.00    +0.000 HD
ENDROOT
BRANCH   2   5
ATOM      5  C   UNL     1       2.324   7.689  18.938  0.00  0.00    +0.000 A 
ATOM      6  C   UNL     1       1.849   8.484  17.886  0.00  0.00    +0.000 A 
ATOM      7  C   UNL     1       0.996   9.558  18.148  0.00  0.00    +0.000 A 
ATOM      8  C   UNL     1       0.609   9.842  19.459  0.00  0.00    +0.000 A 
ATOM      9  C   UNL     1       1.065   9.043  20.514  0.00  0.00    +0.000 A 
ATOM     10  C   UNL     1       1.915   7.963  20.252  0.00  0.00    +0.000 A 
BRANCH   9  11
ATOM     11  C   UNL     1       0.660   9.340  21.858  0.00  0.00    +0.000 C 
ATOM     12  N   UNL     1       0.320   9.588  22.939  0.00  0.00    +0.000 NA
ENDBRANCH   9  11
ENDBRANCH   2   5
BRANCH   1  13
ATOM     13  C   UNL     1       4.651   5.326  17.057  0.00  0.00    +0.000 C 
BRANCH  13  14
ATOM     14  C   UNL     1       5.928   5.725  16.243  0.00  0.00    +0.000 C 
BRANCH  14  15
ATOM     15  C   UNL     1       6.863   6.509  17.146  0.00  0.00    +0.000 A 
ATOM     16  C   UNL     1       7.568   6.177  18.291  0.00  0.00    +0.000 A 
ATOM     17  C   UNL     1       8.267   7.342  18.685  0.00  0.00    +0.000 A 
ATOM     18  C   UNL     1       7.958   8.308  17.758  0.00  0.00    +0.000 A 
ATOM     19  O   UNL     1       7.104   7.820  16.823  0.00  0.00    +0.000 OA
ENDBRANCH  14  15
BRANCH  14  21
ATOM     20  C   UNL     1       5.735   3.399  15.492  0.00  0.00    +0.000 C 
ATOM     21  N   UNL     1       6.613   4.575  15.569  0.00  0.00    +0.000 NA
ATOM     22  C   UNL     1       7.035   4.921  14.202  0.00  0.00    +0.000 C 
ENDBRANCH  14  21
ENDBRANCH  13  14
ENDBRANCH   1  13
TORSDOF 6
ENDMDL
MODEL 7
REMARK VINA RESULT:      -6.3      2.986      5.176
REMARK  Name = 
REMARK  8 active torsions:
REMARK  status: ('A' for Active; 'I' for Inactive)
REMARK    1  A    between atoms: C_1  and  N_2
REMARK    2  A    between atoms: N_2  and  C_3
REMARK    3  A    between atoms: N_2  and  C_4
REMARK    4  A    between atoms: C_4  and  C_5
REMARK    5  A    between atoms: C_4  and  C_17
REMARK    6  A    between atoms: C_5  and  N_6
REMARK    7  A    between atoms: C_7  and  C_9
REMARK    8  A    between atoms: C_13  and  C_14
REMARK                            x       y       z     vdW  Elec       q    Type
REMARK                         _______ _______ _______ _____ _____    ______ ____
ROOT
ATOM      1  N   UNL     1       4.576   6.099  16.597  0.00  0.00    +0.000 N 
ATOM      2  C   UNL     1       3.885   5.057  17.175  0.00  0.00    +0.000 C 
ATOM      3  O   UNL     1       3.826   3.933  16.688  0.00  0.00    +0.000 OA
ATOM      4  H   UNL     1       4.694   6.986  17.070  0.00  0.00    +0.000 HD
ENDROOT
BRANCH   2   5
ATOM      5  C   UNL     1       3.201   5.344  18.469  0.00  0.00    +0.000 A 
ATOM      6  C   UNL     1       2.832   6.646  18.832  0.00  0.00    +0.000 A 
ATOM      7  C   UNL     1       2.184   6.879  20.047  0.00  0.00    +0.000 A 
ATOM      8  C   UNL     1       1.897   5.816  20.904  0.00  0.00    +0.000 A 
ATOM      9  C   UNL     1       2.247   4.509  20.542  0.00  0.00    +0.000 A 
ATOM     10  C   UNL     1       2.892   4.273  19.323  0.00  0.00    +0.000 A 
BRANCH   9  11
ATOM     11  C   UNL     1       1.946   3.421  21.427  0.00  0.00    +0.000 C 
ATOM     12  N   UNL     1       1.718   2.535  22.141  0.00  0.00    +0.000 NA
ENDBRANCH   9  11
ENDBRANCH   2   5
BRANCH   1  13
ATOM     13  C   UNL     1       5.232   5.969  15.303  0.00  0.00    +0.000 C 
BRANCH  13  14
ATOM     14  C   UNL     1       6.791   5.840  15.371  0.00  0.00    +0.000 C 
BRANCH  14  15
ATOM     15  C   UNL     1       7.215   5.729  16.824  0.00  0.00    +0.000 A 
ATOM     16  C   UNL     1       7.459   4.649  17.656  0.00  0.00    +0.000 A 
ATOM     17  C   UNL     1       7.819   5.184  18.915  0.00  0.00    +0.000 A 
ATOM     18  C   UNL     1       7.783   6.551  18.776  0.00  0.00    +0.000 A 
ATOM     19  O   UNL     1       7.413   6.896  17.516  0.00  0.00    +0.000 OA
ENDBRANCH  14  15
BRANCH  14  21
ATOM     20  C   UNL     1       6.317   3.771  14.143  0.00  0.00    +0.000 C 
ATOM     21  N   UNL     1       7.355   4.739  14.524  0.00  0.00    +0.000 NA
ATOM     22  C   UNL     1       7.967   5.262  13.292  0.00  0.00    +0.000 C 
ENDBRANCH  14  21
ENDBRANCH  13  14
ENDBRANCH   1  13
TORSDOF 6
ENDMDL
MODEL 8
REMARK VINA RESULT:      -6.3      3.147      6.786
REMARK  Name = 
REMARK  8 active torsions:
REMARK  status: ('A' for Active; 'I' for Inactive)
REMARK    1  A    between atoms: C_1  and  N_2
REMARK    2  A    between atoms: N_2  and  C_3
REMARK    3  A    between atoms: N_2  and  C_4
REMARK    4  A    between atoms: C_4  and  C_5
REMARK    5  A    between atoms: C_4  and  C_17
REMARK    6  A    between atoms: C_5  and  N_6
REMARK    7  A    between atoms: C_7  and  C_9
REMARK    8  A    between atoms: C_13  and  C_14
REMARK                            x       y       z     vdW  Elec       q    Type
REMARK                         _______ _______ _______ _____ _____    ______ ____
ROOT
ATOM      1  N   UNL     1       6.090   4.267  17.167  0.00  0.00    +0.000 N 
ATOM      2  C   UNL     1       5.680   5.135  16.179  0.00  0.00    +0.000 C 
ATOM      3  O   UNL     1       5.014   6.141  16.397  0.00  0.00    +0.000 OA
ATOM      4  H   UNL     1       6.725   3.502  16.974  0.00  0.00    +0.000 HD
ENDROOT
BRANCH   2   5
ATOM      5  C   UNL     1       6.106   4.811  14.786  0.00  0.00    +0.000 A 
ATOM      6  C   UNL     1       7.399   5.097  14.329  0.00  0.00    +0.000 A 
ATOM      7  C   UNL     1       7.768   4.772  13.022  0.00  0.00    +0.000 A 
ATOM      8  C   UNL     1       6.853   4.157  12.166  0.00  0.00    +0.000 A 
ATOM      9  C   UNL     1       5.563   3.853  12.621  0.00  0.00    +0.000 A 
ATOM     10  C   UNL     1       5.193   4.173  13.931  0.00  0.00    +0.000 A 
BRANCH   9  11
ATOM     11  C   UNL     1       4.628   3.219  11.736  0.00  0.00    +0.000 C 
ATOM     12  N   UNL     1       3.865   2.699  11.034  0.00  0.00    +0.000 NA
ENDBRANCH   9  11
ENDBRANCH   2   5
BRANCH   1  13
ATOM     13  C   UNL     1       5.689   4.433  18.557  0.00  0.00    +0.000 C 
BRANCH  13  14
ATOM     14  C   UNL     1       4.429   3.604  18.979  0.00  0.00    +0.000 C 
BRANCH  14  15
ATOM     15  C   UNL     1       3.394   4.545  19.567  0.00  0.00    +0.000 A 
ATOM     16  C   UNL     1       2.348   4.360  20.457  0.00  0.00    +0.000 A 
ATOM     17  C   UNL     1       1.729   5.622  20.618  0.00  0.00    +0.000 A 
ATOM     18  C   UNL     1       2.434   6.499  19.829  0.00  0.00    +0.000 A 
ATOM     19  O   UNL     1       3.442   5.860  19.182  0.00  0.00    +0.000 OA
ENDBRANCH  14  15
BRANCH  14  21
ATOM     20  C   UNL     1       3.523   1.403  18.388  0.00  0.00    +0.000 C 
ATOM     21  N   UNL     1       3.867   2.742  17.889  0.00  0.00    +0.000 NA
ATOM     22  C   UNL     1       2.656   3.334  17.299  0.00  0.00    +0.000 C 
ENDBRANCH  14  21
ENDBRANCH  13  14
ENDBRANCH   1  13
TORSDOF 6
ENDMDL
MODEL 9
REMARK VINA RESULT:      -6.2      1.685      3.349
REMARK  Name = 
REMARK  8 active torsions:
REMARK  status: ('A' for Active; 'I' for Inactive)
REMARK    1  A    between atoms: C_1  and  N_2
REMARK    2  A    between atoms: N_2  and  C_3
REMARK    3  A    between atoms: N_2  and  C_4
REMARK    4  A    between atoms: C_4  and  C_5
REMARK    5  A    between atoms: C_4  and  C_17
REMARK    6  A    between atoms: C_5  and  N_6
REMARK    7  A    between atoms: C_7  and  C_9
REMARK    8  A    between atoms: C_13  and  C_14
REMARK                            x       y       z     vdW  Elec       q    Type
REMARK                         _______ _______ _______ _____ _____    ______ ____
ROOT
ATOM      1  N   UNL     1       2.933   6.561  19.283  0.00  0.00    +0.000 N 
ATOM      2  C   UNL     1       2.668   7.705  18.563  0.00  0.00    +0.000 C 
ATOM      3  O   UNL     1       3.237   7.991  17.514  0.00  0.00    +0.000 OA
ATOM      4  H   UNL     1       2.378   6.299  20.088  0.00  0.00    +0.000 HD
ENDROOT
BRANCH   2   5
ATOM      5  C   UNL     1       1.614   8.609  19.107  0.00  0.00    +0.000 A 
ATOM      6  C   UNL     1       0.783   9.359  18.264  0.00  0.00    +0.000 A 
ATOM      7  C   UNL     1      -0.201  10.188  18.806  0.00  0.00    +0.000 A 
ATOM      8  C   UNL     1      -0.366  10.270  20.190  0.00  0.00    +0.000 A 
ATOM      9  C   UNL     1       0.448   9.510  21.038  0.00  0.00    +0.000 A 
ATOM     10  C   UNL     1       1.432   8.675  20.497  0.00  0.00    +0.000 A 
BRANCH   9  11
ATOM     11  C   UNL     1       0.271   9.597  22.460  0.00  0.00    +0.000 C 
ATOM     12  N   UNL     1       0.144   9.668  23.611  0.00  0.00    +0.000 NA
ENDBRANCH   9  11
ENDBRANCH   2   5
BRANCH   1  13
ATOM     13  C   UNL     1       3.983   5.629  18.895  0.00  0.00    +0.000 C 
BRANCH  13  14
ATOM     14  C   UNL     1       3.587   4.638  17.749  0.00  0.00    +0.000 C 
BRANCH  14  15
ATOM     15  C   UNL     1       4.640   4.698  16.658  0.00  0.00    +0.000 A 
ATOM     16  C   UNL     1       5.165   5.739  15.911  0.00  0.00    +0.000 A 
ATOM     17  C   UNL     1       6.120   5.166  15.038  0.00  0.00    +0.000 A 
ATOM     18  C   UNL     1       6.129   3.819  15.309  0.00  0.00    +0.000 A 
ATOM     19  O   UNL     1       5.232   3.520  16.285  0.00  0.00    +0.000 OA
ENDBRANCH  14  15
BRANCH  14  21
ATOM     20  C   UNL     1       3.815   3.021  19.579  0.00  0.00    +0.000 C 
ATOM     21  N   UNL     1       3.320   3.237  18.212  0.00  0.00    +0.000 NA
ATOM     22  C   UNL     1       1.883   2.923  18.191  0.00  0.00    +0.000 C 
ENDBRANCH  14  21
ENDBRANCH  13  14
ENDBRANCH   1  13
TORSDOF 6
ENDMDL
