MODEL 1
REMARK VINA RESULT:      -8.6      0.000      0.000
REMARK  Name = 
REMARK  5 active torsions:
REMARK  status: ('A' for Active; 'I' for Inactive)
REMARK    1  A    between atoms: C_1  and  O_2
REMARK    2  A    between atoms: O_2  and  C_3
REMARK    3  A    between atoms: C_5  and  C_6
REMARK    4  A    between atoms: C_6  and  C_7
REMARK    5  A    between atoms: C_7  and  C_8
REMARK                            x       y       z     vdW  Elec       q    Type
REMARK                         _______ _______ _______ _____ _____    ______ ____
ROOT
ATOM      1  C   UNL     1       5.052   5.946  16.311  0.00  0.00    +0.000 C 
ENDROOT
BRANCH   1   2
ATOM      2  C   UNL     1       4.078   5.540  17.392  0.00  0.00    +0.000 A 
ATOM      3  C   UNL     1       3.833   6.385  18.479  0.00  0.00    +0.000 A 
ATOM      4  C   UNL     1       2.916   6.022  19.468  0.00  0.00    +0.000 A 
ATOM      5  C   UNL     1       2.220   4.806  19.389  0.00  0.00    +0.000 A 
ATOM      6  C   UNL     1       1.281   4.434  20.365  0.00  0.00    +0.000 A 
ATOM      7  C   UNL     1       0.593   3.223  20.267  0.00  0.00    +0.000 A 
ATOM      8  C   UNL     1       0.842   2.366  19.199  0.00  0.00    +0.000 A 
ATOM      9  C   UNL     1       1.774   2.721  18.222  0.00  0.00    +0.000 A 
ATOM     10  C   UNL     1       2.465   3.941  18.299  0.00  0.00    +0.000 A 
ATOM     11  C   UNL     1       3.390   4.320  17.312  0.00  0.00    +0.000 A 
ENDBRANCH   1   2
BRANCH   1  12
ATOM     12  C   UNL     1       6.194   4.934  16.148  0.00  0.00    +0.000 C 
BRANCH  12  15
ATOM     13  C   UNL     1       6.366   3.686  12.531  0.00  0.00    +0.000 A 
ATOM     14  C   UNL     1       5.954   3.812  13.905  0.00  0.00    +0.000 A 
ATOM     15  C   UNL     1       6.542   4.716  14.700  0.00  0.00    +0.000 A 
ATOM     16  O   UNL     1       7.560   5.569  14.206  0.00  0.00    +0.000 OA
ATOM     17  C   UNL     1       7.990   5.473  12.914  0.00  0.00    +0.000 A 
ATOM     18  O   UNL     1       8.883   6.183  12.463  0.00  0.00    +0.000 OA
ATOM     19  C   UNL     1       7.340   4.471  12.055  0.00  0.00    +0.000 A 
BRANCH  13  21
ATOM     20  C   UNL     1       4.367   3.067  11.376  0.00  0.00    +0.000 C 
ATOM     21  O   UNL     1       5.666   2.721  11.848  0.00  0.00    +0.000 OA
ENDBRANCH  13  21
ENDBRANCH  12  15
ENDBRANCH   1  12
TORSDOF 4
ENDMDL
MODEL 2
REMARK VINA RESULT:      -8.6      2.935      4.574
REMARK  Name = 
REMARK  5 active torsions:
REMARK  status: ('A' for Active; 'I' for Inactive)
REMARK    1  A    between atoms: C_1  and  O_2
REMARK    2  A    between atoms: O_2  and  C_3
REMARK    3  A    between atoms: C_5  and  C_6
REMARK    4  A    between atoms: C_6  and  C_7
REMARK    5  A    between atoms: C_7  and  C_8
REMARK                            x       y       z     vdW  Elec       q    Type
REMARK                         _______ _______ _______ _____ _____    ______ ____
ROOT
ATOM      1  C   UNL     1       5.201   4.415  15.703  0.00  0.00    +0.000 C 
ENDROOT
BRANCH   1   2
ATOM      2  C   UNL     1       4.264   4.505  16.883  0.00  0.00    +0.000 A 
ATOM      3  C   UNL     1       3.871   5.750  17.383  0.00  0.00    +0.000 A 
ATOM      4  C   UNL     1       2.986   5.835  18.462  0.00  0.00    +0.000 A 
ATOM      5  C   UNL     1       2.473   4.675  19.061  0.00  0.00    +0.000 A 
ATOM      6  C   UNL     1       1.569   4.743  20.134  0.00  0.00    +0.000 A 
ATOM      7  C   UNL     1       1.063   3.578  20.714  0.00  0.00    +0.000 A 
ATOM      8  C   UNL     1       1.461   2.333  20.237  0.00  0.00    +0.000 A 
ATOM      9  C   UNL     1       2.361   2.249  19.173  0.00  0.00    +0.000 A 
ATOM     10  C   UNL     1       2.869   3.411  18.569  0.00  0.00    +0.000 A 
ATOM     11  C   UNL     1       3.760   3.342  17.484  0.00  0.00    +0.000 A 
ENDBRANCH   1   2
BRANCH   1  12
ATOM     12  C   UNL     1       6.653   4.164  16.130  0.00  0.00    +0.000 C 
BRANCH  12  15
ATOM     13  C   UNL     1       7.775   7.431  17.784  0.00  0.00    +0.000 A 
ATOM     14  C   UNL     1       7.299   6.509  16.786  0.00  0.00    +0.000 A 
ATOM     15  C   UNL     1       7.141   5.214  17.091  0.00  0.00    +0.000 A 
ATOM     16  O   UNL     1       7.420   4.732  18.394  0.00  0.00    +0.000 OA
ATOM     17  C   UNL     1       7.887   5.569  19.366  0.00  0.00    +0.000 A 
ATOM     18  O   UNL     1       8.156   5.179  20.498  0.00  0.00    +0.000 OA
ATOM     19  C   UNL     1       8.063   6.988  19.014  0.00  0.00    +0.000 A 
BRANCH  13  21
ATOM     20  C   UNL     1       8.541   9.664  18.154  0.00  0.00    +0.000 C 
ATOM     21  O   UNL     1       7.879   8.719  17.319  0.00  0.00    +0.000 OA
ENDBRANCH  13  21
ENDBRANCH  12  15
ENDBRANCH   1  12
TORSDOF 4
ENDMDL
MODEL 3
REMARK VINA RESULT:      -8.4      0.623      1.600
REMARK  Name = 
REMARK  5 active torsions:
REMARK  status: ('A' for Active; 'I' for Inactive)
REMARK    1  A    between atoms: C_1  and  O_2
REMARK    2  A    between atoms: O_2  and  C_3
REMARK    3  A    between atoms: C_5  and  C_6
REMARK    4  A    between atoms: C_6  and  C_7
REMARK    5  A    between atoms: C_7  and  C_8
REMARK                            x       y       z     vdW  Elec       q    Type
REMARK                         _______ _______ _______ _____ _____    ______ ____
ROOT
ATOM      1  C   UNL     1       5.480   5.655  16.547  0.00  0.00    +0.000 C 
ENDROOT
BRANCH   1   2
ATOM      2  C   UNL     1       4.391   4.872  17.241  0.00  0.00    +0.000 A 
ATOM      3  C   UNL     1       4.089   3.568  16.836  0.00  0.00    +0.000 A 
ATOM      4  C   UNL     1       3.095   2.835  17.491  0.00  0.00    +0.000 A 
ATOM      5  C   UNL     1       2.387   3.389  18.567  0.00  0.00    +0.000 A 
ATOM      6  C   UNL     1       1.398   2.658  19.248  0.00  0.00    +0.000 A 
ATOM      7  C   UNL     1       0.707   3.224  20.321  0.00  0.00    +0.000 A 
ATOM      8  C   UNL     1       0.987   4.526  20.720  0.00  0.00    +0.000 A 
ATOM      9  C   UNL     1       1.965   5.266  20.053  0.00  0.00    +0.000 A 
ATOM     10  C   UNL     1       2.679   4.708  18.980  0.00  0.00    +0.000 A 
ATOM     11  C   UNL     1       3.680   5.434  18.311  0.00  0.00    +0.000 A 
ENDBRANCH   1   2
BRANCH   1  12
ATOM     12  C   UNL     1       6.691   4.780  16.194  0.00  0.00    +0.000 C 
BRANCH  12  15
ATOM     13  C   UNL     1       6.454   3.729  12.519  0.00  0.00    +0.000 A 
ATOM     14  C   UNL     1       6.207   3.772  13.936  0.00  0.00    +0.000 A 
ATOM     15  C   UNL     1       6.867   4.648  14.705  0.00  0.00    +0.000 A 
ATOM     16  O   UNL     1       7.801   5.554  14.142  0.00  0.00    +0.000 OA
ATOM     17  C   UNL     1       8.075   5.537  12.805  0.00  0.00    +0.000 A 
ATOM     18  O   UNL     1       8.892   6.295  12.291  0.00  0.00    +0.000 OA
ATOM     19  C   UNL     1       7.348   4.564  11.974  0.00  0.00    +0.000 A 
BRANCH  13  21
ATOM     20  C   UNL     1       4.378   3.154  11.483  0.00  0.00    +0.000 C 
ATOM     21  O   UNL     1       5.698   2.783  11.871  0.00  0.00    +0.000 OA
ENDBRANCH  13  21
ENDBRANCH  12  15
ENDBRANCH   1  12
TORSDOF 4
ENDMDL
MODEL 4
REMARK VINA RESULT:      -8.4      1.077      1.163
REMARK  Name = 
REMARK  5 active torsions:
REMARK  status: ('A' for Active; 'I' for Inactive)
REMARK    1  A    between atoms: C_1  and  O_2
REMARK    2  A    between atoms: O_2  and  C_3
REMARK    3  A    between atoms: C_5  and  C_6
REMARK    4  A    between atoms: C_6  and  C_7
REMARK    5  A    between atoms: C_7  and  C_8
REMARK                            x       y       z     vdW  Elec       q    Type
REMARK                         _______ _______ _______ _____ _____    ______ ____
ROOT
ATOM      1  C   UNL     1       5.552   5.522  16.756  0.00  0.00    +0.000 C 
ENDROOT
BRANCH   1   2
ATOM      2  C   UNL     1       4.438   5.249  17.739  0.00  0.00    +0.000 A 
ATOM      3  C   UNL     1       3.280   6.033  17.732  0.00  0.00    +0.000 A 
ATOM      4  C   UNL     1       2.239   5.769  18.626  0.00  0.00    +0.000 A 
ATOM      5  C   UNL     1       2.333   4.712  19.543  0.00  0.00    +0.000 A 
ATOM      6  C   UNL     1       1.288   4.421  20.436  0.00  0.00    +0.000 A 
ATOM      7  C   UNL     1       1.397   3.361  21.339  0.00  0.00    +0.000 A 
ATOM      8  C   UNL     1       2.552   2.586  21.366  0.00  0.00    +0.000 A 
ATOM      9  C   UNL     1       3.600   2.864  20.487  0.00  0.00    +0.000 A 
ATOM     10  C   UNL     1       3.502   3.918  19.564  0.00  0.00    +0.000 A 
ATOM     11  C   UNL     1       4.541   4.196  18.659  0.00  0.00    +0.000 A 
ENDBRANCH   1   2
BRANCH   1  12
ATOM     12  C   UNL     1       6.234   4.233  16.277  0.00  0.00    +0.000 C 
BRANCH  12  15
ATOM     13  C   UNL     1       6.367   3.699  12.487  0.00  0.00    +0.000 A 
ATOM     14  C   UNL     1       5.965   3.565  13.863  0.00  0.00    +0.000 A 
ATOM     15  C   UNL     1       6.570   4.292  14.812  0.00  0.00    +0.000 A 
ATOM     16  O   UNL     1       7.598   5.212  14.482  0.00  0.00    +0.000 OA
ATOM     17  C   UNL     1       8.019   5.359  13.192  0.00  0.00    +0.000 A 
ATOM     18  O   UNL     1       8.918   6.133  12.877  0.00  0.00    +0.000 OA
ATOM     19  C   UNL     1       7.350   4.549  12.162  0.00  0.00    +0.000 A 
BRANCH  13  21
ATOM     20  C   UNL     1       4.287   3.234  11.407  0.00  0.00    +0.000 C 
ATOM     21  O   UNL     1       5.650   2.892  11.638  0.00  0.00    +0.000 OA
ENDBRANCH  13  21
ENDBRANCH  12  15
ENDBRANCH   1  12
TORSDOF 4
ENDMDL
MODEL 5
REMARK VINA RESULT:      -8.2      2.932      4.793
REMARK  Name = 
REMARK  5 active torsions:
REMARK  status: ('A' for Active; 'I' for Inactive)
REMARK    1  A    between atoms: C_1  and  O_2
REMARK    2  A    between atoms: O_2  and  C_3
REMARK    3  A    between atoms: C_5  and  C_6
REMARK    4  A    between atoms: C_6  and  C_7
REMARK    5  A    between atoms: C_7  and  C_8
REMARK                            x       y       z     vdW  Elec       q    Type
REMARK                         _______ _______ _______ _____ _____    ______ ____
ROOT
ATOM      1  C   UNL     1       5.141   4.272  15.653  0.00  0.00    +0.000 C 
ENDROOT
BRANCH   1   2
ATOM      2  C   UNL     1       4.083   4.035  16.705  0.00  0.00    +0.000 A 
ATOM      3  C   UNL     1       3.358   2.840  16.721  0.00  0.00    +0.000 A 
ATOM      4  C   UNL     1       2.393   2.609  17.706  0.00  0.00    +0.000 A 
ATOM      5  C   UNL     1       2.138   3.568  18.698  0.00  0.00    +0.000 A 
ATOM      6  C   UNL     1       1.186   3.344  19.706  0.00  0.00    +0.000 A 
ATOM      7  C   UNL     1       0.948   4.307  20.689  0.00  0.00    +0.000 A 
ATOM      8  C   UNL     1       1.652   5.507  20.671  0.00  0.00    +0.000 A 
ATOM      9  C   UNL     1       2.600   5.745  19.675  0.00  0.00    +0.000 A 
ATOM     10  C   UNL     1       2.860   4.782  18.686  0.00  0.00    +0.000 A 
ATOM     11  C   UNL     1       3.826   5.000  17.689  0.00  0.00    +0.000 A 
ENDBRANCH   1   2
BRANCH   1  12
ATOM     12  C   UNL     1       6.555   3.980  16.173  0.00  0.00    +0.000 C 
BRANCH  12  15
ATOM     13  C   UNL     1       7.677   7.311  17.695  0.00  0.00    +0.000 A 
ATOM     14  C   UNL     1       7.196   6.350  16.736  0.00  0.00    +0.000 A 
ATOM     15  C   UNL     1       7.047   5.067  17.090  0.00  0.00    +0.000 A 
ATOM     16  O   UNL     1       7.342   4.635  18.408  0.00  0.00    +0.000 OA
ATOM     17  C   UNL     1       7.814   5.510  19.343  0.00  0.00    +0.000 A 
ATOM     18  O   UNL     1       8.096   5.163  20.486  0.00  0.00    +0.000 OA
ATOM     19  C   UNL     1       7.979   6.915  18.938  0.00  0.00    +0.000 A 
BRANCH  13  21
ATOM     20  C   UNL     1       8.415   9.565  17.985  0.00  0.00    +0.000 C 
ATOM     21  O   UNL     1       7.770   8.581  17.182  0.00  0.00    +0.000 OA
ENDBRANCH  13  21
ENDBRANCH  12  15
ENDBRANCH   1  12
TORSDOF 4
ENDMDL
MODEL 6
REMARK VINA RESULT:      -8.1      6.485      8.960
REMARK  Name = 
REMARK  5 active torsions:
REMARK  status: ('A' for Active; 'I' for Inactive)
REMARK    1  A    between atoms: C_1  and  O_2
REMARK    2  A    between atoms: O_2  and  C_3
REMARK    3  A    between atoms: C_5  and  C_6
REMARK    4  A    between atoms: C_6  and  C_7
REMARK    5  A    between atoms: C_7  and  C_8
REMARK                            x       y       z     vdW  Elec       q    Type
REMARK                         _______ _______ _______ _____ _____    ______ ____
ROOT
ATOM      1  C   UNL     1       8.149   9.021  17.982  0.00  0.00    +0.000 C 
ENDROOT
BRANCH   1   2
ATOM      2  C   UNL     1       9.024  10.136  18.504  0.00  0.00    +0.000 A 
ATOM      3  C   UNL     1       9.177  10.330  19.880  0.00  0.00    +0.000 A 
ATOM      4  C   UNL     1      10.004  11.348  20.365  0.00  0.00    +0.000 A 
ATOM      5  C   UNL     1      10.698  12.189  19.483  0.00  0.00    +0.000 A 
ATOM      6  C   UNL     1      11.547  13.205  19.954  0.00  0.00    +0.000 A 
ATOM      7  C   UNL     1      12.234  14.029  19.061  0.00  0.00    +0.000 A 
ATOM      8  C   UNL     1      12.075  13.856  17.690  0.00  0.00    +0.000 A 
ATOM      9  C   UNL     1      11.233  12.853  17.206  0.00  0.00    +0.000 A 
ATOM     10  C   UNL     1      10.544  12.006  18.090  0.00  0.00    +0.000 A 
ATOM     11  C   UNL     1       9.709  10.979  17.618  0.00  0.00    +0.000 A 
ENDBRANCH   1   2
BRANCH   1  12
ATOM     12  C   UNL     1       8.444   7.680  18.667  0.00  0.00    +0.000 C 
BRANCH  12  15
ATOM     13  C   UNL     1       6.136   4.656  18.228  0.00  0.00    +0.000 A 
ATOM     14  C   UNL     1       6.927   5.678  18.862  0.00  0.00    +0.000 A 
ATOM     15  C   UNL     1       7.589   6.572  18.115  0.00  0.00    +0.000 A 
ATOM     16  O   UNL     1       7.511   6.540  16.700  0.00  0.00    +0.000 OA
ATOM     17  C   UNL     1       6.784   5.579  16.059  0.00  0.00    +0.000 A 
ATOM     18  O   UNL     1       6.713   5.513  14.836  0.00  0.00    +0.000 OA
ATOM     19  C   UNL     1       6.069   4.599  16.892  0.00  0.00    +0.000 A 
BRANCH  13  21
ATOM     20  C   UNL     1       4.255   3.277  18.752  0.00  0.00    +0.000 C 
ATOM     21  O   UNL     1       5.517   3.822  19.127  0.00  0.00    +0.000 OA
ENDBRANCH  13  21
ENDBRANCH  12  15
ENDBRANCH   1  12
TORSDOF 4
ENDMDL
MODEL 7
REMARK VINA RESULT:      -8.0      3.577      5.486
REMARK  Name = 
REMARK  5 active torsions:
REMARK  status: ('A' for Active; 'I' for Inactive)
REMARK    1  A    between atoms: C_1  and  O_2
REMARK    2  A    between atoms: O_2  and  C_3
REMARK    3  A    between atoms: C_5  and  C_6
REMARK    4  A    between atoms: C_6  and  C_7
REMARK    5  A    between atoms: C_7  and  C_8
REMARK                            x       y       z     vdW  Elec       q    Type
REMARK                         _______ _______ _______ _____ _____    ______ ____
ROOT
ATOM      1  C   UNL     1       2.980   5.732  19.557  0.00  0.00    +0.000 C 
ENDROOT
BRANCH   1   2
ATOM      2  C   UNL     1       2.338   7.086  19.371  0.00  0.00    +0.000 A 
ATOM      3  C   UNL     1       2.367   7.718  18.124  0.00  0.00    +0.000 A 
ATOM      4  C   UNL     1       1.754   8.961  17.944  0.00  0.00    +0.000 A 
ATOM      5  C   UNL     1       1.097   9.597  19.008  0.00  0.00    +0.000 A 
ATOM      6  C   UNL     1       0.460  10.838  18.840  0.00  0.00    +0.000 A 
ATOM      7  C   UNL     1      -0.195  11.453  19.909  0.00  0.00    +0.000 A 
ATOM      8  C   UNL     1      -0.214  10.842  21.158  0.00  0.00    +0.000 A 
ATOM      9  C   UNL     1       0.416   9.610  21.342  0.00  0.00    +0.000 A 
ATOM     10  C   UNL     1       1.068   8.971  20.275  0.00  0.00    +0.000 A 
ATOM     11  C   UNL     1       1.689   7.720  20.440  0.00  0.00    +0.000 A 
ENDBRANCH   1   2
BRANCH   1  12
ATOM     12  C   UNL     1       3.393   5.095  18.223  0.00  0.00    +0.000 C 
BRANCH  12  15
ATOM     13  C   UNL     1       6.960   4.854  16.851  0.00  0.00    +0.000 A 
ATOM     14  C   UNL     1       5.521   4.861  16.896  0.00  0.00    +0.000 A 
ATOM     15  C   UNL     1       4.888   5.068  18.058  0.00  0.00    +0.000 A 
ATOM     16  O   UNL     1       5.615   5.297  19.253  0.00  0.00    +0.000 OA
ATOM     17  C   UNL     1       6.980   5.284  19.258  0.00  0.00    +0.000 A 
ATOM     18  O   UNL     1       7.637   5.461  20.279  0.00  0.00    +0.000 OA
ATOM     19  C   UNL     1       7.661   5.049  17.975  0.00  0.00    +0.000 A 
BRANCH  13  21
ATOM     20  C   UNL     1       6.521   4.298  14.568  0.00  0.00    +0.000 C 
ATOM     21  O   UNL     1       7.456   4.635  15.589  0.00  0.00    +0.000 OA
ENDBRANCH  13  21
ENDBRANCH  12  15
ENDBRANCH   1  12
TORSDOF 4
ENDMDL
MODEL 8
REMARK VINA RESULT:      -7.9      1.275      1.713
REMARK  Name = 
REMARK  5 active torsions:
REMARK  status: ('A' for Active; 'I' for Inactive)
REMARK    1  A    between atoms: C_1  and  O_2
REMARK    2  A    between atoms: O_2  and  C_3
REMARK    3  A    between atoms: C_5  and  C_6
REMARK    4  A    between atoms: C_6  and  C_7
REMARK    5  A    between atoms: C_7  and  C_8
REMARK                            x       y       z     vdW  Elec       q    Type
REMARK                         _______ _______ _______ _____ _____    ______ ____
ROOT
ATOM      1  C   UNL     1       5.723   3.967  16.957  0.00  0.00    +0.000 C 
ENDROOT
BRANCH   1   2
ATOM      2  C   UNL     1       4.443   3.828  17.746  0.00  0.00    +0.000 A 
ATOM      3  C   UNL     1       3.217   4.182  17.174  0.00  0.00    +0.000 A 
ATOM      4  C   UNL     1       2.029   4.034  17.895  0.00  0.00    +0.000 A 
ATOM      5  C   UNL     1       2.042   3.524  19.201  0.00  0.00    +0.000 A 
ATOM      6  C   UNL     1       0.855   3.350  19.933  0.00  0.00    +0.000 A 
ATOM      7  C   UNL     1       0.887   2.835  21.231  0.00  0.00    +0.000 A 
ATOM      8  C   UNL     1       2.102   2.497  21.815  0.00  0.00    +0.000 A 
ATOM      9  C   UNL     1       3.291   2.665  21.102  0.00  0.00    +0.000 A 
ATOM     10  C   UNL     1       3.276   3.169  19.792  0.00  0.00    +0.000 A 
ATOM     11  C   UNL     1       4.463   3.325  19.054  0.00  0.00    +0.000 A 
ENDBRANCH   1   2
BRANCH   1  12
ATOM     12  C   UNL     1       5.696   5.175  16.010  0.00  0.00    +0.000 C 
BRANCH  12  15
ATOM     13  C   UNL     1       6.343   3.644  12.560  0.00  0.00    +0.000 A 
ATOM     14  C   UNL     1       5.737   3.894  13.842  0.00  0.00    +0.000 A 
ATOM     15  C   UNL     1       6.245   4.831  14.652  0.00  0.00    +0.000 A 
ATOM     16  O   UNL     1       7.370   5.601  14.262  0.00  0.00    +0.000 OA
ATOM     17  C   UNL     1       7.984   5.386  13.062  0.00  0.00    +0.000 A 
ATOM     18  O   UNL     1       8.970   6.022  12.704  0.00  0.00    +0.000 OA
ATOM     19  C   UNL     1       7.418   4.348  12.185  0.00  0.00    +0.000 A 
BRANCH  13  21
ATOM     20  C   UNL     1       6.518   1.655  11.247  0.00  0.00    +0.000 C 
ATOM     21  O   UNL     1       5.704   2.659  11.847  0.00  0.00    +0.000 OA
ENDBRANCH  13  21
ENDBRANCH  12  15
ENDBRANCH   1  12
TORSDOF 4
ENDMDL
MODEL 9
REMARK VINA RESULT:      -7.9      1.653      2.553
REMARK  Name = 
REMARK  5 active torsions:
REMARK  status: ('A' for Active; 'I' for Inactive)
REMARK    1  A    between atoms: C_1  and  O_2
REMARK    2  A    between atoms: O_2  and  C_3
REMARK    3  A    between atoms: C_5  and  C_6
REMARK    4  A    between atoms: C_6  and  C_7
REMARK    5  A    between atoms: C_7  and  C_8
REMARK                            x       y       z     vdW  Elec       q    Type
REMARK                         _______ _______ _______ _____ _____    ______ ____
ROOT
ATOM      1  C   UNL     1       3.452   7.548  17.280  0.00  0.00    +0.000 C 
ENDROOT
BRANCH   1   2
ATOM      2  C   UNL     1       2.882   6.537  18.246  0.00  0.00    +0.000 A 
ATOM      3  C   UNL     1       2.488   6.928  19.529  0.00  0.00    +0.000 A 
ATOM      4  C   UNL     1       1.940   5.997  20.417  0.00  0.00    +0.000 A 
ATOM      5  C   UNL     1       1.772   4.658  20.038  0.00  0.00    +0.000 A 
ATOM      6  C   UNL     1       1.205   3.714  20.911  0.00  0.00    +0.000 A 
ATOM      7  C   UNL     1       1.040   2.385  20.515  0.00  0.00    +0.000 A 
ATOM      8  C   UNL     1       1.446   1.982  19.247  0.00  0.00    +0.000 A 
ATOM      9  C   UNL     1       2.012   2.907  18.368  0.00  0.00    +0.000 A 
ATOM     10  C   UNL     1       2.174   4.250  18.746  0.00  0.00    +0.000 A 
ATOM     11  C   UNL     1       2.724   5.197  17.865  0.00  0.00    +0.000 A 
ENDBRANCH   1   2
BRANCH   1  12
ATOM     12  C   UNL     1       4.985   7.602  17.331  0.00  0.00    +0.000 C 
BRANCH  12  15
ATOM     13  C   UNL     1       5.905   4.743  14.955  0.00  0.00    +0.000 A 
ATOM     14  C   UNL     1       5.242   5.905  15.487  0.00  0.00    +0.000 A 
ATOM     15  C   UNL     1       5.607   6.397  16.678  0.00  0.00    +0.000 A 
ATOM     16  O   UNL     1       6.654   5.800  17.424  0.00  0.00    +0.000 OA
ATOM     17  C   UNL     1       7.299   4.689  16.963  0.00  0.00    +0.000 A 
ATOM     18  O   UNL     1       8.195   4.138  17.595  0.00  0.00    +0.000 OA
ATOM     19  C   UNL     1       6.882   4.155  15.657  0.00  0.00    +0.000 A 
BRANCH  13  21
ATOM     20  C   UNL     1       6.269   3.562  12.909  0.00  0.00    +0.000 C 
ATOM     21  O   UNL     1       5.422   4.365  13.726  0.00  0.00    +0.000 OA
ENDBRANCH  13  21
ENDBRANCH  12  15
ENDBRANCH   1  12
TORSDOF 4
ENDMDL
