MODEL 1
REMARK VINA RESULT:      -7.4      0.000      0.000
REMARK  Name = 
REMARK  7 active torsions:
REMARK  status: ('A' for Active; 'I' for Inactive)
REMARK    1  A    between atoms: C_2  and  O_3
REMARK    2  A    between atoms: C_2  and  C_4
REMARK    3  A    between atoms: C_6  and  O_7
REMARK    4  A    between atoms: C_8  and  O_9
REMARK    5  A    between atoms: C_10  and  O_11
REMARK    6  A    between atoms: O_11  and  C_12
REMARK    7  A    between atoms: C_12  and  C_13
REMARK                            x       y       z     vdW  Elec       q    Type
REMARK                         _______ _______ _______ _____ _____    ______ ____
ROOT
ATOM      1  C   UNL     1       6.942   5.460  17.853  0.00  0.00    +0.000 C 
ATOM      2  C   UNL     1       7.150   6.081  16.685  0.00  0.00    +0.000 C 
ATOM      3  C   UNL     1       6.563   5.652  15.381  0.00  0.00    +0.000 C 
ATOM      4  C   UNL     1       5.627   4.414  15.389  0.00  0.00    +0.000 C 
ATOM      5  C   UNL     1       5.119   3.981  16.788  0.00  0.00    +0.000 C 
ATOM      6  C   UNL     1       6.100   4.216  17.954  0.00  0.00    +0.000 C 
ENDROOT
BRANCH   1   8
ATOM      7  O   UNL     1       7.395   5.343  20.175  0.00  0.00    +0.000 OA
ATOM      8  C   UNL     1       7.594   5.899  19.114  0.00  0.00    +0.000 C 
BRANCH   8   9
ATOM      9  O   UNL     1       8.380   6.986  19.001  0.00  0.00    +0.000 OA
ATOM     10  H   UNL     1       8.761   7.150  18.123  0.00  0.00    +0.000 HD
ENDBRANCH   8   9
ENDBRANCH   1   8
BRANCH   3  11
ATOM     11  O   UNL     1       7.690   5.455  14.525  0.00  0.00    +0.000 OA
ATOM     12  H   UNL     1       8.274   6.226  14.662  0.00  0.00    +0.000 HD
ENDBRANCH   3  11
BRANCH   4  13
ATOM     13  O   UNL     1       6.290   3.328  14.712  0.00  0.00    +0.000 OA
ATOM     14  H   UNL     1       6.357   2.564  15.308  0.00  0.00    +0.000 HD
ENDBRANCH   4  13
BRANCH   5  15
ATOM     15  O   UNL     1       3.798   4.450  17.089  0.00  0.00    +0.000 OA
BRANCH  15  16
ATOM     16  C   UNL     1       2.794   3.469  17.312  0.00  0.00    +0.000 C 
BRANCH  16  17
ATOM     17  C   UNL     1       2.473   3.442  18.782  0.00  0.00    +0.000 A 
ATOM     18  C   UNL     1       1.495   4.295  19.313  0.00  0.00    +0.000 A 
ATOM     19  C   UNL     1       1.231   4.303  20.684  0.00  0.00    +0.000 A 
ATOM     20  C   UNL     1       1.933   3.451  21.535  0.00  0.00    +0.000 A 
ATOM     21  C   UNL     1       2.884   2.574  21.015  0.00  0.00    +0.000 A 
ATOM     22  C   UNL     1       3.149   2.566  19.645  0.00  0.00    +0.000 A 
ENDBRANCH  16  17
ENDBRANCH  15  16
ENDBRANCH   5  15
TORSDOF 7
ENDMDL
MODEL 2
REMARK VINA RESULT:      -7.4      0.847      1.028
REMARK  Name = 
REMARK  7 active torsions:
REMARK  status: ('A' for Active; 'I' for Inactive)
REMARK    1  A    between atoms: C_2  and  O_3
REMARK    2  A    between atoms: C_2  and  C_4
REMARK    3  A    between atoms: C_6  and  O_7
REMARK    4  A    between atoms: C_8  and  O_9
REMARK    5  A    between atoms: C_10  and  O_11
REMARK    6  A    between atoms: O_11  and  C_12
REMARK    7  A    between atoms: C_12  and  C_13
REMARK                            x       y       z     vdW  Elec       q    Type
REMARK                         _______ _______ _______ _____ _____    ______ ____
ROOT
ATOM      1  C   UNL     1       6.956   5.499  17.853  0.00  0.00    +0.000 C 
ATOM      2  C   UNL     1       7.205   6.080  16.673  0.00  0.00    +0.000 C 
ATOM      3  C   UNL     1       6.603   5.655  15.374  0.00  0.00    +0.000 C 
ATOM      4  C   UNL     1       5.600   4.470  15.404  0.00  0.00    +0.000 C 
ATOM      5  C   UNL     1       5.060   4.099  16.808  0.00  0.00    +0.000 C 
ATOM      6  C   UNL     1       6.046   4.306  17.976  0.00  0.00    +0.000 C 
ENDROOT
BRANCH   1   8
ATOM      7  O   UNL     1       7.424   5.379  20.172  0.00  0.00    +0.000 OA
ATOM      8  C   UNL     1       7.623   5.931  19.109  0.00  0.00    +0.000 C 
BRANCH   8   9
ATOM      9  O   UNL     1       8.424   7.006  18.988  0.00  0.00    +0.000 OA
ATOM     10  H   UNL     1       9.223   7.009  19.541  0.00  0.00    +0.000 HD
ENDBRANCH   8   9
ENDBRANCH   1   8
BRANCH   3  11
ATOM     11  O   UNL     1       7.723   5.376  14.532  0.00  0.00    +0.000 OA
ATOM     12  H   UNL     1       7.954   4.440  14.688  0.00  0.00    +0.000 HD
ENDBRANCH   3  11
BRANCH   4  13
ATOM     13  O   UNL     1       6.206   3.334  14.757  0.00  0.00    +0.000 OA
ATOM     14  H   UNL     1       5.615   2.566  14.825  0.00  0.00    +0.000 HD
ENDBRANCH   4  13
BRANCH   5  15
ATOM     15  O   UNL     1       3.766   4.647  17.089  0.00  0.00    +0.000 OA
BRANCH  15  16
ATOM     16  C   UNL     1       3.595   5.308  18.336  0.00  0.00    +0.000 C 
BRANCH  16  17
ATOM     17  C   UNL     1       2.704   4.462  19.205  0.00  0.00    +0.000 A 
ATOM     18  C   UNL     1       1.748   3.612  18.631  0.00  0.00    +0.000 A 
ATOM     19  C   UNL     1       0.890   2.864  19.440  0.00  0.00    +0.000 A 
ATOM     20  C   UNL     1       0.987   2.949  20.828  0.00  0.00    +0.000 A 
ATOM     21  C   UNL     1       1.955   3.764  21.410  0.00  0.00    +0.000 A 
ATOM     22  C   UNL     1       2.814   4.513  20.604  0.00  0.00    +0.000 A 
ENDBRANCH  16  17
ENDBRANCH  15  16
ENDBRANCH   5  15
TORSDOF 7
ENDMDL
MODEL 3
REMARK VINA RESULT:      -7.3      2.463      5.797
REMARK  Name = 
REMARK  7 active torsions:
REMARK  status: ('A' for Active; 'I' for Inactive)
REMARK    1  A    between atoms: C_2  and  O_3
REMARK    2  A    between atoms: C_2  and  C_4
REMARK    3  A    between atoms: C_6  and  O_7
REMARK    4  A    between atoms: C_8  and  O_9
REMARK    5  A    between atoms: C_10  and  O_11
REMARK    6  A    between atoms: O_11  and  C_12
REMARK    7  A    between atoms: C_12  and  C_13
REMARK                            x       y       z     vdW  Elec       q    Type
REMARK                         _______ _______ _______ _____ _____    ______ ____
ROOT
ATOM      1  C   UNL     1       2.228   5.461  19.551  0.00  0.00    +0.000 C 
ATOM      2  C   UNL     1       2.139   4.625  20.591  0.00  0.00    +0.000 C 
ATOM      3  C   UNL     1       2.079   3.136  20.481  0.00  0.00    +0.000 C 
ATOM      4  C   UNL     1       2.150   2.521  19.058  0.00  0.00    +0.000 C 
ATOM      5  C   UNL     1       2.637   3.485  17.947  0.00  0.00    +0.000 C 
ATOM      6  C   UNL     1       2.242   4.964  18.129  0.00  0.00    +0.000 C 
ENDROOT
BRANCH   1   8
ATOM      7  O   UNL     1       2.521   7.691  18.807  0.00  0.00    +0.000 OA
ATOM      8  C   UNL     1       2.233   6.938  19.715  0.00  0.00    +0.000 C 
BRANCH   8   9
ATOM      9  O   UNL     1       1.941   7.374  20.955  0.00  0.00    +0.000 OA
ATOM     10  H   UNL     1       1.335   6.820  21.472  0.00  0.00    +0.000 HD
ENDBRANCH   8   9
ENDBRANCH   1   8
BRANCH   3  11
ATOM     11  O   UNL     1       0.871   2.774  21.153  0.00  0.00    +0.000 OA
ATOM     12  H   UNL     1       0.951   3.119  22.063  0.00  0.00    +0.000 HD
ENDBRANCH   3  11
BRANCH   4  13
ATOM     13  O   UNL     1       0.866   1.952  18.735  0.00  0.00    +0.000 OA
ATOM     14  H   UNL     1       0.845   1.706  17.795  0.00  0.00    +0.000 HD
ENDBRANCH   4  13
BRANCH   5  15
ATOM     15  O   UNL     1       4.024   3.331  17.620  0.00  0.00    +0.000 OA
BRANCH  15  16
ATOM     16  C   UNL     1       4.569   4.225  16.659  0.00  0.00    +0.000 C 
BRANCH  16  17
ATOM     17  C   UNL     1       5.685   5.000  17.308  0.00  0.00    +0.000 A 
ATOM     18  C   UNL     1       6.033   4.762  18.646  0.00  0.00    +0.000 A 
ATOM     19  C   UNL     1       7.035   5.514  19.260  0.00  0.00    +0.000 A 
ATOM     20  C   UNL     1       7.707   6.503  18.542  0.00  0.00    +0.000 A 
ATOM     21  C   UNL     1       7.394   6.725  17.203  0.00  0.00    +0.000 A 
ATOM     22  C   UNL     1       6.392   5.974  16.586  0.00  0.00    +0.000 A 
ENDBRANCH  16  17
ENDBRANCH  15  16
ENDBRANCH   5  15
TORSDOF 7
ENDMDL
MODEL 4
REMARK VINA RESULT:      -7.3      1.425      2.084
REMARK  Name = 
REMARK  7 active torsions:
REMARK  status: ('A' for Active; 'I' for Inactive)
REMARK    1  A    between atoms: C_2  and  O_3
REMARK    2  A    between atoms: C_2  and  C_4
REMARK    3  A    between atoms: C_6  and  O_7
REMARK    4  A    between atoms: C_8  and  O_9
REMARK    5  A    between atoms: C_10  and  O_11
REMARK    6  A    between atoms: O_11  and  C_12
REMARK    7  A    between atoms: C_12  and  C_13
REMARK                            x       y       z     vdW  Elec       q    Type
REMARK                         _______ _______ _______ _____ _____    ______ ____
ROOT
ATOM      1  C   UNL     1       6.573   6.056  17.431  0.00  0.00    +0.000 C 
ATOM      2  C   UNL     1       6.559   5.445  16.241  0.00  0.00    +0.000 C 
ATOM      3  C   UNL     1       5.567   4.406  15.831  0.00  0.00    +0.000 C 
ATOM      4  C   UNL     1       4.460   4.032  16.854  0.00  0.00    +0.000 C 
ATOM      5  C   UNL     1       4.288   5.024  18.032  0.00  0.00    +0.000 C 
ATOM      6  C   UNL     1       5.579   5.718  18.511  0.00  0.00    +0.000 C 
ENDROOT
BRANCH   1   8
ATOM      7  O   UNL     1       7.879   8.007  17.109  0.00  0.00    +0.000 OA
ATOM      8  C   UNL     1       7.616   7.046  17.805  0.00  0.00    +0.000 C 
BRANCH   8   9
ATOM      9  O   UNL     1       8.280   6.772  18.944  0.00  0.00    +0.000 OA
ATOM     10  H   UNL     1       7.995   7.262  19.733  0.00  0.00    +0.000 HD
ENDBRANCH   8   9
ENDBRANCH   1   8
BRANCH   3  11
ATOM     11  O   UNL     1       6.358   3.272  15.473  0.00  0.00    +0.000 OA
ATOM     12  H   UNL     1       6.678   2.887  16.312  0.00  0.00    +0.000 HD
ENDBRANCH   3  11
BRANCH   4  13
ATOM     13  O   UNL     1       4.701   2.692  17.327  0.00  0.00    +0.000 OA
ATOM     14  H   UNL     1       4.434   2.622  18.258  0.00  0.00    +0.000 HD
ENDBRANCH   4  13
BRANCH   5  15
ATOM     15  O   UNL     1       3.211   5.952  17.848  0.00  0.00    +0.000 OA
BRANCH  15  16
ATOM     16  C   UNL     1       2.416   6.259  18.986  0.00  0.00    +0.000 C 
BRANCH  16  17
ATOM     17  C   UNL     1       2.043   4.969  19.667  0.00  0.00    +0.000 A 
ATOM     18  C   UNL     1       1.298   3.994  18.988  0.00  0.00    +0.000 A 
ATOM     19  C   UNL     1       0.912   2.820  19.636  0.00  0.00    +0.000 A 
ATOM     20  C   UNL     1       1.276   2.603  20.964  0.00  0.00    +0.000 A 
ATOM     21  C   UNL     1       2.045   3.548  21.639  0.00  0.00    +0.000 A 
ATOM     22  C   UNL     1       2.431   4.724  20.993  0.00  0.00    +0.000 A 
ENDBRANCH  16  17
ENDBRANCH  15  16
ENDBRANCH   5  15
TORSDOF 7
ENDMDL
MODEL 5
REMARK VINA RESULT:      -7.2      0.856      1.323
REMARK  Name = 
REMARK  7 active torsions:
REMARK  status: ('A' for Active; 'I' for Inactive)
REMARK    1  A    between atoms: C_2  and  O_3
REMARK    2  A    between atoms: C_2  and  C_4
REMARK    3  A    between atoms: C_6  and  O_7
REMARK    4  A    between atoms: C_8  and  O_9
REMARK    5  A    between atoms: C_10  and  O_11
REMARK    6  A    between atoms: O_11  and  C_12
REMARK    7  A    between atoms: C_12  and  C_13
REMARK                            x       y       z     vdW  Elec       q    Type
REMARK                         _______ _______ _______ _____ _____    ______ ____
ROOT
ATOM      1  C   UNL     1       6.926   5.546  17.646  0.00  0.00    +0.000 C 
ATOM      2  C   UNL     1       7.148   6.080  16.439  0.00  0.00    +0.000 C 
ATOM      3  C   UNL     1       6.546   5.583  15.167  0.00  0.00    +0.000 C 
ATOM      4  C   UNL     1       5.573   4.376  15.259  0.00  0.00    +0.000 C 
ATOM      5  C   UNL     1       5.056   4.054  16.684  0.00  0.00    +0.000 C 
ATOM      6  C   UNL     1       6.047   4.337  17.831  0.00  0.00    +0.000 C 
ENDROOT
BRANCH   1   8
ATOM      7  O   UNL     1       8.362   6.990  18.856  0.00  0.00    +0.000 OA
ATOM      8  C   UNL     1       7.594   6.049  18.874  0.00  0.00    +0.000 C 
BRANCH   8   9
ATOM      9  O   UNL     1       7.322   5.356  19.996  0.00  0.00    +0.000 OA
ATOM     10  H   UNL     1       7.632   4.436  20.016  0.00  0.00    +0.000 HD
ENDBRANCH   8   9
ENDBRANCH   1   8
BRANCH   3  11
ATOM     11  O   UNL     1       7.664   5.295  14.326  0.00  0.00    +0.000 OA
ATOM     12  H   UNL     1       8.118   6.146  14.175  0.00  0.00    +0.000 HD
ENDBRANCH   3  11
BRANCH   4  13
ATOM     13  O   UNL     1       6.202   3.228  14.656  0.00  0.00    +0.000 OA
ATOM     14  H   UNL     1       6.925   3.518  14.078  0.00  0.00    +0.000 HD
ENDBRANCH   4  13
BRANCH   5  15
ATOM     15  O   UNL     1       3.751   4.582  16.954  0.00  0.00    +0.000 OA
BRANCH  15  16
ATOM     16  C   UNL     1       3.576   5.293  18.172  0.00  0.00    +0.000 C 
BRANCH  16  17
ATOM     17  C   UNL     1       2.653   4.499  19.058  0.00  0.00    +0.000 A 
ATOM     18  C   UNL     1       2.696   4.653  20.451  0.00  0.00    +0.000 A 
ATOM     19  C   UNL     1       1.873   3.882  21.274  0.00  0.00    +0.000 A 
ATOM     20  C   UNL     1       0.992   2.959  20.713  0.00  0.00    +0.000 A 
ATOM     21  C   UNL     1       0.915   2.822  19.328  0.00  0.00    +0.000 A 
ATOM     22  C   UNL     1       1.737   3.591  18.504  0.00  0.00    +0.000 A 
ENDBRANCH  16  17
ENDBRANCH  15  16
ENDBRANCH   5  15
TORSDOF 7
ENDMDL
MODEL 6
REMARK VINA RESULT:      -7.2      1.177      3.365
REMARK  Name = 
REMARK  7 active torsions:
REMARK  status: ('A' for Active; 'I' for Inactive)
REMARK    1  A    between atoms: C_2  and  O_3
REMARK    2  A    between atoms: C_2  and  C_4
REMARK    3  A    between atoms: C_6  and  O_7
REMARK    4  A    between atoms: C_8  and  O_9
REMARK    5  A    between atoms: C_10  and  O_11
REMARK    6  A    between atoms: O_11  and  C_12
REMARK    7  A    between atoms: C_12  and  C_13
REMARK                            x       y       z     vdW  Elec       q    Type
REMARK                         _______ _______ _______ _____ _____    ______ ____
ROOT
ATOM      1  C   UNL     1       6.495   4.543  15.786  0.00  0.00    +0.000 C 
ATOM      2  C   UNL     1       7.345   4.629  16.816  0.00  0.00    +0.000 C 
ATOM      3  C   UNL     1       6.937   4.655  18.253  0.00  0.00    +0.000 C 
ATOM      4  C   UNL     1       5.421   4.549  18.568  0.00  0.00    +0.000 C 
ATOM      5  C   UNL     1       4.535   4.068  17.391  0.00  0.00    +0.000 C 
ATOM      6  C   UNL     1       5.003   4.498  15.987  0.00  0.00    +0.000 C 
ENDROOT
BRANCH   1   8
ATOM      7  O   UNL     1       7.717   5.421  13.956  0.00  0.00    +0.000 OA
ATOM      8  C   UNL     1       6.953   4.574  14.373  0.00  0.00    +0.000 C 
BRANCH   8   9
ATOM      9  O   UNL     1       6.421   3.624  13.580  0.00  0.00    +0.000 OA
ATOM     10  H   UNL     1       6.949   2.817  13.465  0.00  0.00    +0.000 HD
ENDBRANCH   8   9
ENDBRANCH   1   8
BRANCH   3  11
ATOM     11  O   UNL     1       7.499   5.864  18.766  0.00  0.00    +0.000 OA
ATOM     12  H   UNL     1       7.548   5.752  19.735  0.00  0.00    +0.000 HD
ENDBRANCH   3  11
BRANCH   4  13
ATOM     13  O   UNL     1       4.966   5.816  19.084  0.00  0.00    +0.000 OA
ATOM     14  H   UNL     1       4.578   5.689  19.965  0.00  0.00    +0.000 HD
ENDBRANCH   4  13
BRANCH   5  15
ATOM     15  O   UNL     1       4.210   2.673  17.450  0.00  0.00    +0.000 OA
BRANCH  15  16
ATOM     16  C   UNL     1       2.839   2.330  17.598  0.00  0.00    +0.000 C 
BRANCH  16  17
ATOM     17  C   UNL     1       2.385   2.761  18.967  0.00  0.00    +0.000 A 
ATOM     18  C   UNL     1       3.028   2.278  20.115  0.00  0.00    +0.000 A 
ATOM     19  C   UNL     1       2.576   2.641  21.385  0.00  0.00    +0.000 A 
ATOM     20  C   UNL     1       1.486   3.499  21.520  0.00  0.00    +0.000 A 
ATOM     21  C   UNL     1       0.860   4.014  20.386  0.00  0.00    +0.000 A 
ATOM     22  C   UNL     1       1.310   3.651  19.115  0.00  0.00    +0.000 A 
ENDBRANCH  16  17
ENDBRANCH  15  16
ENDBRANCH   5  15
TORSDOF 7
ENDMDL
MODEL 7
REMARK VINA RESULT:      -7.1      1.423      2.070
REMARK  Name = 
REMARK  7 active torsions:
REMARK  status: ('A' for Active; 'I' for Inactive)
REMARK    1  A    between atoms: C_2  and  O_3
REMARK    2  A    between atoms: C_2  and  C_4
REMARK    3  A    between atoms: C_6  and  O_7
REMARK    4  A    between atoms: C_8  and  O_9
REMARK    5  A    between atoms: C_10  and  O_11
REMARK    6  A    between atoms: O_11  and  C_12
REMARK    7  A    between atoms: C_12  and  C_13
REMARK                            x       y       z     vdW  Elec       q    Type
REMARK                         _______ _______ _______ _____ _____    ______ ____
ROOT
ATOM      1  C   UNL     1       6.531   5.945  17.450  0.00  0.00    +0.000 C 
ATOM      2  C   UNL     1       6.512   5.348  16.253  0.00  0.00    +0.000 C 
ATOM      3  C   UNL     1       5.508   4.328  15.829  0.00  0.00    +0.000 C 
ATOM      4  C   UNL     1       4.393   3.956  16.843  0.00  0.00    +0.000 C 
ATOM      5  C   UNL     1       4.231   4.936  18.033  0.00  0.00    +0.000 C 
ATOM      6  C   UNL     1       5.530   5.608  18.523  0.00  0.00    +0.000 C 
ENDROOT
BRANCH   1   8
ATOM      7  O   UNL     1       8.253   6.783  18.846  0.00  0.00    +0.000 OA
ATOM      8  C   UNL     1       7.587   6.916  17.838  0.00  0.00    +0.000 C 
BRANCH   8   9
ATOM      9  O   UNL     1       7.716   7.976  17.019  0.00  0.00    +0.000 OA
ATOM     10  H   UNL     1       8.189   8.743  17.381  0.00  0.00    +0.000 HD
ENDBRANCH   8   9
ENDBRANCH   1   8
BRANCH   3  11
ATOM     11  O   UNL     1       6.285   3.188  15.458  0.00  0.00    +0.000 OA
ATOM     12  H   UNL     1       7.212   3.408  15.673  0.00  0.00    +0.000 HD
ENDBRANCH   3  11
BRANCH   4  13
ATOM     13  O   UNL     1       4.614   2.607  17.301  0.00  0.00    +0.000 OA
ATOM     14  H   UNL     1       3.973   2.011  16.882  0.00  0.00    +0.000 HD
ENDBRANCH   4  13
BRANCH   5  15
ATOM     15  O   UNL     1       3.167   5.881  17.858  0.00  0.00    +0.000 OA
BRANCH  15  16
ATOM     16  C   UNL     1       2.406   6.224  19.008  0.00  0.00    +0.000 C 
BRANCH  16  17
ATOM     17  C   UNL     1       2.005   4.955  19.710  0.00  0.00    +0.000 A 
ATOM     18  C   UNL     1       2.385   4.726  21.040  0.00  0.00    +0.000 A 
ATOM     19  C   UNL     1       2.053   3.527  21.675  0.00  0.00    +0.000 A 
ATOM     20  C   UNL     1       1.330   2.552  20.991  0.00  0.00    +0.000 A 
ATOM     21  C   UNL     1       0.917   2.781  19.680  0.00  0.00    +0.000 A 
ATOM     22  C   UNL     1       1.248   3.979  19.044  0.00  0.00    +0.000 A 
ENDBRANCH  16  17
ENDBRANCH  15  16
ENDBRANCH   5  15
TORSDOF 7
ENDMDL
MODEL 8
REMARK VINA RESULT:      -7.1      2.394      5.679
REMARK  Name = 
REMARK  7 active torsions:
REMARK  status: ('A' for Active; 'I' for Inactive)
REMARK    1  A    between atoms: C_2  and  O_3
REMARK    2  A    between atoms: C_2  and  C_4
REMARK    3  A    between atoms: C_6  and  O_7
REMARK    4  A    between atoms: C_8  and  O_9
REMARK    5  A    between atoms: C_10  and  O_11
REMARK    6  A    between atoms: O_11  and  C_12
REMARK    7  A    between atoms: C_12  and  C_13
REMARK                            x       y       z     vdW  Elec       q    Type
REMARK                         _______ _______ _______ _____ _____    ______ ____
ROOT
ATOM      1  C   UNL     1       2.396   5.341  19.551  0.00  0.00    +0.000 C 
ATOM      2  C   UNL     1       2.519   4.498  20.582  0.00  0.00    +0.000 C 
ATOM      3  C   UNL     1       2.617   3.013  20.458  0.00  0.00    +0.000 C 
ATOM      4  C   UNL     1       2.599   2.412  19.026  0.00  0.00    +0.000 C 
ATOM      5  C   UNL     1       2.845   3.428  17.882  0.00  0.00    +0.000 C 
ATOM      6  C   UNL     1       2.307   4.852  18.129  0.00  0.00    +0.000 C 
ENDROOT
BRANCH   1   8
ATOM      7  O   UNL     1       2.543   7.604  18.867  0.00  0.00    +0.000 OA
ATOM      8  C   UNL     1       2.250   6.808  19.736  0.00  0.00    +0.000 C 
BRANCH   8   9
ATOM      9  O   UNL     1       1.816   7.189  20.952  0.00  0.00    +0.000 OA
ATOM     10  H   UNL     1       2.422   7.744  21.469  0.00  0.00    +0.000 HD
ENDBRANCH   8   9
ENDBRANCH   1   8
BRANCH   3  11
ATOM     11  O   UNL     1       1.541   2.512  21.253  0.00  0.00    +0.000 OA
ATOM     12  H   UNL     1       1.317   3.221  21.886  0.00  0.00    +0.000 HD
ENDBRANCH   3  11
BRANCH   4  13
ATOM     13  O   UNL     1       1.359   1.700  18.838  0.00  0.00    +0.000 OA
ATOM     14  H   UNL     1       1.500   0.753  18.996  0.00  0.00    +0.000 HD
ENDBRANCH   4  13
BRANCH   5  15
ATOM     15  O   UNL     1       4.196   3.436  17.402  0.00  0.00    +0.000 OA
BRANCH  15  16
ATOM     16  C   UNL     1       4.599   4.547  16.613  0.00  0.00    +0.000 C 
BRANCH  16  17
ATOM     17  C   UNL     1       5.707   5.266  17.335  0.00  0.00    +0.000 A 
ATOM     18  C   UNL     1       6.394   6.320  16.717  0.00  0.00    +0.000 A 
ATOM     19  C   UNL     1       7.452   6.955  17.370  0.00  0.00    +0.000 A 
ATOM     20  C   UNL     1       7.826   6.550  18.650  0.00  0.00    +0.000 A 
ATOM     21  C   UNL     1       7.129   5.527  19.289  0.00  0.00    +0.000 A 
ATOM     22  C   UNL     1       6.071   4.891  18.638  0.00  0.00    +0.000 A 
ENDBRANCH  16  17
ENDBRANCH  15  16
ENDBRANCH   5  15
TORSDOF 7
ENDMDL
MODEL 9
REMARK VINA RESULT:      -7.1      1.180      3.125
REMARK  Name = 
REMARK  7 active torsions:
REMARK  status: ('A' for Active; 'I' for Inactive)
REMARK    1  A    between atoms: C_2  and  O_3
REMARK    2  A    between atoms: C_2  and  C_4
REMARK    3  A    between atoms: C_6  and  O_7
REMARK    4  A    between atoms: C_8  and  O_9
REMARK    5  A    between atoms: C_10  and  O_11
REMARK    6  A    between atoms: O_11  and  C_12
REMARK    7  A    between atoms: C_12  and  C_13
REMARK                            x       y       z     vdW  Elec       q    Type
REMARK                         _______ _______ _______ _____ _____    ______ ____
ROOT
ATOM      1  C   UNL     1       6.434   4.588  15.740  0.00  0.00    +0.000 C 
ATOM      2  C   UNL     1       7.340   4.658  16.722  0.00  0.00    +0.000 C 
ATOM      3  C   UNL     1       7.015   4.647  18.179  0.00  0.00    +0.000 C 
ATOM      4  C   UNL     1       5.519   4.519  18.577  0.00  0.00    +0.000 C 
ATOM      5  C   UNL     1       4.572   4.058  17.441  0.00  0.00    +0.000 C 
ATOM      6  C   UNL     1       4.956   4.525  16.023  0.00  0.00    +0.000 C 
ENDROOT
BRANCH   1   8
ATOM      7  O   UNL     1       6.269   3.974  13.457  0.00  0.00    +0.000 OA
ATOM      8  C   UNL     1       6.811   4.657  14.304  0.00  0.00    +0.000 C 
BRANCH   8   9
ATOM      9  O   UNL     1       7.826   5.493  14.020  0.00  0.00    +0.000 OA
ATOM     10  H   UNL     1       8.109   6.083  14.738  0.00  0.00    +0.000 HD
ENDBRANCH   8   9
ENDBRANCH   1   8
BRANCH   3  11
ATOM     11  O   UNL     1       7.595   5.848  18.688  0.00  0.00    +0.000 OA
ATOM     12  H   UNL     1       6.849   6.435  18.919  0.00  0.00    +0.000 HD
ENDBRANCH   3  11
BRANCH   4  13
ATOM     13  O   UNL     1       5.084   5.769  19.148  0.00  0.00    +0.000 OA
ATOM     14  H   UNL     1       4.242   5.640  19.613  0.00  0.00    +0.000 HD
ENDBRANCH   4  13
BRANCH   5  15
ATOM     15  O   UNL     1       4.262   2.658  17.485  0.00  0.00    +0.000 OA
BRANCH  15  16
ATOM     16  C   UNL     1       2.892   2.298  17.591  0.00  0.00    +0.000 C 
BRANCH  16  17
ATOM     17  C   UNL     1       2.399   2.698  18.956  0.00  0.00    +0.000 A 
ATOM     18  C   UNL     1       1.294   3.550  19.093  0.00  0.00    +0.000 A 
ATOM     19  C   UNL     1       0.868   3.958  20.358  0.00  0.00    +0.000 A 
ATOM     20  C   UNL     1       1.533   3.510  21.498  0.00  0.00    +0.000 A 
ATOM     21  C   UNL     1       2.611   2.635  21.377  0.00  0.00    +0.000 A 
ATOM     22  C   UNL     1       3.040   2.227  20.113  0.00  0.00    +0.000 A 
ENDBRANCH  16  17
ENDBRANCH  15  16
ENDBRANCH   5  15
TORSDOF 7
ENDMDL
