MODEL 1
REMARK VINA RESULT:      -8.5      0.000      0.000
REMARK  Name = 
REMARK  3 active torsions:
REMARK  status: ('A' for Active; 'I' for Inactive)
REMARK    1  A    between atoms: C_2  and  O_3
REMARK    2  A    between atoms: C_2  and  C_4
REMARK    3  A    between atoms: C_13  and  C_14
REMARK                            x       y       z     vdW  Elec       q    Type
REMARK                         _______ _______ _______ _____ _____    ______ ____
ROOT
ATOM      1  C   UNL     1      -1.382  11.398  19.834  0.00  0.00    +0.000 A 
ATOM      2  C   UNL     1      -2.162  12.314  20.559  0.00  0.00    +0.000 A 
ATOM      3  C   UNL     1      -2.110  12.333  21.952  0.00  0.00    +0.000 A 
ATOM      4 BR   UNL     1      -3.163  13.566  22.920  0.00  0.00    +0.000 Br
ATOM      5  C   UNL     1      -1.283  11.451  22.636  0.00  0.00    +0.000 A 
ATOM      6  C   UNL     1      -0.503  10.546  21.910  0.00  0.00    +0.000 A 
ATOM      7  C   UNL     1       0.381   9.616  22.623  0.00  0.00    +0.000 A 
ATOM      8  O   UNL     1       0.462   9.589  23.842  0.00  0.00    +0.000 OA
ATOM      9  C   UNL     1       1.193   8.718  21.795  0.00  0.00    +0.000 A 
ATOM     10  C   UNL     1       1.110   8.795  20.461  0.00  0.00    +0.000 A 
ATOM     11  O   UNL     1       0.245   9.646  19.788  0.00  0.00    +0.000 OA
ATOM     12  C   UNL     1      -0.538  10.511  20.514  0.00  0.00    +0.000 A 
ENDROOT
BRANCH  10  13
ATOM     13  C   UNL     1       1.940   7.943  19.584  0.00  0.00    +0.000 A 
ATOM     14  C   UNL     1       2.335   8.374  18.319  0.00  0.00    +0.000 A 
ATOM     15  C   UNL     1       3.127   7.544  17.539  0.00  0.00    +0.000 A 
ATOM     16  C   UNL     1       3.491   6.288  18.023  0.00  0.00    +0.000 A 
ATOM     17  C   UNL     1       4.290   5.424  17.256  0.00  0.00    +0.000 A 
ATOM     18  C   UNL     1       4.634   4.169  17.747  0.00  0.00    +0.000 A 
ATOM     19  C   UNL     1       4.181   3.778  19.003  0.00  0.00    +0.000 A 
ATOM     20  C   UNL     1       3.388   4.646  19.763  0.00  0.00    +0.000 A 
ATOM     21  C   UNL     1       3.031   5.908  19.302  0.00  0.00    +0.000 A 
ATOM     22  N   UNL     1       2.271   6.720  20.070  0.00  0.00    +0.000 NA
ENDBRANCH  10  13
BRANCH   1  24
ATOM     23  O   UNL     1      -2.472  11.891  17.795  0.00  0.00    +0.000 OA
ATOM     24  C   UNL     1      -1.477  11.460  18.353  0.00  0.00    +0.000 C 
BRANCH  24  25
ATOM     25  O   UNL     1      -0.438  10.920  17.686  0.00  0.00    +0.000 OA
ATOM     26  H   UNL     1       0.455  11.167  18.002  0.00  0.00    +0.000 HD
ENDBRANCH  24  25
ENDBRANCH   1  24
TORSDOF 3
ENDMDL
MODEL 2
REMARK VINA RESULT:      -8.4      1.959      3.725
REMARK  Name = 
REMARK  3 active torsions:
REMARK  status: ('A' for Active; 'I' for Inactive)
REMARK    1  A    between atoms: C_2  and  O_3
REMARK    2  A    between atoms: C_2  and  C_4
REMARK    3  A    between atoms: C_13  and  C_14
REMARK                            x       y       z     vdW  Elec       q    Type
REMARK                         _______ _______ _______ _____ _____    ______ ____
ROOT
ATOM      1  C   UNL     1       0.234  10.240  21.665  0.00  0.00    +0.000 A 
ATOM      2  C   UNL     1      -0.149  11.591  21.645  0.00  0.00    +0.000 A 
ATOM      3  C   UNL     1       0.130  12.385  20.534  0.00  0.00    +0.000 A 
ATOM      4 BR   UNL     1      -0.387  14.201  20.516  0.00  0.00    +0.000 Br
ATOM      5  C   UNL     1       0.786  11.847  19.433  0.00  0.00    +0.000 A 
ATOM      6  C   UNL     1       1.159  10.500  19.454  0.00  0.00    +0.000 A 
ATOM      7  C   UNL     1       1.843   9.920  18.293  0.00  0.00    +0.000 A 
ATOM      8  O   UNL     1       2.115  10.572  17.295  0.00  0.00    +0.000 OA
ATOM      9  C   UNL     1       2.176   8.493  18.372  0.00  0.00    +0.000 A 
ATOM     10  C   UNL     1       1.834   7.796  19.463  0.00  0.00    +0.000 A 
ATOM     11  O   UNL     1       1.223   8.354  20.577  0.00  0.00    +0.000 OA
ATOM     12  C   UNL     1       0.887   9.686  20.556  0.00  0.00    +0.000 A 
ENDROOT
BRANCH  10  13
ATOM     13  C   UNL     1       2.108   6.348  19.572  0.00  0.00    +0.000 A 
ATOM     14  C   UNL     1       1.848   5.649  20.750  0.00  0.00    +0.000 A 
ATOM     15  C   UNL     1       2.107   4.287  20.798  0.00  0.00    +0.000 A 
ATOM     16  C   UNL     1       2.644   3.649  19.680  0.00  0.00    +0.000 A 
ATOM     17  C   UNL     1       2.920   2.272  19.699  0.00  0.00    +0.000 A 
ATOM     18  C   UNL     1       3.467   1.653  18.580  0.00  0.00    +0.000 A 
ATOM     19  C   UNL     1       3.738   2.409  17.444  0.00  0.00    +0.000 A 
ATOM     20  C   UNL     1       3.457   3.780  17.431  0.00  0.00    +0.000 A 
ATOM     21  C   UNL     1       2.906   4.427  18.531  0.00  0.00    +0.000 A 
ATOM     22  N   UNL     1       2.641   5.751  18.477  0.00  0.00    +0.000 NA
ENDBRANCH  10  13
BRANCH   1  24
ATOM     23  O   UNL     1       0.362   9.712  23.965  0.00  0.00    +0.000 OA
ATOM     24  C   UNL     1      -0.122   9.458  22.875  0.00  0.00    +0.000 C 
BRANCH  24  25
ATOM     25  O   UNL     1      -0.931   8.402  22.661  0.00  0.00    +0.000 OA
ATOM     26  H   UNL     1      -1.482   8.434  21.852  0.00  0.00    +0.000 HD
ENDBRANCH  24  25
ENDBRANCH   1  24
TORSDOF 3
ENDMDL
MODEL 3
REMARK VINA RESULT:      -8.2      0.849      1.572
REMARK  Name = 
REMARK  3 active torsions:
REMARK  status: ('A' for Active; 'I' for Inactive)
REMARK    1  A    between atoms: C_2  and  O_3
REMARK    2  A    between atoms: C_2  and  C_4
REMARK    3  A    between atoms: C_13  and  C_14
REMARK                            x       y       z     vdW  Elec       q    Type
REMARK                         _______ _______ _______ _____ _____    ______ ____
ROOT
ATOM      1  C   UNL     1      -1.111  10.968  19.567  0.00  0.00    +0.000 A 
ATOM      2  C   UNL     1      -1.809  12.075  20.078  0.00  0.00    +0.000 A 
ATOM      3  C   UNL     1      -1.788  12.351  21.444  0.00  0.00    +0.000 A 
ATOM      4 BR   UNL     1      -2.729  13.841  22.121  0.00  0.00    +0.000 Br
ATOM      5  C   UNL     1      -1.074  11.537  22.314  0.00  0.00    +0.000 A 
ATOM      6  C   UNL     1      -0.375  10.439  21.800  0.00  0.00    +0.000 A 
ATOM      7  C   UNL     1       0.390   9.578  22.710  0.00  0.00    +0.000 A 
ATOM      8  O   UNL     1       0.439   9.773  23.916  0.00  0.00    +0.000 OA
ATOM      9  C   UNL     1       1.124   8.465  22.098  0.00  0.00    +0.000 A 
ATOM     10  C   UNL     1       1.081   8.298  20.770  0.00  0.00    +0.000 A 
ATOM     11  O   UNL     1       0.325   9.088  19.915  0.00  0.00    +0.000 OA
ATOM     12  C   UNL     1      -0.380  10.146  20.435  0.00  0.00    +0.000 A 
ENDROOT
BRANCH  10  13
ATOM     13  C   UNL     1       1.838   7.219  20.101  0.00  0.00    +0.000 A 
ATOM     14  C   UNL     1       1.803   5.909  20.576  0.00  0.00    +0.000 A 
ATOM     15  C   UNL     1       2.518   4.927  19.905  0.00  0.00    +0.000 A 
ATOM     16  C   UNL     1       3.276   5.274  18.786  0.00  0.00    +0.000 A 
ATOM     17  C   UNL     1       4.013   4.303  18.088  0.00  0.00    +0.000 A 
ATOM     18  C   UNL     1       4.774   4.666  16.981  0.00  0.00    +0.000 A 
ATOM     19  C   UNL     1       4.799   5.996  16.574  0.00  0.00    +0.000 A 
ATOM     20  C   UNL     1       4.058   6.957  17.273  0.00  0.00    +0.000 A 
ATOM     21  C   UNL     1       3.285   6.626  18.380  0.00  0.00    +0.000 A 
ATOM     22  N   UNL     1       2.578   7.580  19.023  0.00  0.00    +0.000 NA
ENDBRANCH  10  13
BRANCH   1  24
ATOM     23  O   UNL     1      -2.197  10.916  17.468  0.00  0.00    +0.000 OA
ATOM     24  C   UNL     1      -1.165  10.758  18.098  0.00  0.00    +0.000 C 
BRANCH  24  25
ATOM     25  O   UNL     1      -0.030  10.293  17.541  0.00  0.00    +0.000 OA
ATOM     26  H   UNL     1       0.192  10.642  16.653  0.00  0.00    +0.000 HD
ENDBRANCH  24  25
ENDBRANCH   1  24
TORSDOF 3
ENDMDL
MODEL 4
REMARK VINA RESULT:      -8.1      1.082      1.215
REMARK  Name = 
REMARK  3 active torsions:
REMARK  status: ('A' for Active; 'I' for Inactive)
REMARK    1  A    between atoms: C_2  and  O_3
REMARK    2  A    between atoms: C_2  and  C_4
REMARK    3  A    between atoms: C_13  and  C_14
REMARK                            x       y       z     vdW  Elec       q    Type
REMARK                         _______ _______ _______ _____ _____    ______ ____
ROOT
ATOM      1  C   UNL     1      -0.457  12.597  19.964  0.00  0.00    +0.000 A 
ATOM      2  C   UNL     1      -1.120  13.594  20.699  0.00  0.00    +0.000 A 
ATOM      3  C   UNL     1      -1.423  13.391  22.045  0.00  0.00    +0.000 A 
ATOM      4 BR   UNL     1      -2.316  14.735  23.025  0.00  0.00    +0.000 Br
ATOM      5  C   UNL     1      -1.069  12.203  22.673  0.00  0.00    +0.000 A 
ATOM      6  C   UNL     1      -0.404  11.217  21.939  0.00  0.00    +0.000 A 
ATOM      7  C   UNL     1      -0.016   9.963  22.596  0.00  0.00    +0.000 A 
ATOM      8  O   UNL     1      -0.261   9.732  23.772  0.00  0.00    +0.000 OA
ATOM      9  C   UNL     1       0.707   8.987  21.774  0.00  0.00    +0.000 A 
ATOM     10  C   UNL     1       0.992   9.282  20.499  0.00  0.00    +0.000 A 
ATOM     11  O   UNL     1       0.592  10.450  19.867  0.00  0.00    +0.000 OA
ATOM     12  C   UNL     1      -0.087  11.400  20.591  0.00  0.00    +0.000 A 
ENDROOT
BRANCH  10  13
ATOM     13  C   UNL     1       1.757   8.351  19.643  0.00  0.00    +0.000 A 
ATOM     14  C   UNL     1       2.125   8.699  18.345  0.00  0.00    +0.000 A 
ATOM     15  C   UNL     1       2.857   7.796  17.585  0.00  0.00    +0.000 A 
ATOM     16  C   UNL     1       3.188   6.554  18.125  0.00  0.00    +0.000 A 
ATOM     17  C   UNL     1       3.925   5.619  17.379  0.00  0.00    +0.000 A 
ATOM     18  C   UNL     1       4.237   4.379  17.927  0.00  0.00    +0.000 A 
ATOM     19  C   UNL     1       3.812   4.073  19.216  0.00  0.00    +0.000 A 
ATOM     20  C   UNL     1       3.082   5.012  19.954  0.00  0.00    +0.000 A 
ATOM     21  C   UNL     1       2.758   6.261  19.437  0.00  0.00    +0.000 A 
ATOM     22  N   UNL     1       2.058   7.143  20.183  0.00  0.00    +0.000 NA
ENDBRANCH  10  13
BRANCH   1  24
ATOM     23  O   UNL     1       0.950  13.304  18.201  0.00  0.00    +0.000 OA
ATOM     24  C   UNL     1      -0.150  12.902  18.544  0.00  0.00    +0.000 C 
BRANCH  24  25
ATOM     25  O   UNL     1      -1.190  12.798  17.694  0.00  0.00    +0.000 OA
ATOM     26  H   UNL     1      -1.016  12.328  16.852  0.00  0.00    +0.000 HD
ENDBRANCH  24  25
ENDBRANCH   1  24
TORSDOF 3
ENDMDL
MODEL 5
REMARK VINA RESULT:      -8.0      1.174      3.053
REMARK  Name = 
REMARK  3 active torsions:
REMARK  status: ('A' for Active; 'I' for Inactive)
REMARK    1  A    between atoms: C_2  and  O_3
REMARK    2  A    between atoms: C_2  and  C_4
REMARK    3  A    between atoms: C_13  and  C_14
REMARK                            x       y       z     vdW  Elec       q    Type
REMARK                         _______ _______ _______ _____ _____    ______ ____
ROOT
ATOM      1  C   UNL     1      -0.586  10.694  22.381  0.00  0.00    +0.000 A 
ATOM      2  C   UNL     1      -1.396  11.733  22.868  0.00  0.00    +0.000 A 
ATOM      3  C   UNL     1      -1.681  12.837  22.066  0.00  0.00    +0.000 A 
ATOM      4 BR   UNL     1      -2.769  14.231  22.729  0.00  0.00    +0.000 Br
ATOM      5  C   UNL     1      -1.170  12.919  20.777  0.00  0.00    +0.000 A 
ATOM      6  C   UNL     1      -0.370  11.879  20.294  0.00  0.00    +0.000 A 
ATOM      7  C   UNL     1       0.167  11.951  18.930  0.00  0.00    +0.000 A 
ATOM      8  O   UNL     1      -0.048  12.898  18.187  0.00  0.00    +0.000 OA
ATOM      9  C   UNL     1       0.971  10.810  18.480  0.00  0.00    +0.000 A 
ATOM     10  C   UNL     1       1.161   9.771  19.303  0.00  0.00    +0.000 A 
ATOM     11  O   UNL     1       0.687   9.721  20.606  0.00  0.00    +0.000 OA
ATOM     12  C   UNL     1      -0.074  10.762  21.079  0.00  0.00    +0.000 A 
ENDROOT
BRANCH  10  13
ATOM     13  C   UNL     1       1.926   8.579  18.881  0.00  0.00    +0.000 A 
ATOM     14  C   UNL     1       2.635   8.563  17.681  0.00  0.00    +0.000 A 
ATOM     15  C   UNL     1       3.351   7.425  17.335  0.00  0.00    +0.000 A 
ATOM     16  C   UNL     1       3.328   6.316  18.180  0.00  0.00    +0.000 A 
ATOM     17  C   UNL     1       4.040   5.149  17.856  0.00  0.00    +0.000 A 
ATOM     18  C   UNL     1       3.997   4.046  18.702  0.00  0.00    +0.000 A 
ATOM     19  C   UNL     1       3.244   4.109  19.870  0.00  0.00    +0.000 A 
ATOM     20  C   UNL     1       2.540   5.276  20.188  0.00  0.00    +0.000 A 
ATOM     21  C   UNL     1       2.566   6.396  19.365  0.00  0.00    +0.000 A 
ATOM     22  N   UNL     1       1.879   7.508  19.711  0.00  0.00    +0.000 NA
ENDBRANCH  10  13
BRANCH   1  24
ATOM     23  O   UNL     1       0.449   9.606  24.207  0.00  0.00    +0.000 OA
ATOM     24  C   UNL     1      -0.352   9.543  23.290  0.00  0.00    +0.000 C 
BRANCH  24  25
ATOM     25  O   UNL     1      -1.008   8.411  22.966  0.00  0.00    +0.000 OA
ATOM     26  H   UNL     1      -0.774   7.612  23.481  0.00  0.00    +0.000 HD
ENDBRANCH  24  25
ENDBRANCH   1  24
TORSDOF 3
ENDMDL
MODEL 6
REMARK VINA RESULT:      -7.9      3.909      8.646
REMARK  Name = 
REMARK  3 active torsions:
REMARK  status: ('A' for Active; 'I' for Inactive)
REMARK    1  A    between atoms: C_2  and  O_3
REMARK    2  A    between atoms: C_2  and  C_4
REMARK    3  A    between atoms: C_13  and  C_14
REMARK                            x       y       z     vdW  Elec       q    Type
REMARK                         _______ _______ _______ _____ _____    ______ ____
ROOT
ATOM      1  C   UNL     1      -0.790  11.023  18.882  0.00  0.00    +0.000 A 
ATOM      2  C   UNL     1       0.163  10.127  18.369  0.00  0.00    +0.000 A 
ATOM      3  C   UNL     1       0.947   9.364  19.234  0.00  0.00    +0.000 A 
ATOM      4 BR   UNL     1       2.226   8.163  18.537  0.00  0.00    +0.000 Br
ATOM      5  C   UNL     1       0.792   9.480  20.609  0.00  0.00    +0.000 A 
ATOM      6  C   UNL     1      -0.162  10.368  21.114  0.00  0.00    +0.000 A 
ATOM      7  C   UNL     1      -0.341  10.491  22.566  0.00  0.00    +0.000 A 
ATOM      8  O   UNL     1       0.322   9.849  23.368  0.00  0.00    +0.000 OA
ATOM      9  C   UNL     1      -1.382  11.418  23.024  0.00  0.00    +0.000 A 
ATOM     10  C   UNL     1      -2.117  12.081  22.122  0.00  0.00    +0.000 A 
ATOM     11  O   UNL     1      -1.921  11.995  20.751  0.00  0.00    +0.000 OA
ATOM     12  C   UNL     1      -0.961  11.140  20.267  0.00  0.00    +0.000 A 
ENDROOT
BRANCH  10  13
ATOM     13  C   UNL     1      -3.206  12.992  22.531  0.00  0.00    +0.000 A 
ATOM     14  C   UNL     1      -3.037  14.375  22.514  0.00  0.00    +0.000 A 
ATOM     15  C   UNL     1      -4.095  15.190  22.893  0.00  0.00    +0.000 A 
ATOM     16  C   UNL     1      -5.295  14.610  23.305  0.00  0.00    +0.000 A 
ATOM     17  C   UNL     1      -6.382  15.408  23.697  0.00  0.00    +0.000 A 
ATOM     18  C   UNL     1      -7.568  14.816  24.118  0.00  0.00    +0.000 A 
ATOM     19  C   UNL     1      -7.667  13.428  24.148  0.00  0.00    +0.000 A 
ATOM     20  C   UNL     1      -6.580  12.640  23.752  0.00  0.00    +0.000 A 
ATOM     21  C   UNL     1      -5.383  13.202  23.322  0.00  0.00    +0.000 A 
ATOM     22  N   UNL     1      -4.360  12.407  22.941  0.00  0.00    +0.000 NA
ENDBRANCH  10  13
BRANCH   1  24
ATOM     23  O   UNL     1      -2.649  11.335  17.455  0.00  0.00    +0.000 OA
ATOM     24  C   UNL     1      -1.601  11.779  17.894  0.00  0.00    +0.000 C 
BRANCH  24  25
ATOM     25  O   UNL     1      -1.049  12.926  17.452  0.00  0.00    +0.000 OA
ATOM     26  H   UNL     1      -0.276  12.834  16.857  0.00  0.00    +0.000 HD
ENDBRANCH  24  25
ENDBRANCH   1  24
TORSDOF 3
ENDMDL
MODEL 7
REMARK VINA RESULT:      -7.8      1.274      1.532
REMARK  Name = 
REMARK  3 active torsions:
REMARK  status: ('A' for Active; 'I' for Inactive)
REMARK    1  A    between atoms: C_2  and  O_3
REMARK    2  A    between atoms: C_2  and  C_4
REMARK    3  A    between atoms: C_13  and  C_14
REMARK                            x       y       z     vdW  Elec       q    Type
REMARK                         _______ _______ _______ _____ _____    ______ ____
ROOT
ATOM      1  C   UNL     1      -2.420  11.338  18.628  0.00  0.00    +0.000 A 
ATOM      2  C   UNL     1      -3.342  12.297  19.079  0.00  0.00    +0.000 A 
ATOM      3  C   UNL     1      -3.228  12.833  20.360  0.00  0.00    +0.000 A 
ATOM      4 BR   UNL     1      -4.473  14.121  20.958  0.00  0.00    +0.000 Br
ATOM      5  C   UNL     1      -2.200  12.429  21.202  0.00  0.00    +0.000 A 
ATOM      6  C   UNL     1      -1.281  11.480  20.747  0.00  0.00    +0.000 A 
ATOM      7  C   UNL     1      -0.185  11.053  21.626  0.00  0.00    +0.000 A 
ATOM      8  O   UNL     1      -0.042  11.489  22.758  0.00  0.00    +0.000 OA
ATOM      9  C   UNL     1       0.760  10.078  21.070  0.00  0.00    +0.000 A 
ATOM     10  C   UNL     1       0.598   9.645  19.813  0.00  0.00    +0.000 A 
ATOM     11  O   UNL     1      -0.460  10.018  18.997  0.00  0.00    +0.000 OA
ATOM     12  C   UNL     1      -1.374  10.931  19.466  0.00  0.00    +0.000 A 
ENDROOT
BRANCH  10  13
ATOM     13  C   UNL     1       1.549   8.698  19.194  0.00  0.00    +0.000 A 
ATOM     14  C   UNL     1       2.137   8.966  17.959  0.00  0.00    +0.000 A 
ATOM     15  C   UNL     1       3.035   8.053  17.425  0.00  0.00    +0.000 A 
ATOM     16  C   UNL     1       3.312   6.876  18.120  0.00  0.00    +0.000 A 
ATOM     17  C   UNL     1       4.214   5.931  17.605  0.00  0.00    +0.000 A 
ATOM     18  C   UNL     1       4.471   4.756  18.304  0.00  0.00    +0.000 A 
ATOM     19  C   UNL     1       3.827   4.525  19.515  0.00  0.00    +0.000 A 
ATOM     20  C   UNL     1       2.932   5.474  20.024  0.00  0.00    +0.000 A 
ATOM     21  C   UNL     1       2.657   6.659  19.352  0.00  0.00    +0.000 A 
ATOM     22  N   UNL     1       1.794   7.554  19.880  0.00  0.00    +0.000 NA
ENDBRANCH  10  13
BRANCH   1  24
ATOM     23  O   UNL     1      -3.090   9.742  17.018  0.00  0.00    +0.000 OA
ATOM     24  C   UNL     1      -2.596  10.835  17.242  0.00  0.00    +0.000 C 
BRANCH  24  25
ATOM     25  O   UNL     1      -2.087  11.621  16.274  0.00  0.00    +0.000 OA
ATOM     26  H   UNL     1      -1.360  12.221  16.541  0.00  0.00    +0.000 HD
ENDBRANCH  24  25
ENDBRANCH   1  24
TORSDOF 3
ENDMDL
MODEL 8
REMARK VINA RESULT:      -7.8      1.815      2.395
REMARK  Name = 
REMARK  3 active torsions:
REMARK  status: ('A' for Active; 'I' for Inactive)
REMARK    1  A    between atoms: C_2  and  O_3
REMARK    2  A    between atoms: C_2  and  C_4
REMARK    3  A    between atoms: C_13  and  C_14
REMARK                            x       y       z     vdW  Elec       q    Type
REMARK                         _______ _______ _______ _____ _____    ______ ____
ROOT
ATOM      1  C   UNL     1       1.260  11.788  19.541  0.00  0.00    +0.000 A 
ATOM      2  C   UNL     1       0.728  12.985  20.047  0.00  0.00    +0.000 A 
ATOM      3  C   UNL     1      -0.039  12.978  21.211  0.00  0.00    +0.000 A 
ATOM      4 BR   UNL     1      -0.752  14.592  21.883  0.00  0.00    +0.000 Br
ATOM      5  C   UNL     1      -0.281  11.787  21.885  0.00  0.00    +0.000 A 
ATOM      6  C   UNL     1       0.257  10.599  21.381  0.00  0.00    +0.000 A 
ATOM      7  C   UNL     1       0.015   9.337  22.091  0.00  0.00    +0.000 A 
ATOM      8  O   UNL     1      -0.653   9.274  23.113  0.00  0.00    +0.000 OA
ATOM      9  C   UNL     1       0.636   8.135  21.524  0.00  0.00    +0.000 A 
ATOM     10  C   UNL     1       1.392   8.241  20.424  0.00  0.00    +0.000 A 
ATOM     11  O   UNL     1       1.587   9.427  19.730  0.00  0.00    +0.000 OA
ATOM     12  C   UNL     1       1.030  10.583  20.219  0.00  0.00    +0.000 A 
ENDROOT
BRANCH  10  13
ATOM     13  C   UNL     1       2.074   7.067  19.839  0.00  0.00    +0.000 A 
ATOM     14  C   UNL     1       1.937   5.798  20.398  0.00  0.00    +0.000 A 
ATOM     15  C   UNL     1       2.586   4.724  19.804  0.00  0.00    +0.000 A 
ATOM     16  C   UNL     1       3.379   4.939  18.677  0.00  0.00    +0.000 A 
ATOM     17  C   UNL     1       4.051   3.873  18.056  0.00  0.00    +0.000 A 
ATOM     18  C   UNL     1       4.849   4.106  16.940  0.00  0.00    +0.000 A 
ATOM     19  C   UNL     1       4.976   5.400  16.447  0.00  0.00    +0.000 A 
ATOM     20  C   UNL     1       4.301   6.457  17.070  0.00  0.00    +0.000 A 
ATOM     21  C   UNL     1       3.493   6.257  18.184  0.00  0.00    +0.000 A 
ATOM     22  N   UNL     1       2.851   7.301  18.752  0.00  0.00    +0.000 NA
ENDBRANCH  10  13
BRANCH   1  24
ATOM     23  O   UNL     1       2.717  12.896  18.045  0.00  0.00    +0.000 OA
ATOM     24  C   UNL     1       2.086  11.886  18.311  0.00  0.00    +0.000 C 
BRANCH  24  25
ATOM     25  O   UNL     1       2.006  10.830  17.478  0.00  0.00    +0.000 OA
ATOM     26  H   UNL     1       1.114  10.447  17.348  0.00  0.00    +0.000 HD
ENDBRANCH  24  25
ENDBRANCH   1  24
TORSDOF 3
ENDMDL
MODEL 9
REMARK VINA RESULT:      -7.8      1.991      2.284
REMARK  Name = 
REMARK  3 active torsions:
REMARK  status: ('A' for Active; 'I' for Inactive)
REMARK    1  A    between atoms: C_2  and  O_3
REMARK    2  A    between atoms: C_2  and  C_4
REMARK    3  A    between atoms: C_13  and  C_14
REMARK                            x       y       z     vdW  Elec       q    Type
REMARK                         _______ _______ _______ _____ _____    ______ ____
ROOT
ATOM      1  C   UNL     1       1.257  12.310  19.662  0.00  0.00    +0.000 A 
ATOM      2  C   UNL     1       0.794  13.556  20.117  0.00  0.00    +0.000 A 
ATOM      3  C   UNL     1      -0.015  13.635  21.250  0.00  0.00    +0.000 A 
ATOM      4 BR   UNL     1      -0.634  15.313  21.854  0.00  0.00    +0.000 Br
ATOM      5  C   UNL     1      -0.368  12.483  21.942  0.00  0.00    +0.000 A 
ATOM      6  C   UNL     1       0.101  11.246  21.489  0.00  0.00    +0.000 A 
ATOM      7  C   UNL     1      -0.259  10.024  22.219  0.00  0.00    +0.000 A 
ATOM      8  O   UNL     1      -0.967  10.036  23.215  0.00  0.00    +0.000 OA
ATOM      9  C   UNL     1       0.295   8.766  21.705  0.00  0.00    +0.000 A 
ATOM     10  C   UNL     1       1.097   8.788  20.634  0.00  0.00    +0.000 A 
ATOM     11  O   UNL     1       1.404   9.938  19.920  0.00  0.00    +0.000 OA
ATOM     12  C   UNL     1       0.915  11.144  20.358  0.00  0.00    +0.000 A 
ENDROOT
BRANCH  10  13
ATOM     13  C   UNL     1       1.715   7.553  20.105  0.00  0.00    +0.000 A 
ATOM     14  C   UNL     1       2.390   7.547  18.886  0.00  0.00    +0.000 A 
ATOM     15  C   UNL     1       2.967   6.366  18.439  0.00  0.00    +0.000 A 
ATOM     16  C   UNL     1       2.839   5.207  19.204  0.00  0.00    +0.000 A 
ATOM     17  C   UNL     1       3.409   3.996  18.777  0.00  0.00    +0.000 A 
ATOM     18  C   UNL     1       3.262   2.846  19.545  0.00  0.00    +0.000 A 
ATOM     19  C   UNL     1       2.547   2.904  20.736  0.00  0.00    +0.000 A 
ATOM     20  C   UNL     1       1.985   4.116  21.157  0.00  0.00    +0.000 A 
ATOM     21  C   UNL     1       2.117   5.284  20.415  0.00  0.00    +0.000 A 
ATOM     22  N   UNL     1       1.567   6.435  20.859  0.00  0.00    +0.000 NA
ENDBRANCH  10  13
BRANCH   1  24
ATOM     23  O   UNL     1       2.862  13.262  18.210  0.00  0.00    +0.000 OA
ATOM     24  C   UNL     1       2.133  12.316  18.463  0.00  0.00    +0.000 C 
BRANCH  24  25
ATOM     25  O   UNL     1       1.990  11.260  17.640  0.00  0.00    +0.000 OA
ATOM     26  H   UNL     1       1.331  11.356  16.922  0.00  0.00    +0.000 HD
ENDBRANCH  24  25
ENDBRANCH   1  24
TORSDOF 3
ENDMDL
