MODEL 1
REMARK VINA RESULT:      -8.0      0.000      0.000
REMARK  Name = 
REMARK  7 active torsions:
REMARK  status: ('A' for Active; 'I' for Inactive)
REMARK    1  A    between atoms: C_1  and  C_2
REMARK    2  A    between atoms: C_2  and  C_3
REMARK    3  A    between atoms: C_3  and  C_4
REMARK    4  A    between atoms: C_4  and  C_5
REMARK    5  A    between atoms: N_9  and  C_10
REMARK    6  A    between atoms: C_14  and  N_15
REMARK    7  A    between atoms: N_15  and  C_16
REMARK                            x       y       z     vdW  Elec       q    Type
REMARK                         _______ _______ _______ _____ _____    ______ ____
ROOT
ATOM      1  C   UNL     1       4.979   4.866  18.030  0.00  0.00    +0.000 C 
ATOM      2  O   UNL     1       5.341   3.703  18.804  0.00  0.00    +0.000 OA
ATOM      3  C   UNL     1       4.506   3.076  19.659  0.00  0.00    +0.000 C 
ATOM      4  O   UNL     1       4.754   1.922  19.999  0.00  0.00    +0.000 OA
ATOM      5  N   UNL     1       3.444   3.810  20.171  0.00  0.00    +0.000 N 
ATOM      6  C   UNL     1       2.728   3.247  21.306  0.00  0.00    +0.000 C 
ATOM      7  C   UNL     1       3.099   5.094  19.687  0.00  0.00    +0.000 A 
ATOM      8  C   UNL     1       2.046   5.834  20.244  0.00  0.00    +0.000 A 
ATOM      9  C   UNL     1       1.721   7.101  19.761  0.00  0.00    +0.000 A 
ATOM     10  C   UNL     1       2.432   7.661  18.703  0.00  0.00    +0.000 A 
ATOM     11  C   UNL     1       3.439   6.898  18.105  0.00  0.00    +0.000 A 
ATOM     12  C   UNL     1       3.809   5.631  18.613  0.00  0.00    +0.000 A 
ENDROOT
BRANCH   1  14
ATOM     13  C   UNL     1       5.623   4.657  15.525  0.00  0.00    +0.000 C 
ATOM     14  C   UNL     1       4.601   4.340  16.617  0.00  0.00    +0.000 C 
ENDBRANCH   1  14
BRANCH   1  15
ATOM     15  C   UNL     1       6.266   5.738  17.977  0.00  0.00    +0.000 C 
ATOM     16  C   UNL     1       7.141   5.637  19.229  0.00  0.00    +0.000 C 
ENDBRANCH   1  15
BRANCH  10  17
ATOM     17  N   UNL     1       2.152   8.948  18.211  0.00  0.00    +0.000 N 
ATOM     18  H   UNL     1       2.595   9.127  17.314  0.00  0.00    +0.000 HD
BRANCH  17  19
ATOM     19  C   UNL     1       1.013   9.737  18.478  0.00  0.00    +0.000 A 
ATOM     20  C   UNL     1       1.036  10.678  19.512  0.00  0.00    +0.000 A 
ATOM     21  C   UNL     1      -0.106  11.427  19.823  0.00  0.00    +0.000 A 
ATOM     22  C   UNL     1      -1.292  11.232  19.111  0.00  0.00    +0.000 A 
ATOM     23 CL   UNL     1      -2.671  12.167  19.567  0.00  0.00    +0.000 Cl
ATOM     24  C   UNL     1      -1.330  10.295  18.077  0.00  0.00    +0.000 A 
ATOM     25 CL   UNL     1      -2.756   9.992  17.149  0.00  0.00    +0.000 Cl
ATOM     26  C   UNL     1      -0.184   9.554  17.769  0.00  0.00    +0.000 A 
ENDBRANCH  17  19
ENDBRANCH  10  17
TORSDOF 4
ENDMDL
MODEL 2
REMARK VINA RESULT:      -7.9      0.731      1.507
REMARK  Name = 
REMARK  7 active torsions:
REMARK  status: ('A' for Active; 'I' for Inactive)
REMARK    1  A    between atoms: C_1  and  C_2
REMARK    2  A    between atoms: C_2  and  C_3
REMARK    3  A    between atoms: C_3  and  C_4
REMARK    4  A    between atoms: C_4  and  C_5
REMARK    5  A    between atoms: N_9  and  C_10
REMARK    6  A    between atoms: C_14  and  N_15
REMARK    7  A    between atoms: N_15  and  C_16
REMARK                            x       y       z     vdW  Elec       q    Type
REMARK                         _______ _______ _______ _____ _____    ______ ____
ROOT
ATOM      1  C   UNL     1       4.944   4.891  18.146  0.00  0.00    +0.000 C 
ATOM      2  O   UNL     1       5.330   3.700  18.863  0.00  0.00    +0.000 OA
ATOM      3  C   UNL     1       4.508   3.016  19.687  0.00  0.00    +0.000 C 
ATOM      4  O   UNL     1       4.779   1.852  19.970  0.00  0.00    +0.000 OA
ATOM      5  N   UNL     1       3.434   3.704  20.235  0.00  0.00    +0.000 N 
ATOM      6  C   UNL     1       2.730   3.073  21.341  0.00  0.00    +0.000 C 
ATOM      7  C   UNL     1       3.063   5.003  19.814  0.00  0.00    +0.000 A 
ATOM      8  C   UNL     1       1.997   5.695  20.408  0.00  0.00    +0.000 A 
ATOM      9  C   UNL     1       1.647   6.977  19.987  0.00  0.00    +0.000 A 
ATOM     10  C   UNL     1       2.346   7.602  18.958  0.00  0.00    +0.000 A 
ATOM     11  C   UNL     1       3.366   6.888  18.322  0.00  0.00    +0.000 A 
ATOM     12  C   UNL     1       3.761   5.605  18.767  0.00  0.00    +0.000 A 
ENDROOT
BRANCH   1  14
ATOM     13  C   UNL     1       5.470   4.993  15.608  0.00  0.00    +0.000 C 
ATOM     14  C   UNL     1       4.574   4.428  16.710  0.00  0.00    +0.000 C 
ENDBRANCH   1  14
BRANCH   1  15
ATOM     15  C   UNL     1       6.214   5.789  18.135  0.00  0.00    +0.000 C 
ATOM     16  C   UNL     1       7.154   5.557  19.320  0.00  0.00    +0.000 C 
ENDBRANCH   1  15
BRANCH  10  17
ATOM     17  N   UNL     1       2.040   8.905  18.529  0.00  0.00    +0.000 N 
ATOM     18  H   UNL     1       2.465   9.131  17.634  0.00  0.00    +0.000 HD
BRANCH  17  19
ATOM     19  C   UNL     1       0.896   9.666  18.851  0.00  0.00    +0.000 A 
ATOM     20  C   UNL     1      -0.190   9.710  17.971  0.00  0.00    +0.000 A 
ATOM     21  C   UNL     1      -1.307  10.506  18.252  0.00  0.00    +0.000 A 
ATOM     22  C   UNL     1      -1.346  11.281  19.414  0.00  0.00    +0.000 A 
ATOM     23 CL   UNL     1      -2.741  12.263  19.685  0.00  0.00    +0.000 Cl
ATOM     24  C   UNL     1      -0.269  11.247  20.302  0.00  0.00    +0.000 A 
ATOM     25 CL   UNL     1      -0.236  12.176  21.759  0.00  0.00    +0.000 Cl
ATOM     26  C   UNL     1       0.843  10.446  20.016  0.00  0.00    +0.000 A 
ENDBRANCH  17  19
ENDBRANCH  10  17
TORSDOF 4
ENDMDL
MODEL 3
REMARK VINA RESULT:      -7.7      1.519      1.914
REMARK  Name = 
REMARK  7 active torsions:
REMARK  status: ('A' for Active; 'I' for Inactive)
REMARK    1  A    between atoms: C_1  and  C_2
REMARK    2  A    between atoms: C_2  and  C_3
REMARK    3  A    between atoms: C_3  and  C_4
REMARK    4  A    between atoms: C_4  and  C_5
REMARK    5  A    between atoms: N_9  and  C_10
REMARK    6  A    between atoms: C_14  and  N_15
REMARK    7  A    between atoms: N_15  and  C_16
REMARK                            x       y       z     vdW  Elec       q    Type
REMARK                         _______ _______ _______ _____ _____    ______ ____
ROOT
ATOM      1  C   UNL     1       4.989   4.654  18.837  0.00  0.00    +0.000 C 
ATOM      2  O   UNL     1       5.398   3.389  19.400  0.00  0.00    +0.000 OA
ATOM      3  C   UNL     1       4.559   2.535  20.024  0.00  0.00    +0.000 C 
ATOM      4  O   UNL     1       4.891   1.359  20.152  0.00  0.00    +0.000 OA
ATOM      5  N   UNL     1       3.391   3.061  20.559  0.00  0.00    +0.000 N 
ATOM      6  C   UNL     1       2.641   2.221  21.480  0.00  0.00    +0.000 C 
ATOM      7  C   UNL     1       2.963   4.386  20.305  0.00  0.00    +0.000 A 
ATOM      8  C   UNL     1       1.799   4.909  20.887  0.00  0.00    +0.000 A 
ATOM      9  C   UNL     1       1.393   6.219  20.633  0.00  0.00    +0.000 A 
ATOM     10  C   UNL     1       2.132   7.039  19.785  0.00  0.00    +0.000 A 
ATOM     11  C   UNL     1       3.256   6.498  19.154  0.00  0.00    +0.000 A 
ATOM     12  C   UNL     1       3.705   5.187  19.437  0.00  0.00    +0.000 A 
ENDROOT
BRANCH   1  14
ATOM     13  C   UNL     1       3.488   3.678  16.960  0.00  0.00    +0.000 C 
ATOM     14  C   UNL     1       4.786   4.402  17.318  0.00  0.00    +0.000 C 
ENDBRANCH   1  14
BRANCH   1  15
ATOM     15  C   UNL     1       6.185   5.617  19.091  0.00  0.00    +0.000 C 
ATOM     16  C   UNL     1       7.390   5.370  18.181  0.00  0.00    +0.000 C 
ENDBRANCH   1  15
BRANCH  10  17
ATOM     17  N   UNL     1       1.769   8.373  19.531  0.00  0.00    +0.000 N 
ATOM     18  H   UNL     1       1.731   8.584  18.538  0.00  0.00    +0.000 HD
BRANCH  17  19
ATOM     19  C   UNL     1       0.986   9.217  20.346  0.00  0.00    +0.000 A 
ATOM     20  C   UNL     1       1.039   9.097  21.739  0.00  0.00    +0.000 A 
ATOM     21  C   UNL     1       0.225   9.890  22.557  0.00  0.00    +0.000 A 
ATOM     22  C   UNL     1      -0.666  10.806  21.990  0.00  0.00    +0.000 A 
ATOM     23 CL   UNL     1      -1.662  11.730  23.056  0.00  0.00    +0.000 Cl
ATOM     24  C   UNL     1      -0.730  10.936  20.602  0.00  0.00    +0.000 A 
ATOM     25 CL   UNL     1      -1.804  12.042  19.821  0.00  0.00    +0.000 Cl
ATOM     26  C   UNL     1       0.090  10.143  19.791  0.00  0.00    +0.000 A 
ENDBRANCH  17  19
ENDBRANCH  10  17
TORSDOF 4
ENDMDL
MODEL 4
REMARK VINA RESULT:      -7.6      4.497      7.946
REMARK  Name = 
REMARK  7 active torsions:
REMARK  status: ('A' for Active; 'I' for Inactive)
REMARK    1  A    between atoms: C_1  and  C_2
REMARK    2  A    between atoms: C_2  and  C_3
REMARK    3  A    between atoms: C_3  and  C_4
REMARK    4  A    between atoms: C_4  and  C_5
REMARK    5  A    between atoms: N_9  and  C_10
REMARK    6  A    between atoms: C_14  and  N_15
REMARK    7  A    between atoms: N_15  and  C_16
REMARK                            x       y       z     vdW  Elec       q    Type
REMARK                         _______ _______ _______ _____ _____    ______ ____
ROOT
ATOM      1  C   UNL     1      -0.348  11.004  19.043  0.00  0.00    +0.000 C 
ATOM      2  O   UNL     1      -1.260  11.519  20.036  0.00  0.00    +0.000 OA
ATOM      3  C   UNL     1      -1.108  11.341  21.365  0.00  0.00    +0.000 C 
ATOM      4  O   UNL     1      -1.701  12.087  22.140  0.00  0.00    +0.000 OA
ATOM      5  N   UNL     1      -0.341  10.261  21.783  0.00  0.00    +0.000 N 
ATOM      6  C   UNL     1      -0.419   9.890  23.187  0.00  0.00    +0.000 C 
ATOM      7  C   UNL     1       0.432   9.482  20.890  0.00  0.00    +0.000 A 
ATOM      8  C   UNL     1       1.169   8.372  21.328  0.00  0.00    +0.000 A 
ATOM      9  C   UNL     1       1.921   7.608  20.435  0.00  0.00    +0.000 A 
ATOM     10  C   UNL     1       1.964   7.936  19.083  0.00  0.00    +0.000 A 
ATOM     11  C   UNL     1       1.282   9.079  18.657  0.00  0.00    +0.000 A 
ATOM     12  C   UNL     1       0.480   9.837  19.542  0.00  0.00    +0.000 A 
ENDROOT
BRANCH   1  14
ATOM     13  C   UNL     1      -0.101  13.541  18.565  0.00  0.00    +0.000 C 
ATOM     14  C   UNL     1       0.592  12.183  18.670  0.00  0.00    +0.000 C 
ENDBRANCH   1  14
BRANCH   1  15
ATOM     15  C   UNL     1      -1.244  10.598  17.838  0.00  0.00    +0.000 C 
ATOM     16  C   UNL     1      -2.743  10.596  18.146  0.00  0.00    +0.000 C 
ENDBRANCH   1  15
BRANCH  10  17
ATOM     17  N   UNL     1       2.686   7.171  18.151  0.00  0.00    +0.000 N 
ATOM     18  H   UNL     1       3.401   7.713  17.673  0.00  0.00    +0.000 HD
BRANCH  17  19
ATOM     19  C   UNL     1       2.918   5.780  18.181  0.00  0.00    +0.000 A 
ATOM     20  C   UNL     1       4.185   5.270  17.878  0.00  0.00    +0.000 A 
ATOM     21  C   UNL     1       4.413   3.889  17.850  0.00  0.00    +0.000 A 
ATOM     22  C   UNL     1       3.369   2.997  18.110  0.00  0.00    +0.000 A 
ATOM     23 CL   UNL     1       3.713   1.306  18.028  0.00  0.00    +0.000 Cl
ATOM     24  C   UNL     1       2.099   3.491  18.413  0.00  0.00    +0.000 A 
ATOM     25 CL   UNL     1       0.755   2.457  18.745  0.00  0.00    +0.000 Cl
ATOM     26  C   UNL     1       1.880   4.873  18.444  0.00  0.00    +0.000 A 
ENDBRANCH  17  19
ENDBRANCH  10  17
TORSDOF 4
ENDMDL
MODEL 5
REMARK VINA RESULT:      -7.6      1.413      1.958
REMARK  Name = 
REMARK  7 active torsions:
REMARK  status: ('A' for Active; 'I' for Inactive)
REMARK    1  A    between atoms: C_1  and  C_2
REMARK    2  A    between atoms: C_2  and  C_3
REMARK    3  A    between atoms: C_3  and  C_4
REMARK    4  A    between atoms: C_4  and  C_5
REMARK    5  A    between atoms: N_9  and  C_10
REMARK    6  A    between atoms: C_14  and  N_15
REMARK    7  A    between atoms: N_15  and  C_16
REMARK                            x       y       z     vdW  Elec       q    Type
REMARK                         _______ _______ _______ _____ _____    ______ ____
ROOT
ATOM      1  C   UNL     1       5.065   4.587  18.658  0.00  0.00    +0.000 C 
ATOM      2  O   UNL     1       5.432   3.368  19.337  0.00  0.00    +0.000 OA
ATOM      3  C   UNL     1       4.567   2.607  20.042  0.00  0.00    +0.000 C 
ATOM      4  O   UNL     1       4.858   1.438  20.281  0.00  0.00    +0.000 OA
ATOM      5  N   UNL     1       3.421   3.223  20.527  0.00  0.00    +0.000 N 
ATOM      6  C   UNL     1       2.647   2.502  21.526  0.00  0.00    +0.000 C 
ATOM      7  C   UNL     1       3.039   4.532  20.149  0.00  0.00    +0.000 A 
ATOM      8  C   UNL     1       1.897   5.150  20.682  0.00  0.00    +0.000 A 
ATOM      9  C   UNL     1       1.536   6.443  20.305  0.00  0.00    +0.000 A 
ATOM     10  C   UNL     1       2.299   7.152  19.382  0.00  0.00    +0.000 A 
ATOM     11  C   UNL     1       3.399   6.514  18.803  0.00  0.00    +0.000 A 
ATOM     12  C   UNL     1       3.803   5.220  19.207  0.00  0.00    +0.000 A 
ENDROOT
BRANCH   1  14
ATOM     13  C   UNL     1       3.489   3.558  16.873  0.00  0.00    +0.000 C 
ATOM     14  C   UNL     1       4.844   4.200  17.170  0.00  0.00    +0.000 C 
ENDBRANCH   1  14
BRANCH   1  15
ATOM     15  C   UNL     1       6.295   5.527  18.816  0.00  0.00    +0.000 C 
ATOM     16  C   UNL     1       6.878   6.021  17.491  0.00  0.00    +0.000 C 
ENDBRANCH   1  15
BRANCH  10  17
ATOM     17  N   UNL     1       1.981   8.468  19.003  0.00  0.00    +0.000 N 
ATOM     18  H   UNL     1       2.184   8.652  18.024  0.00  0.00    +0.000 HD
BRANCH  17  19
ATOM     19  C   UNL     1       1.004   9.311  19.574  0.00  0.00    +0.000 A 
ATOM     20  C   UNL     1       0.316  10.231  18.776  0.00  0.00    +0.000 A 
ATOM     21  C   UNL     1      -0.615  11.112  19.340  0.00  0.00    +0.000 A 
ATOM     22  C   UNL     1      -0.859  11.093  20.716  0.00  0.00    +0.000 A 
ATOM     23 CL   UNL     1      -1.997  12.227  21.350  0.00  0.00    +0.000 Cl
ATOM     24  C   UNL     1      -0.179  10.181  21.524  0.00  0.00    +0.000 A 
ATOM     25 CL   UNL     1      -0.420  10.094  23.234  0.00  0.00    +0.000 Cl
ATOM     26  C   UNL     1       0.747   9.301  20.953  0.00  0.00    +0.000 A 
ENDBRANCH  17  19
ENDBRANCH  10  17
TORSDOF 4
ENDMDL
MODEL 6
REMARK VINA RESULT:      -7.6      1.214      1.711
REMARK  Name = 
REMARK  7 active torsions:
REMARK  status: ('A' for Active; 'I' for Inactive)
REMARK    1  A    between atoms: C_1  and  C_2
REMARK    2  A    between atoms: C_2  and  C_3
REMARK    3  A    between atoms: C_3  and  C_4
REMARK    4  A    between atoms: C_4  and  C_5
REMARK    5  A    between atoms: N_9  and  C_10
REMARK    6  A    between atoms: C_14  and  N_15
REMARK    7  A    between atoms: N_15  and  C_16
REMARK                            x       y       z     vdW  Elec       q    Type
REMARK                         _______ _______ _______ _____ _____    ______ ____
ROOT
ATOM      1  C   UNL     1       5.133   4.759  17.901  0.00  0.00    +0.000 C 
ATOM      2  O   UNL     1       5.433   3.647  18.771  0.00  0.00    +0.000 OA
ATOM      3  C   UNL     1       4.552   3.114  19.644  0.00  0.00    +0.000 C 
ATOM      4  O   UNL     1       4.751   1.981  20.077  0.00  0.00    +0.000 OA
ATOM      5  N   UNL     1       3.502   3.919  20.067  0.00  0.00    +0.000 N 
ATOM      6  C   UNL     1       2.735   3.466  21.217  0.00  0.00    +0.000 C 
ATOM      7  C   UNL     1       3.216   5.172  19.478  0.00  0.00    +0.000 A 
ATOM      8  C   UNL     1       2.173   5.986  19.946  0.00  0.00    +0.000 A 
ATOM      9  C   UNL     1       1.906   7.223  19.360  0.00  0.00    +0.000 A 
ATOM     10  C   UNL     1       2.667   7.678  18.286  0.00  0.00    +0.000 A 
ATOM     11  C   UNL     1       3.663   6.840  17.777  0.00  0.00    +0.000 A 
ATOM     12  C   UNL     1       3.974   5.603  18.389  0.00  0.00    +0.000 A 
ENDROOT
BRANCH   1  14
ATOM     13  C   UNL     1       5.603   4.679  15.351  0.00  0.00    +0.000 C 
ATOM     14  C   UNL     1       4.778   4.141  16.521  0.00  0.00    +0.000 C 
ENDBRANCH   1  14
BRANCH   1  15
ATOM     15  C   UNL     1       6.451   5.583  17.824  0.00  0.00    +0.000 C 
ATOM     16  C   UNL     1       7.198   5.694  19.155  0.00  0.00    +0.000 C 
ENDBRANCH   1  15
BRANCH  10  17
ATOM     17  N   UNL     1       2.445   8.933  17.691  0.00  0.00    +0.000 N 
ATOM     18  H   UNL     1       2.600   8.920  16.686  0.00  0.00    +0.000 HD
BRANCH  17  19
ATOM     19  C   UNL     1       1.587   9.956  18.146  0.00  0.00    +0.000 A 
ATOM     20  C   UNL     1       0.204   9.749  18.187  0.00  0.00    +0.000 A 
ATOM     21  C   UNL     1      -0.661  10.776  18.583  0.00  0.00    +0.000 A 
ATOM     22  C   UNL     1      -0.154  12.031  18.929  0.00  0.00    +0.000 A 
ATOM     23 CL   UNL     1      -1.280  13.261  19.379  0.00  0.00    +0.000 Cl
ATOM     24  C   UNL     1       1.223  12.253  18.892  0.00  0.00    +0.000 A 
ATOM     25 CL   UNL     1       1.932  13.775  19.302  0.00  0.00    +0.000 Cl
ATOM     26  C   UNL     1       2.083  11.220  18.500  0.00  0.00    +0.000 A 
ENDBRANCH  17  19
ENDBRANCH  10  17
TORSDOF 4
ENDMDL
MODEL 7
REMARK VINA RESULT:      -7.5      1.448      3.202
REMARK  Name = 
REMARK  7 active torsions:
REMARK  status: ('A' for Active; 'I' for Inactive)
REMARK    1  A    between atoms: C_1  and  C_2
REMARK    2  A    between atoms: C_2  and  C_3
REMARK    3  A    between atoms: C_3  and  C_4
REMARK    4  A    between atoms: C_4  and  C_5
REMARK    5  A    between atoms: N_9  and  C_10
REMARK    6  A    between atoms: C_14  and  N_15
REMARK    7  A    between atoms: N_15  and  C_16
REMARK                            x       y       z     vdW  Elec       q    Type
REMARK                         _______ _______ _______ _____ _____    ______ ____
ROOT
ATOM      1  C   UNL     1       2.265   4.294  19.438  0.00  0.00    +0.000 C 
ATOM      2  O   UNL     1       3.215   3.208  19.416  0.00  0.00    +0.000 OA
ATOM      3  C   UNL     1       4.549   3.376  19.284  0.00  0.00    +0.000 C 
ATOM      4  O   UNL     1       5.302   2.467  19.625  0.00  0.00    +0.000 OA
ATOM      5  N   UNL     1       4.990   4.550  18.689  0.00  0.00    +0.000 N 
ATOM      6  C   UNL     1       6.383   4.606  18.273  0.00  0.00    +0.000 C 
ATOM      7  C   UNL     1       4.128   5.636  18.409  0.00  0.00    +0.000 A 
ATOM      8  C   UNL     1       4.588   6.799  17.772  0.00  0.00    +0.000 A 
ATOM      9  C   UNL     1       3.724   7.858  17.496  0.00  0.00    +0.000 A 
ATOM     10  C   UNL     1       2.381   7.791  17.854  0.00  0.00    +0.000 A 
ATOM     11  C   UNL     1       1.936   6.660  18.546  0.00  0.00    +0.000 A 
ATOM     12  C   UNL     1       2.789   5.560  18.793  0.00  0.00    +0.000 A 
ENDROOT
BRANCH   1  14
ATOM     13  C   UNL     1       2.076   3.340  21.844  0.00  0.00    +0.000 C 
ATOM     14  C   UNL     1       1.957   4.565  20.937  0.00  0.00    +0.000 C 
ENDBRANCH   1  14
BRANCH   1  15
ATOM     15  C   UNL     1       1.009   3.750  18.699  0.00  0.00    +0.000 C 
ATOM     16  C   UNL     1       0.908   2.223  18.678  0.00  0.00    +0.000 C 
ENDBRANCH   1  15
BRANCH  10  17
ATOM     17  N   UNL     1       1.476   8.828  17.564  0.00  0.00    +0.000 N 
ATOM     18  H   UNL     1       1.034   8.716  16.656  0.00  0.00    +0.000 HD
BRANCH  17  19
ATOM     19  C   UNL     1       0.751   9.613  18.484  0.00  0.00    +0.000 A 
ATOM     20  C   UNL     1       1.220   9.778  19.792  0.00  0.00    +0.000 A 
ATOM     21  C   UNL     1       0.480  10.509  20.730  0.00  0.00    +0.000 A 
ATOM     22  C   UNL     1      -0.748  11.071  20.375  0.00  0.00    +0.000 A 
ATOM     23 CL   UNL     1      -1.623  11.933  21.590  0.00  0.00    +0.000 Cl
ATOM     24  C   UNL     1      -1.229  10.914  19.074  0.00  0.00    +0.000 A 
ATOM     25 CL   UNL     1      -2.739  11.576  18.555  0.00  0.00    +0.000 Cl
ATOM     26  C   UNL     1      -0.483  10.187  18.140  0.00  0.00    +0.000 A 
ENDBRANCH  17  19
ENDBRANCH  10  17
TORSDOF 4
ENDMDL
MODEL 8
REMARK VINA RESULT:      -7.5      4.818      8.307
REMARK  Name = 
REMARK  7 active torsions:
REMARK  status: ('A' for Active; 'I' for Inactive)
REMARK    1  A    between atoms: C_1  and  C_2
REMARK    2  A    between atoms: C_2  and  C_3
REMARK    3  A    between atoms: C_3  and  C_4
REMARK    4  A    between atoms: C_4  and  C_5
REMARK    5  A    between atoms: N_9  and  C_10
REMARK    6  A    between atoms: C_14  and  N_15
REMARK    7  A    between atoms: N_15  and  C_16
REMARK                            x       y       z     vdW  Elec       q    Type
REMARK                         _______ _______ _______ _____ _____    ______ ____
ROOT
ATOM      1  C   UNL     1      -0.977  11.251  19.212  0.00  0.00    +0.000 C 
ATOM      2  O   UNL     1      -2.157  12.059  19.409  0.00  0.00    +0.000 OA
ATOM      3  C   UNL     1      -2.525  12.579  20.599  0.00  0.00    +0.000 C 
ATOM      4  O   UNL     1      -3.312  13.521  20.622  0.00  0.00    +0.000 OA
ATOM      5  N   UNL     1      -2.046  11.956  21.745  0.00  0.00    +0.000 N 
ATOM      6  C   UNL     1      -2.668  12.315  23.010  0.00  0.00    +0.000 C 
ATOM      7  C   UNL     1      -1.051  10.951  21.709  0.00  0.00    +0.000 A 
ATOM      8  C   UNL     1      -0.609  10.309  22.876  0.00  0.00    +0.000 A 
ATOM      9  C   UNL     1       0.367   9.314  22.825  0.00  0.00    +0.000 A 
ATOM     10  C   UNL     1       0.934   8.938  21.610  0.00  0.00    +0.000 A 
ATOM     11  C   UNL     1       0.542   9.622  20.456  0.00  0.00    +0.000 A 
ATOM     12  C   UNL     1      -0.479  10.602  20.486  0.00  0.00    +0.000 A 
ENDROOT
BRANCH   1  14
ATOM     13  C   UNL     1      -0.405  13.581  18.227  0.00  0.00    +0.000 C 
ATOM     14  C   UNL     1       0.113  12.209  18.658  0.00  0.00    +0.000 C 
ENDBRANCH   1  14
BRANCH   1  15
ATOM     15  C   UNL     1      -1.384  10.190  18.148  0.00  0.00    +0.000 C 
ATOM     16  C   UNL     1      -2.785  10.393  17.567  0.00  0.00    +0.000 C 
ENDBRANCH   1  15
BRANCH  10  17
ATOM     17  N   UNL     1       1.898   7.919  21.519  0.00  0.00    +0.000 N 
ATOM     18  H   UNL     1       2.301   7.682  22.421  0.00  0.00    +0.000 HD
BRANCH  17  19
ATOM     19  C   UNL     1       1.974   6.898  20.549  0.00  0.00    +0.000 A 
ATOM     20  C   UNL     1       2.441   7.183  19.261  0.00  0.00    +0.000 A 
ATOM     21  C   UNL     1       2.468   6.191  18.274  0.00  0.00    +0.000 A 
ATOM     22  C   UNL     1       2.014   4.901  18.559  0.00  0.00    +0.000 A 
ATOM     23 CL   UNL     1       2.046   3.734  17.286  0.00  0.00    +0.000 Cl
ATOM     24  C   UNL     1       1.544   4.601  19.838  0.00  0.00    +0.000 A 
ATOM     25 CL   UNL     1       0.963   3.033  20.272  0.00  0.00    +0.000 Cl
ATOM     26  C   UNL     1       1.524   5.597  20.822  0.00  0.00    +0.000 A 
ENDBRANCH  17  19
ENDBRANCH  10  17
TORSDOF 4
ENDMDL
MODEL 9
REMARK VINA RESULT:      -7.5      4.757      8.191
REMARK  Name = 
REMARK  7 active torsions:
REMARK  status: ('A' for Active; 'I' for Inactive)
REMARK    1  A    between atoms: C_1  and  C_2
REMARK    2  A    between atoms: C_2  and  C_3
REMARK    3  A    between atoms: C_3  and  C_4
REMARK    4  A    between atoms: C_4  and  C_5
REMARK    5  A    between atoms: N_9  and  C_10
REMARK    6  A    between atoms: C_14  and  N_15
REMARK    7  A    between atoms: N_15  and  C_16
REMARK                            x       y       z     vdW  Elec       q    Type
REMARK                         _______ _______ _______ _____ _____    ______ ____
ROOT
ATOM      1  C   UNL     1      -0.757  11.136  19.071  0.00  0.00    +0.000 C 
ATOM      2  O   UNL     1      -1.878  11.895  19.571  0.00  0.00    +0.000 OA
ATOM      3  C   UNL     1      -2.046  12.226  20.869  0.00  0.00    +0.000 C 
ATOM      4  O   UNL     1      -2.805  13.148  21.157  0.00  0.00    +0.000 OA
ATOM      5  N   UNL     1      -1.402  11.443  21.818  0.00  0.00    +0.000 N 
ATOM      6  C   UNL     1      -1.813  11.602  23.205  0.00  0.00    +0.000 C 
ATOM      7  C   UNL     1      -0.441  10.463  21.476  0.00  0.00    +0.000 A 
ATOM      8  C   UNL     1       0.169   9.657  22.448  0.00  0.00    +0.000 A 
ATOM      9  C   UNL     1       1.110   8.690  22.095  0.00  0.00    +0.000 A 
ATOM     10  C   UNL     1       1.474   8.506  20.764  0.00  0.00    +0.000 A 
ATOM     11  C   UNL     1       0.915   9.352  19.802  0.00  0.00    +0.000 A 
ATOM     12  C   UNL     1      -0.073  10.307  20.139  0.00  0.00    +0.000 A 
ENDROOT
BRANCH   1  14
ATOM     13  C   UNL     1      -0.321  13.585  18.337  0.00  0.00    +0.000 C 
ATOM     14  C   UNL     1       0.247  12.176  18.503  0.00  0.00    +0.000 C 
ENDBRANCH   1  14
BRANCH   1  15
ATOM     15  C   UNL     1      -1.341  10.244  17.938  0.00  0.00    +0.000 C 
ATOM     16  C   UNL     1      -2.837  10.450  17.690  0.00  0.00    +0.000 C 
ENDBRANCH   1  15
BRANCH  10  17
ATOM     17  N   UNL     1       2.396   7.521  20.370  0.00  0.00    +0.000 N 
ATOM     18  H   UNL     1       3.306   7.643  20.804  0.00  0.00    +0.000 HD
BRANCH  17  19
ATOM     19  C   UNL     1       2.114   6.205  19.946  0.00  0.00    +0.000 A 
ATOM     20  C   UNL     1       1.303   5.373  20.725  0.00  0.00    +0.000 A 
ATOM     21  C   UNL     1       1.061   4.048  20.343  0.00  0.00    +0.000 A 
ATOM     22  C   UNL     1       1.642   3.533  19.181  0.00  0.00    +0.000 A 
ATOM     23 CL   UNL     1       1.327   1.881  18.785  0.00  0.00    +0.000 Cl
ATOM     24  C   UNL     1       2.454   4.351  18.394  0.00  0.00    +0.000 A 
ATOM     25 CL   UNL     1       3.211   3.792  16.945  0.00  0.00    +0.000 Cl
ATOM     26  C   UNL     1       2.687   5.676  18.780  0.00  0.00    +0.000 A 
ENDBRANCH  17  19
ENDBRANCH  10  17
TORSDOF 4
ENDMDL
