MODEL 1
REMARK VINA RESULT:      -9.3      0.000      0.000
REMARK  Name = 
REMARK  4 active torsions:
REMARK  status: ('A' for Active; 'I' for Inactive)
REMARK    1  A    between atoms: N_6  and  C_7
REMARK    2  A    between atoms: C_7  and  C_8
REMARK    3  A    between atoms: C_14  and  S_15
REMARK    4  A    between atoms: S_15  and  C_18
REMARK                            x       y       z     vdW  Elec       q    Type
REMARK                         _______ _______ _______ _____ _____    ______ ____
ROOT
ATOM      1  C   UNL     1       1.824   4.988  19.450  0.00  0.00    +0.000 C 
ATOM      2  C   UNL     1       1.418   3.514  19.665  0.00  0.00    +0.000 C 
ATOM      3  C   UNL     1       2.534   2.726  20.340  0.00  0.00    +0.000 C 
ATOM      4  C   UNL     1       3.726   2.634  19.398  0.00  0.00    +0.000 C 
ATOM      5  C   UNL     1       4.104   3.971  18.808  0.00  0.00    +0.000 A 
ATOM      6  C   UNL     1       5.325   4.046  18.111  0.00  0.00    +0.000 A 
ATOM      7  C   UNL     1       5.706   5.227  17.478  0.00  0.00    +0.000 A 
ATOM      8  C   UNL     1       4.876   6.347  17.533  0.00  0.00    +0.000 A 
ATOM      9  C   UNL     1       3.654   6.277  18.224  0.00  0.00    +0.000 A 
ATOM     10  C   UNL     1       3.236   5.086  18.849  0.00  0.00    +0.000 A 
ENDROOT
BRANCH   7  11
ATOM     11  S   UNL     1       7.178   5.233  16.471  0.00  0.00    +0.000 S 
ATOM     12  O   UNL     1       7.592   6.619  16.322  0.00  0.00    +0.000 OA
ATOM     13  O   UNL     1       8.096   4.261  17.035  0.00  0.00    +0.000 OA
BRANCH  11  14
ATOM     14  C   UNL     1       6.727   4.651  14.851  0.00  0.00    +0.000 A 
ATOM     15  C   UNL     1       5.575   3.870  14.686  0.00  0.00    +0.000 A 
ATOM     16  C   UNL     1       5.206   3.442  13.408  0.00  0.00    +0.000 A 
ATOM     17  C   UNL     1       5.975   3.808  12.304  0.00  0.00    +0.000 A 
ATOM     18  C   UNL     1       7.098   4.613  12.482  0.00  0.00    +0.000 A 
ATOM     19  F   UNL     1       7.819   4.978  11.414  0.00  0.00    +0.000 F 
ATOM     20  C   UNL     1       7.482   5.046  13.744  0.00  0.00    +0.000 A 
ENDBRANCH  11  14
ENDBRANCH   7  11
BRANCH   1  21
ATOM     21  C   UNL     1       1.623   5.822  20.743  0.00  0.00    +0.000 C 
BRANCH  21  27
ATOM     22  O   UNL     1       0.485  11.484  21.645  0.00  0.00    +0.000 OA
ATOM     23  C   UNL     1       0.527  10.269  21.607  0.00  0.00    +0.000 C 
ATOM     24  C   UNL     1      -0.440   9.293  22.223  0.00  0.00    +0.000 C 
ATOM     25  N   UNL     1       0.067   7.964  21.792  0.00  0.00    +0.000 NA
ATOM     26  C   UNL     1       1.145   8.208  21.115  0.00  0.00    +0.000 C 
ATOM     27  N   UNL     1       1.929   7.249  20.544  0.00  0.00    +0.000 N 
ATOM     28  N   UNL     1       1.469   9.505  20.988  0.00  0.00    +0.000 N 
ATOM     29  H   UNL     1       2.903   7.481  20.407  0.00  0.00    +0.000 HD
ATOM     30  H   UNL     1       2.222   9.908  20.458  0.00  0.00    +0.000 HD
ENDBRANCH  21  27
ENDBRANCH   1  21
TORSDOF 4
ENDMDL
MODEL 2
REMARK VINA RESULT:      -9.1      4.813      6.839
REMARK  Name = 
REMARK  4 active torsions:
REMARK  status: ('A' for Active; 'I' for Inactive)
REMARK    1  A    between atoms: N_6  and  C_7
REMARK    2  A    between atoms: C_7  and  C_8
REMARK    3  A    between atoms: C_14  and  S_15
REMARK    4  A    between atoms: S_15  and  C_18
REMARK                            x       y       z     vdW  Elec       q    Type
REMARK                         _______ _______ _______ _____ _____    ______ ____
ROOT
ATOM      1  C   UNL     1       0.135  10.731  19.025  0.00  0.00    +0.000 C 
ATOM      2  C   UNL     1      -0.831  10.601  20.223  0.00  0.00    +0.000 C 
ATOM      3  C   UNL     1      -0.078  10.281  21.509  0.00  0.00    +0.000 C 
ATOM      4  C   UNL     1       0.543   8.896  21.398  0.00  0.00    +0.000 C 
ATOM      5  C   UNL     1       1.298   8.699  20.107  0.00  0.00    +0.000 A 
ATOM      6  C   UNL     1       2.102   7.549  19.999  0.00  0.00    +0.000 A 
ATOM      7  C   UNL     1       2.770   7.263  18.810  0.00  0.00    +0.000 A 
ATOM      8  C   UNL     1       2.647   8.120  17.717  0.00  0.00    +0.000 A 
ATOM      9  C   UNL     1       1.843   9.268  17.817  0.00  0.00    +0.000 A 
ATOM     10  C   UNL     1       1.136   9.564  19.000  0.00  0.00    +0.000 A 
ENDROOT
BRANCH   7  11
ATOM     11  S   UNL     1       3.645   5.715  18.660  0.00  0.00    +0.000 S 
ATOM     12  O   UNL     1       3.692   5.384  17.245  0.00  0.00    +0.000 OA
ATOM     13  O   UNL     1       4.877   5.835  19.418  0.00  0.00    +0.000 OA
BRANCH  11  14
ATOM     14  C   UNL     1       2.662   4.461  19.452  0.00  0.00    +0.000 A 
ATOM     15  C   UNL     1       2.747   4.279  20.839  0.00  0.00    +0.000 A 
ATOM     16  C   UNL     1       1.950   3.315  21.461  0.00  0.00    +0.000 A 
ATOM     17  C   UNL     1       1.063   2.552  20.702  0.00  0.00    +0.000 A 
ATOM     18  C   UNL     1       0.967   2.768  19.330  0.00  0.00    +0.000 A 
ATOM     19  F   UNL     1       0.097   2.046  18.612  0.00  0.00    +0.000 F 
ATOM     20  C   UNL     1       1.752   3.720  18.693  0.00  0.00    +0.000 A 
ENDBRANCH  11  14
ENDBRANCH   7  11
BRANCH   1  21
ATOM     21  C   UNL     1       0.792  12.135  18.981  0.00  0.00    +0.000 C 
BRANCH  21  27
ATOM     22  O   UNL     1      -0.605  17.793  18.529  0.00  0.00    +0.000 OA
ATOM     23  C   UNL     1      -0.081  16.697  18.598  0.00  0.00    +0.000 C 
ATOM     24  C   UNL     1       1.390  16.378  18.624  0.00  0.00    +0.000 C 
ATOM     25  N   UNL     1       1.436  14.903  18.793  0.00  0.00    +0.000 NA
ATOM     26  C   UNL     1       0.198  14.517  18.797  0.00  0.00    +0.000 C 
ATOM     27  N   UNL     1      -0.203  13.219  18.923  0.00  0.00    +0.000 N 
ATOM     28  N   UNL     1      -0.714  15.494  18.673  0.00  0.00    +0.000 N 
ATOM     29  H   UNL     1      -1.099  12.980  18.521  0.00  0.00    +0.000 HD
ATOM     30  H   UNL     1      -1.716  15.417  18.713  0.00  0.00    +0.000 HD
ENDBRANCH  21  27
ENDBRANCH   1  21
TORSDOF 4
ENDMDL
MODEL 3
REMARK VINA RESULT:      -9.0      4.852      6.726
REMARK  Name = 
REMARK  4 active torsions:
REMARK  status: ('A' for Active; 'I' for Inactive)
REMARK    1  A    between atoms: N_6  and  C_7
REMARK    2  A    between atoms: C_7  and  C_8
REMARK    3  A    between atoms: C_14  and  S_15
REMARK    4  A    between atoms: S_15  and  C_18
REMARK                            x       y       z     vdW  Elec       q    Type
REMARK                         _______ _______ _______ _____ _____    ______ ____
ROOT
ATOM      1  C   UNL     1       0.257  10.638  18.961  0.00  0.00    +0.000 C 
ATOM      2  C   UNL     1      -0.733  10.520  20.140  0.00  0.00    +0.000 C 
ATOM      3  C   UNL     1      -0.011  10.173  21.436  0.00  0.00    +0.000 C 
ATOM      4  C   UNL     1       0.580   8.775  21.325  0.00  0.00    +0.000 C 
ATOM      5  C   UNL     1       1.354   8.572  20.046  0.00  0.00    +0.000 A 
ATOM      6  C   UNL     1       2.134   7.405  19.942  0.00  0.00    +0.000 A 
ATOM      7  C   UNL     1       2.818   7.114  18.763  0.00  0.00    +0.000 A 
ATOM      8  C   UNL     1       2.734   7.983  17.676  0.00  0.00    +0.000 A 
ATOM      9  C   UNL     1       1.954   9.148  17.771  0.00  0.00    +0.000 A 
ATOM     10  C   UNL     1       1.232   9.450  18.943  0.00  0.00    +0.000 A 
ENDROOT
BRANCH   7  11
ATOM     11  S   UNL     1       3.660   5.548  18.616  0.00  0.00    +0.000 S 
ATOM     12  O   UNL     1       3.923   5.334  17.201  0.00  0.00    +0.000 OA
ATOM     13  O   UNL     1       4.758   5.553  19.564  0.00  0.00    +0.000 OA
BRANCH  11  14
ATOM     14  C   UNL     1       2.528   4.276  19.130  0.00  0.00    +0.000 A 
ATOM     15  C   UNL     1       1.771   3.586  18.172  0.00  0.00    +0.000 A 
ATOM     16  C   UNL     1       0.908   2.566  18.577  0.00  0.00    +0.000 A 
ATOM     17  C   UNL     1       0.816   2.228  19.927  0.00  0.00    +0.000 A 
ATOM     18  C   UNL     1       1.599   2.900  20.861  0.00  0.00    +0.000 A 
ATOM     19  F   UNL     1       1.521   2.555  22.153  0.00  0.00    +0.000 F 
ATOM     20  C   UNL     1       2.462   3.919  20.479  0.00  0.00    +0.000 A 
ENDBRANCH  11  14
ENDBRANCH   7  11
BRANCH   1  21
ATOM     21  C   UNL     1       0.946  12.028  18.941  0.00  0.00    +0.000 C 
BRANCH  21  27
ATOM     22  O   UNL     1      -0.741  17.623  19.061  0.00  0.00    +0.000 OA
ATOM     23  C   UNL     1      -0.200  16.539  19.175  0.00  0.00    +0.000 C 
ATOM     24  C   UNL     1       1.012  16.195  19.999  0.00  0.00    +0.000 C 
ATOM     25  N   UNL     1       1.167  14.729  19.816  0.00  0.00    +0.000 NA
ATOM     26  C   UNL     1       0.228  14.382  18.993  0.00  0.00    +0.000 C 
ATOM     27  N   UNL     1       0.023  13.107  18.553  0.00  0.00    +0.000 N 
ATOM     28  N   UNL     1      -0.576  15.375  18.579  0.00  0.00    +0.000 N 
ATOM     29  H   UNL     1      -0.430  13.005  17.654  0.00  0.00    +0.000 HD
ATOM     30  H   UNL     1      -1.392  15.310  17.995  0.00  0.00    +0.000 HD
ENDBRANCH  21  27
ENDBRANCH   1  21
TORSDOF 4
ENDMDL
MODEL 4
REMARK VINA RESULT:      -8.9      4.835      6.733
REMARK  Name = 
REMARK  4 active torsions:
REMARK  status: ('A' for Active; 'I' for Inactive)
REMARK    1  A    between atoms: N_6  and  C_7
REMARK    2  A    between atoms: C_7  and  C_8
REMARK    3  A    between atoms: C_14  and  S_15
REMARK    4  A    between atoms: S_15  and  C_18
REMARK                            x       y       z     vdW  Elec       q    Type
REMARK                         _______ _______ _______ _____ _____    ______ ____
ROOT
ATOM      1  C   UNL     1       0.023  10.799  19.198  0.00  0.00    +0.000 C 
ATOM      2  C   UNL     1      -0.986  10.587  20.347  0.00  0.00    +0.000 C 
ATOM      3  C   UNL     1      -0.280  10.184  21.637  0.00  0.00    +0.000 C 
ATOM      4  C   UNL     1       0.351   8.811  21.457  0.00  0.00    +0.000 C 
ATOM      5  C   UNL     1       1.155   8.702  20.185  0.00  0.00    +0.000 A 
ATOM      6  C   UNL     1       1.968   7.564  20.031  0.00  0.00    +0.000 A 
ATOM      7  C   UNL     1       2.682   7.359  18.852  0.00  0.00    +0.000 A 
ATOM      8  C   UNL     1       2.595   8.288  17.814  0.00  0.00    +0.000 A 
ATOM      9  C   UNL     1       1.782   9.424  17.961  0.00  0.00    +0.000 A 
ATOM     10  C   UNL     1       1.031   9.639  19.132  0.00  0.00    +0.000 A 
ENDROOT
BRANCH   7  11
ATOM     11  S   UNL     1       3.569   5.827  18.632  0.00  0.00    +0.000 S 
ATOM     12  O   UNL     1       3.839   5.687  17.210  0.00  0.00    +0.000 OA
ATOM     13  O   UNL     1       4.666   5.818  19.582  0.00  0.00    +0.000 OA
BRANCH  11  14
ATOM     14  C   UNL     1       2.473   4.500  19.083  0.00  0.00    +0.000 A 
ATOM     15  C   UNL     1       1.833   3.753  18.085  0.00  0.00    +0.000 A 
ATOM     16  C   UNL     1       0.999   2.691  18.442  0.00  0.00    +0.000 A 
ATOM     17  C   UNL     1       0.822   2.369  19.788  0.00  0.00    +0.000 A 
ATOM     18  C   UNL     1       1.492   3.100  20.765  0.00  0.00    +0.000 A 
ATOM     19  F   UNL     1       1.333   2.770  22.054  0.00  0.00    +0.000 F 
ATOM     20  C   UNL     1       2.323   4.160  20.430  0.00  0.00    +0.000 A 
ENDBRANCH  11  14
ENDBRANCH   7  11
BRANCH   1  21
ATOM     21  C   UNL     1       0.675  12.205  19.273  0.00  0.00    +0.000 C 
BRANCH  21  27
ATOM     22  O   UNL     1       5.586  14.900  17.605  0.00  0.00    +0.000 OA
ATOM     23  C   UNL     1       4.562  14.510  18.133  0.00  0.00    +0.000 C 
ATOM     24  C   UNL     1       3.824  15.133  19.288  0.00  0.00    +0.000 C 
ATOM     25  N   UNL     1       2.619  14.278  19.448  0.00  0.00    +0.000 NA
ATOM     26  C   UNL     1       2.741  13.340  18.563  0.00  0.00    +0.000 C 
ATOM     27  N   UNL     1       1.840  12.331  18.381  0.00  0.00    +0.000 N 
ATOM     28  N   UNL     1       3.838  13.409  17.792  0.00  0.00    +0.000 N 
ATOM     29  H   UNL     1       2.196  11.470  17.987  0.00  0.00    +0.000 HD
ATOM     30  H   UNL     1       4.089  12.822  17.015  0.00  0.00    +0.000 HD
ENDBRANCH  21  27
ENDBRANCH   1  21
TORSDOF 4
ENDMDL
MODEL 5
REMARK VINA RESULT:      -8.9      3.759      5.560
REMARK  Name = 
REMARK  4 active torsions:
REMARK  status: ('A' for Active; 'I' for Inactive)
REMARK    1  A    between atoms: N_6  and  C_7
REMARK    2  A    between atoms: C_7  and  C_8
REMARK    3  A    between atoms: C_14  and  S_15
REMARK    4  A    between atoms: S_15  and  C_18
REMARK                            x       y       z     vdW  Elec       q    Type
REMARK                         _______ _______ _______ _____ _____    ______ ____
ROOT
ATOM      1  C   UNL     1       0.577  10.282  19.049  0.00  0.00    +0.000 C 
ATOM      2  C   UNL     1      -0.308  10.412  20.307  0.00  0.00    +0.000 C 
ATOM      3  C   UNL     1       0.477  10.085  21.572  0.00  0.00    +0.000 C 
ATOM      4  C   UNL     1       0.864   8.614  21.558  0.00  0.00    +0.000 C 
ATOM      5  C   UNL     1       1.484   8.188  20.250  0.00  0.00    +0.000 A 
ATOM      6  C   UNL     1       2.089   6.918  20.205  0.00  0.00    +0.000 A 
ATOM      7  C   UNL     1       2.617   6.428  19.013  0.00  0.00    +0.000 A 
ATOM      8  C   UNL     1       2.550   7.198  17.852  0.00  0.00    +0.000 A 
ATOM      9  C   UNL     1       1.944   8.465  17.889  0.00  0.00    +0.000 A 
ATOM     10  C   UNL     1       1.379   8.971  19.076  0.00  0.00    +0.000 A 
ENDROOT
BRANCH   7  11
ATOM     11  S   UNL     1       3.227   4.752  18.961  0.00  0.00    +0.000 S 
ATOM     12  O   UNL     1       3.318   4.285  20.335  0.00  0.00    +0.000 OA
ATOM     13  O   UNL     1       2.418   4.024  18.001  0.00  0.00    +0.000 OA
BRANCH  11  14
ATOM     14  C   UNL     1       4.886   4.800  18.320  0.00  0.00    +0.000 A 
ATOM     15  C   UNL     1       5.144   4.355  17.017  0.00  0.00    +0.000 A 
ATOM     16  C   UNL     1       6.442   4.424  16.506  0.00  0.00    +0.000 A 
ATOM     17  C   UNL     1       7.469   4.951  17.289  0.00  0.00    +0.000 A 
ATOM     18  C   UNL     1       7.189   5.421  18.569  0.00  0.00    +0.000 A 
ATOM     19  F   UNL     1       8.177   5.945  19.307  0.00  0.00    +0.000 F 
ATOM     20  C   UNL     1       5.906   5.358  19.095  0.00  0.00    +0.000 A 
ENDBRANCH  11  14
ENDBRANCH   7  11
BRANCH   1  21
ATOM     21  C   UNL     1       1.440  11.553  18.833  0.00  0.00    +0.000 C 
BRANCH  21  27
ATOM     22  O   UNL     1      -1.180  16.757  19.304  0.00  0.00    +0.000 OA
ATOM     23  C   UNL     1      -0.570  15.713  19.443  0.00  0.00    +0.000 C 
ATOM     24  C   UNL     1       0.052  15.169  20.701  0.00  0.00    +0.000 C 
ATOM     25  N   UNL     1       0.585  13.843  20.294  0.00  0.00    +0.000 NA
ATOM     26  C   UNL     1       0.330  13.741  19.027  0.00  0.00    +0.000 C 
ATOM     27  N   UNL     1       0.666  12.666  18.258  0.00  0.00    +0.000 N 
ATOM     28  N   UNL     1      -0.314  14.785  18.480  0.00  0.00    +0.000 N 
ATOM     29  H   UNL     1       0.799  12.838  17.270  0.00  0.00    +0.000 HD
ATOM     30  H   UNL     1      -0.655  14.880  17.539  0.00  0.00    +0.000 HD
ENDBRANCH  21  27
ENDBRANCH   1  21
TORSDOF 4
ENDMDL
MODEL 6
REMARK VINA RESULT:      -8.9      4.037      5.781
REMARK  Name = 
REMARK  4 active torsions:
REMARK  status: ('A' for Active; 'I' for Inactive)
REMARK    1  A    between atoms: N_6  and  C_7
REMARK    2  A    between atoms: C_7  and  C_8
REMARK    3  A    between atoms: C_14  and  S_15
REMARK    4  A    between atoms: S_15  and  C_18
REMARK                            x       y       z     vdW  Elec       q    Type
REMARK                         _______ _______ _______ _____ _____    ______ ____
ROOT
ATOM      1  C   UNL     1       0.146  10.188  19.348  0.00  0.00    +0.000 C 
ATOM      2  C   UNL     1      -0.705   9.745  20.559  0.00  0.00    +0.000 C 
ATOM      3  C   UNL     1       0.176   9.337  21.734  0.00  0.00    +0.000 C 
ATOM      4  C   UNL     1       0.956   8.083  21.367  0.00  0.00    +0.000 C 
ATOM      5  C   UNL     1       1.632   8.191  20.023  0.00  0.00    +0.000 A 
ATOM      6  C   UNL     1       2.564   7.191  19.686  0.00  0.00    +0.000 A 
ATOM      7  C   UNL     1       3.173   7.185  18.434  0.00  0.00    +0.000 A 
ATOM      8  C   UNL     1       2.862   8.175  17.502  0.00  0.00    +0.000 A 
ATOM      9  C   UNL     1       1.930   9.174  17.830  0.00  0.00    +0.000 A 
ATOM     10  C   UNL     1       1.281   9.186  19.080  0.00  0.00    +0.000 A 
ENDROOT
BRANCH   7  11
ATOM     11  S   UNL     1       4.221   5.812  17.988  0.00  0.00    +0.000 S 
ATOM     12  O   UNL     1       4.511   5.935  16.568  0.00  0.00    +0.000 OA
ATOM     13  O   UNL     1       5.309   5.765  18.948  0.00  0.00    +0.000 OA
BRANCH  11  14
ATOM     14  C   UNL     1       3.274   4.320  18.194  0.00  0.00    +0.000 A 
ATOM     15  C   UNL     1       1.874   4.382  18.236  0.00  0.00    +0.000 A 
ATOM     16  C   UNL     1       1.133   3.205  18.366  0.00  0.00    +0.000 A 
ATOM     17  C   UNL     1       1.788   1.976  18.435  0.00  0.00    +0.000 A 
ATOM     18  C   UNL     1       3.177   1.929  18.358  0.00  0.00    +0.000 A 
ATOM     19  F   UNL     1       3.798   0.743  18.404  0.00  0.00    +0.000 F 
ATOM     20  C   UNL     1       3.932   3.088  18.232  0.00  0.00    +0.000 A 
ENDBRANCH  11  14
ENDBRANCH   7  11
BRANCH   1  21
ATOM     21  C   UNL     1       0.616  11.659  19.498  0.00  0.00    +0.000 C 
BRANCH  21  27
ATOM     22  O   UNL     1       5.068  14.910  17.554  0.00  0.00    +0.000 OA
ATOM     23  C   UNL     1       4.180  14.353  18.173  0.00  0.00    +0.000 C 
ATOM     24  C   UNL     1       3.719  14.635  19.578  0.00  0.00    +0.000 C 
ATOM     25  N   UNL     1       2.570  13.712  19.771  0.00  0.00    +0.000 NA
ATOM     26  C   UNL     1       2.487  13.029  18.672  0.00  0.00    +0.000 C 
ATOM     27  N   UNL     1       1.559  12.057  18.439  0.00  0.00    +0.000 N 
ATOM     28  N   UNL     1       3.390  13.339  17.728  0.00  0.00    +0.000 N 
ATOM     29  H   UNL     1       1.813  11.338  17.774  0.00  0.00    +0.000 HD
ATOM     30  H   UNL     1       3.459  12.975  16.792  0.00  0.00    +0.000 HD
ENDBRANCH  21  27
ENDBRANCH   1  21
TORSDOF 4
ENDMDL
MODEL 7
REMARK VINA RESULT:      -8.9      4.782      6.758
REMARK  Name = 
REMARK  4 active torsions:
REMARK  status: ('A' for Active; 'I' for Inactive)
REMARK    1  A    between atoms: N_6  and  C_7
REMARK    2  A    between atoms: C_7  and  C_8
REMARK    3  A    between atoms: C_14  and  S_15
REMARK    4  A    between atoms: S_15  and  C_18
REMARK                            x       y       z     vdW  Elec       q    Type
REMARK                         _______ _______ _______ _____ _____    ______ ____
ROOT
ATOM      1  C   UNL     1       0.066  10.828  18.965  0.00  0.00    +0.000 C 
ATOM      2  C   UNL     1      -1.026  10.622  20.037  0.00  0.00    +0.000 C 
ATOM      3  C   UNL     1      -0.419  10.217  21.375  0.00  0.00    +0.000 C 
ATOM      4  C   UNL     1       0.216   8.840  21.243  0.00  0.00    +0.000 C 
ATOM      5  C   UNL     1       1.111   8.726  20.033  0.00  0.00    +0.000 A 
ATOM      6  C   UNL     1       1.927   7.583  19.939  0.00  0.00    +0.000 A 
ATOM      7  C   UNL     1       2.725   7.374  18.816  0.00  0.00    +0.000 A 
ATOM      8  C   UNL     1       2.719   8.302  17.775  0.00  0.00    +0.000 A 
ATOM      9  C   UNL     1       1.904   9.443  17.860  0.00  0.00    +0.000 A 
ATOM     10  C   UNL     1       1.069   9.663  18.974  0.00  0.00    +0.000 A 
ENDROOT
BRANCH   7  11
ATOM     11  S   UNL     1       3.617   5.837  18.663  0.00  0.00    +0.000 S 
ATOM     12  O   UNL     1       3.656   5.502  17.248  0.00  0.00    +0.000 OA
ATOM     13  O   UNL     1       4.854   5.975  19.408  0.00  0.00    +0.000 OA
BRANCH  11  14
ATOM     14  C   UNL     1       2.658   4.573  19.467  0.00  0.00    +0.000 A 
ATOM     15  C   UNL     1       2.745   4.408  20.856  0.00  0.00    +0.000 A 
ATOM     16  C   UNL     1       1.966   3.436  21.488  0.00  0.00    +0.000 A 
ATOM     17  C   UNL     1       1.094   2.648  20.737  0.00  0.00    +0.000 A 
ATOM     18  C   UNL     1       0.995   2.847  19.362  0.00  0.00    +0.000 A 
ATOM     19  F   UNL     1       0.141   2.100  18.651  0.00  0.00    +0.000 F 
ATOM     20  C   UNL     1       1.763   3.807  18.716  0.00  0.00    +0.000 A 
ENDBRANCH  11  14
ENDBRANCH   7  11
BRANCH   1  21
ATOM     21  C   UNL     1       0.718  12.230  19.087  0.00  0.00    +0.000 C 
BRANCH  21  27
ATOM     22  O   UNL     1       5.641  15.029  17.642  0.00  0.00    +0.000 OA
ATOM     23  C   UNL     1       4.591  14.630  18.109  0.00  0.00    +0.000 C 
ATOM     24  C   UNL     1       3.727  15.301  19.144  0.00  0.00    +0.000 C 
ATOM     25  N   UNL     1       2.550  14.403  19.266  0.00  0.00    +0.000 NA
ATOM     26  C   UNL     1       2.789  13.408  18.470  0.00  0.00    +0.000 C 
ATOM     27  N   UNL     1       1.952  12.347  18.291  0.00  0.00    +0.000 N 
ATOM     28  N   UNL     1       3.948  13.473  17.794  0.00  0.00    +0.000 N 
ATOM     29  H   UNL     1       2.377  11.477  17.998  0.00  0.00    +0.000 HD
ATOM     30  H   UNL     1       4.291  12.843  17.089  0.00  0.00    +0.000 HD
ENDBRANCH  21  27
ENDBRANCH   1  21
TORSDOF 4
ENDMDL
MODEL 8
REMARK VINA RESULT:      -8.9      0.876      1.264
REMARK  Name = 
REMARK  4 active torsions:
REMARK  status: ('A' for Active; 'I' for Inactive)
REMARK    1  A    between atoms: N_6  and  C_7
REMARK    2  A    between atoms: C_7  and  C_8
REMARK    3  A    between atoms: C_14  and  S_15
REMARK    4  A    between atoms: S_15  and  C_18
REMARK                            x       y       z     vdW  Elec       q    Type
REMARK                         _______ _______ _______ _____ _____    ______ ____
ROOT
ATOM      1  C   UNL     1       1.796   5.081  19.073  0.00  0.00    +0.000 C 
ATOM      2  C   UNL     1       1.279   3.626  19.101  0.00  0.00    +0.000 C 
ATOM      3  C   UNL     1       2.308   2.685  19.716  0.00  0.00    +0.000 C 
ATOM      4  C   UNL     1       3.528   2.612  18.809  0.00  0.00    +0.000 C 
ATOM      5  C   UNL     1       4.024   3.975  18.392  0.00  0.00    +0.000 A 
ATOM      6  C   UNL     1       5.275   4.038  17.749  0.00  0.00    +0.000 A 
ATOM      7  C   UNL     1       5.764   5.251  17.271  0.00  0.00    +0.000 A 
ATOM      8  C   UNL     1       5.013   6.416  17.428  0.00  0.00    +0.000 A 
ATOM      9  C   UNL     1       3.762   6.360  18.065  0.00  0.00    +0.000 A 
ATOM     10  C   UNL     1       3.235   5.140  18.534  0.00  0.00    +0.000 A 
ENDROOT
BRANCH   7  11
ATOM     11  S   UNL     1       7.273   5.261  16.319  0.00  0.00    +0.000 S 
ATOM     12  O   UNL     1       7.761   6.631  16.301  0.00  0.00    +0.000 OA
ATOM     13  O   UNL     1       8.118   4.199  16.832  0.00  0.00    +0.000 OA
BRANCH  11  14
ATOM     14  C   UNL     1       6.857   4.838  14.642  0.00  0.00    +0.000 A 
ATOM     15  C   UNL     1       7.762   5.114  13.608  0.00  0.00    +0.000 A 
ATOM     16  C   UNL     1       7.446   4.751  12.297  0.00  0.00    +0.000 A 
ATOM     17  C   UNL     1       6.241   4.102  12.027  0.00  0.00    +0.000 A 
ATOM     18  C   UNL     1       5.369   3.805  13.070  0.00  0.00    +0.000 A 
ATOM     19  F   UNL     1       4.223   3.163  12.806  0.00  0.00    +0.000 F 
ATOM     20  C   UNL     1       5.664   4.160  14.380  0.00  0.00    +0.000 A 
ENDBRANCH  11  14
ENDBRANCH   7  11
BRANCH   1  21
ATOM     21  C   UNL     1       1.602   5.775  20.447  0.00  0.00    +0.000 C 
BRANCH  21  27
ATOM     22  O   UNL     1       0.515  11.343  21.853  0.00  0.00    +0.000 OA
ATOM     23  C   UNL     1       0.539  10.137  21.697  0.00  0.00    +0.000 C 
ATOM     24  C   UNL     1      -0.472   9.126  22.167  0.00  0.00    +0.000 C 
ATOM     25  N   UNL     1       0.033   7.836  21.630  0.00  0.00    +0.000 NA
ATOM     26  C   UNL     1       1.146   8.122  21.031  0.00  0.00    +0.000 C 
ATOM     27  N   UNL     1       1.940   7.208  20.404  0.00  0.00    +0.000 N 
ATOM     28  N   UNL     1       1.497   9.418  21.050  0.00  0.00    +0.000 N 
ATOM     29  H   UNL     1       2.924   7.432  20.336  0.00  0.00    +0.000 HD
ATOM     30  H   UNL     1       2.282   9.856  20.597  0.00  0.00    +0.000 HD
ENDBRANCH  21  27
ENDBRANCH   1  21
TORSDOF 4
ENDMDL
MODEL 9
REMARK VINA RESULT:      -8.9      3.581      5.476
REMARK  Name = 
REMARK  4 active torsions:
REMARK  status: ('A' for Active; 'I' for Inactive)
REMARK    1  A    between atoms: N_6  and  C_7
REMARK    2  A    between atoms: C_7  and  C_8
REMARK    3  A    between atoms: C_14  and  S_15
REMARK    4  A    between atoms: S_15  and  C_18
REMARK                            x       y       z     vdW  Elec       q    Type
REMARK                         _______ _______ _______ _____ _____    ______ ____
ROOT
ATOM      1  C   UNL     1       0.542  10.373  19.089  0.00  0.00    +0.000 C 
ATOM      2  C   UNL     1      -0.332  10.490  20.357  0.00  0.00    +0.000 C 
ATOM      3  C   UNL     1       0.464  10.149  21.611  0.00  0.00    +0.000 C 
ATOM      4  C   UNL     1       0.850   8.677  21.577  0.00  0.00    +0.000 C 
ATOM      5  C   UNL     1       1.458   8.265  20.259  0.00  0.00    +0.000 A 
ATOM      6  C   UNL     1       2.061   6.995  20.196  0.00  0.00    +0.000 A 
ATOM      7  C   UNL     1       2.579   6.518  18.994  0.00  0.00    +0.000 A 
ATOM      8  C   UNL     1       2.503   7.300  17.842  0.00  0.00    +0.000 A 
ATOM      9  C   UNL     1       1.898   8.568  17.898  0.00  0.00    +0.000 A 
ATOM     10  C   UNL     1       1.344   9.061  19.096  0.00  0.00    +0.000 A 
ENDROOT
BRANCH   7  11
ATOM     11  S   UNL     1       3.186   4.842  18.918  0.00  0.00    +0.000 S 
ATOM     12  O   UNL     1       3.291   4.360  20.286  0.00  0.00    +0.000 OA
ATOM     13  O   UNL     1       2.367   4.125  17.959  0.00  0.00    +0.000 OA
BRANCH  11  14
ATOM     14  C   UNL     1       4.838   4.895  18.261  0.00  0.00    +0.000 A 
ATOM     15  C   UNL     1       5.891   5.371  19.056  0.00  0.00    +0.000 A 
ATOM     16  C   UNL     1       7.192   5.381  18.547  0.00  0.00    +0.000 A 
ATOM     17  C   UNL     1       7.439   4.903  17.260  0.00  0.00    +0.000 A 
ATOM     18  C   UNL     1       6.387   4.403  16.497  0.00  0.00    +0.000 A 
ATOM     19  F   UNL     1       6.636   3.926  15.270  0.00  0.00    +0.000 F 
ATOM     20  C   UNL     1       5.087   4.387  16.984  0.00  0.00    +0.000 A 
ENDBRANCH  11  14
ENDBRANCH   7  11
BRANCH   1  21
ATOM     21  C   UNL     1       1.405  11.645  18.880  0.00  0.00    +0.000 C 
BRANCH  21  27
ATOM     22  O   UNL     1      -1.186  16.873  19.227  0.00  0.00    +0.000 OA
ATOM     23  C   UNL     1      -0.583  15.829  19.391  0.00  0.00    +0.000 C 
ATOM     24  C   UNL     1       0.032  15.309  20.663  0.00  0.00    +0.000 C 
ATOM     25  N   UNL     1       0.558  13.972  20.287  0.00  0.00    +0.000 NA
ATOM     26  C   UNL     1       0.307  13.844  19.022  0.00  0.00    +0.000 C 
ATOM     27  N   UNL     1       0.639  12.750  18.278  0.00  0.00    +0.000 N 
ATOM     28  N   UNL     1      -0.329  14.879  18.450  0.00  0.00    +0.000 N 
ATOM     29  H   UNL     1       0.776  12.899  17.287  0.00  0.00    +0.000 HD
ATOM     30  H   UNL     1      -0.667  14.955  17.506  0.00  0.00    +0.000 HD
ENDBRANCH  21  27
ENDBRANCH   1  21
TORSDOF 4
ENDMDL
