MODEL 1
REMARK VINA RESULT:      -7.1      0.000      0.000
REMARK  Name = 
REMARK  6 active torsions:
REMARK  status: ('A' for Active; 'I' for Inactive)
REMARK    1  A    between atoms: C_1  and  N_2
REMARK    2  A    between atoms: N_2  and  C_3
REMARK    3  A    between atoms: N_2  and  C_21
REMARK    4  A    between atoms: C_3  and  C_4
REMARK    5  A    between atoms: C_11  and  C_13
REMARK    6  A    between atoms: C_21  and  C_22
REMARK                            x       y       z     vdW  Elec       q    Type
REMARK                         _______ _______ _______ _____ _____    ______ ____
ROOT
ATOM      1  C   UNL     1       2.616   6.442  19.637  0.00  0.00    +0.000 A 
ATOM      2  C   UNL     1       2.691   7.188  18.478  0.00  0.00    +0.000 A 
ATOM      3  N   UNL     1       1.948   8.299  18.725  0.00  0.00    +0.000 N 
ATOM      4  C   UNL     1       1.503   8.256  20.023  0.00  0.00    +0.000 A 
ATOM      5  N   UNL     1       1.871   7.122  20.588  0.00  0.00    +0.000 NA
ATOM      6  C   UNL     1       0.688   9.367  20.624  0.00  0.00    +0.000 C 
ATOM      7  N   UNL     1       0.713  10.549  19.746  0.00  0.00    +0.000 N 
ATOM      8  C   UNL     1       1.026  11.780  20.304  0.00  0.00    +0.000 C 
ATOM      9  O   UNL     1       1.190  11.904  21.518  0.00  0.00    +0.000 OA
ATOM     10  C   UNL     1       0.529  10.256  18.323  0.00  0.00    +0.000 C 
ATOM     11  C   UNL     1       1.680   9.391  17.811  0.00  0.00    +0.000 C 
ENDROOT
BRANCH   8  12
ATOM     12  C   UNL     1       1.121  13.004  19.383  0.00  0.00    +0.000 C 
ATOM     13  C   UNL     1       2.402  13.804  19.682  0.00  0.00    +0.000 C 
ATOM     14  C   UNL     1       2.408  15.155  18.983  0.00  0.00    +0.000 C 
ATOM     15  O   UNL     1       1.230  15.891  19.295  0.00  0.00    +0.000 OA
ATOM     16  C   UNL     1       0.052  15.230  18.846  0.00  0.00    +0.000 C 
ATOM     17  C   UNL     1      -0.118  13.891  19.554  0.00  0.00    +0.000 C 
ENDBRANCH   8  12
BRANCH   1  18
ATOM     18  C   UNL     1       3.238   5.108  19.941  0.00  0.00    +0.000 C 
BRANCH  18  20
ATOM     19  C   UNL     1       2.760   3.195  18.528  0.00  0.00    +0.000 C 
ATOM     20  N   UNL     1       3.617   4.378  18.706  0.00  0.00    +0.000 NA
BRANCH  20  21
ATOM     21  C   UNL     1       5.018   3.907  18.798  0.00  0.00    +0.000 C 
BRANCH  21  22
ATOM     22  C   UNL     1       6.037   4.967  18.544  0.00  0.00    +0.000 A 
ATOM     23  C   UNL     1       6.200   5.923  17.562  0.00  0.00    +0.000 A 
ATOM     24  C   UNL     1       7.387   6.628  17.887  0.00  0.00    +0.000 A 
ATOM     25  C   UNL     1       7.871   6.055  19.038  0.00  0.00    +0.000 A 
ATOM     26  O   UNL     1       7.059   5.048  19.445  0.00  0.00    +0.000 OA
ENDBRANCH  21  22
ENDBRANCH  20  21
ENDBRANCH  18  20
ENDBRANCH   1  18
TORSDOF 5
ENDMDL
MODEL 2
REMARK VINA RESULT:      -7.1      2.249      3.537
REMARK  Name = 
REMARK  6 active torsions:
REMARK  status: ('A' for Active; 'I' for Inactive)
REMARK    1  A    between atoms: C_1  and  N_2
REMARK    2  A    between atoms: N_2  and  C_3
REMARK    3  A    between atoms: N_2  and  C_21
REMARK    4  A    between atoms: C_3  and  C_4
REMARK    5  A    between atoms: C_11  and  C_13
REMARK    6  A    between atoms: C_21  and  C_22
REMARK                            x       y       z     vdW  Elec       q    Type
REMARK                         _______ _______ _______ _____ _____    ______ ____
ROOT
ATOM      1  C   UNL     1       2.916   7.395  18.486  0.00  0.00    +0.000 A 
ATOM      2  C   UNL     1       2.419   8.526  17.870  0.00  0.00    +0.000 A 
ATOM      3  N   UNL     1       1.469   9.002  18.719  0.00  0.00    +0.000 N 
ATOM      4  C   UNL     1       1.453   8.221  19.848  0.00  0.00    +0.000 A 
ATOM      5  N   UNL     1       2.303   7.220  19.716  0.00  0.00    +0.000 NA
ATOM      6  C   UNL     1       0.541   8.513  21.006  0.00  0.00    +0.000 C 
ATOM      7  N   UNL     1      -0.058   9.851  20.858  0.00  0.00    +0.000 N 
ATOM      8  C   UNL     1       0.001  10.724  21.934  0.00  0.00    +0.000 C 
ATOM      9  O   UNL     1       0.460  10.365  23.020  0.00  0.00    +0.000 OA
ATOM     10  C   UNL     1      -0.542  10.157  19.510  0.00  0.00    +0.000 C 
ATOM     11  C   UNL     1       0.624  10.162  18.522  0.00  0.00    +0.000 C 
ENDROOT
BRANCH   8  12
ATOM     12  C   UNL     1      -0.559  12.143  21.764  0.00  0.00    +0.000 C 
ATOM     13  C   UNL     1       0.565  13.123  21.382  0.00  0.00    +0.000 C 
ATOM     14  C   UNL     1       0.110  14.572  21.460  0.00  0.00    +0.000 C 
ATOM     15  O   UNL     1      -0.442  14.861  22.741  0.00  0.00    +0.000 OA
ATOM     16  C   UNL     1      -1.599  14.078  23.012  0.00  0.00    +0.000 C 
ATOM     17  C   UNL     1      -1.250  12.596  23.057  0.00  0.00    +0.000 C 
ENDBRANCH   8  12
BRANCH   1  18
ATOM     18  C   UNL     1       3.984   6.453  18.004  0.00  0.00    +0.000 C 
BRANCH  18  20
ATOM     19  C   UNL     1       5.858   5.420  19.147  0.00  0.00    +0.000 C 
ATOM     20  N   UNL     1       4.390   5.490  19.056  0.00  0.00    +0.000 NA
BRANCH  20  21
ATOM     21  C   UNL     1       3.897   4.133  18.726  0.00  0.00    +0.000 C 
BRANCH  21  22
ATOM     22  C   UNL     1       2.828   3.633  19.640  0.00  0.00    +0.000 A 
ATOM     23  C   UNL     1       2.835   2.928  20.828  0.00  0.00    +0.000 A 
ATOM     24  C   UNL     1       1.476   2.755  21.195  0.00  0.00    +0.000 A 
ATOM     25  C   UNL     1       0.732   3.358  20.209  0.00  0.00    +0.000 A 
ATOM     26  O   UNL     1       1.543   3.894  19.263  0.00  0.00    +0.000 OA
ENDBRANCH  21  22
ENDBRANCH  20  21
ENDBRANCH  18  20
ENDBRANCH   1  18
TORSDOF 5
ENDMDL
MODEL 3
REMARK VINA RESULT:      -7.0      1.817      3.124
REMARK  Name = 
REMARK  6 active torsions:
REMARK  status: ('A' for Active; 'I' for Inactive)
REMARK    1  A    between atoms: C_1  and  N_2
REMARK    2  A    between atoms: N_2  and  C_3
REMARK    3  A    between atoms: N_2  and  C_21
REMARK    4  A    between atoms: C_3  and  C_4
REMARK    5  A    between atoms: C_11  and  C_13
REMARK    6  A    between atoms: C_21  and  C_22
REMARK                            x       y       z     vdW  Elec       q    Type
REMARK                         _______ _______ _______ _____ _____    ______ ____
ROOT
ATOM      1  C   UNL     1       3.338   6.675  18.323  0.00  0.00    +0.000 A 
ATOM      2  C   UNL     1       3.104   7.826  17.598  0.00  0.00    +0.000 A 
ATOM      3  N   UNL     1       2.176   8.513  18.317  0.00  0.00    +0.000 N 
ATOM      4  C   UNL     1       1.920   7.828  19.480  0.00  0.00    +0.000 A 
ATOM      5  N   UNL     1       2.593   6.693  19.491  0.00  0.00    +0.000 NA
ATOM      6  C   UNL     1       0.969   8.351  20.519  0.00  0.00    +0.000 C 
ATOM      7  N   UNL     1       0.628   9.756  20.237  0.00  0.00    +0.000 N 
ATOM      8  C   UNL     1       0.737  10.682  21.264  0.00  0.00    +0.000 C 
ATOM      9  O   UNL     1       1.024  10.330  22.409  0.00  0.00    +0.000 OA
ATOM     10  C   UNL     1       0.331  10.041  18.831  0.00  0.00    +0.000 C 
ATOM     11  C   UNL     1       1.566   9.780  17.970  0.00  0.00    +0.000 C 
ENDROOT
BRANCH   8  12
ATOM     12  C   UNL     1       0.449  12.158  20.959  0.00  0.00    +0.000 C 
ATOM     13  C   UNL     1       1.765  12.936  20.777  0.00  0.00    +0.000 C 
ATOM     14  C   UNL     1       1.538  14.440  20.736  0.00  0.00    +0.000 C 
ATOM     15  O   UNL     1       0.811  14.874  21.880  0.00  0.00    +0.000 OA
ATOM     16  C   UNL     1      -0.485  14.290  21.942  0.00  0.00    +0.000 C 
ATOM     17  C   UNL     1      -0.389  12.776  22.085  0.00  0.00    +0.000 C 
ENDBRANCH   8  12
BRANCH   1  18
ATOM     18  C   UNL     1       4.266   5.535  18.007  0.00  0.00    +0.000 C 
BRANCH  18  20
ATOM     19  C   UNL     1       6.297   5.174  19.283  0.00  0.00    +0.000 C 
ATOM     20  N   UNL     1       4.845   4.935  19.234  0.00  0.00    +0.000 NA
BRANCH  20  21
ATOM     21  C   UNL     1       4.632   3.469  19.236  0.00  0.00    +0.000 C 
BRANCH  21  22
ATOM     22  C   UNL     1       3.199   3.060  19.169  0.00  0.00    +0.000 A 
ATOM     23  C   UNL     1       2.426   2.427  18.215  0.00  0.00    +0.000 A 
ATOM     24  C   UNL     1       1.120   2.335  18.759  0.00  0.00    +0.000 A 
ATOM     25  C   UNL     1       1.179   2.920  20.001  0.00  0.00    +0.000 A 
ATOM     26  O   UNL     1       2.435   3.362  20.260  0.00  0.00    +0.000 OA
ENDBRANCH  21  22
ENDBRANCH  20  21
ENDBRANCH  18  20
ENDBRANCH   1  18
TORSDOF 5
ENDMDL
MODEL 4
REMARK VINA RESULT:      -7.0      1.195      1.452
REMARK  Name = 
REMARK  6 active torsions:
REMARK  status: ('A' for Active; 'I' for Inactive)
REMARK    1  A    between atoms: C_1  and  N_2
REMARK    2  A    between atoms: N_2  and  C_3
REMARK    3  A    between atoms: N_2  and  C_21
REMARK    4  A    between atoms: C_3  and  C_4
REMARK    5  A    between atoms: C_11  and  C_13
REMARK    6  A    between atoms: C_21  and  C_22
REMARK                            x       y       z     vdW  Elec       q    Type
REMARK                         _______ _______ _______ _____ _____    ______ ____
ROOT
ATOM      1  C   UNL     1       2.777   6.271  19.568  0.00  0.00    +0.000 A 
ATOM      2  C   UNL     1       2.804   7.008  18.401  0.00  0.00    +0.000 A 
ATOM      3  N   UNL     1       2.031   8.098  18.654  0.00  0.00    +0.000 N 
ATOM      4  C   UNL     1       1.616   8.053  19.962  0.00  0.00    +0.000 A 
ATOM      5  N   UNL     1       2.033   6.936  20.529  0.00  0.00    +0.000 NA
ATOM      6  C   UNL     1       0.779   9.143  20.570  0.00  0.00    +0.000 C 
ATOM      7  N   UNL     1       0.749  10.318  19.681  0.00  0.00    +0.000 N 
ATOM      8  C   UNL     1       1.034  11.563  20.222  0.00  0.00    +0.000 C 
ATOM      9  O   UNL     1       1.220  11.703  21.431  0.00  0.00    +0.000 OA
ATOM     10  C   UNL     1       0.543  10.005  18.265  0.00  0.00    +0.000 C 
ATOM     11  C   UNL     1       1.710   9.172  17.736  0.00  0.00    +0.000 C 
ENDROOT
BRANCH   8  12
ATOM     12  C   UNL     1       1.071  12.780  19.288  0.00  0.00    +0.000 C 
ATOM     13  C   UNL     1       2.426  13.503  19.399  0.00  0.00    +0.000 C 
ATOM     14  C   UNL     1       2.412  14.852  18.697  0.00  0.00    +0.000 C 
ATOM     15  O   UNL     1       1.335  15.657  19.166  0.00  0.00    +0.000 OA
ATOM     16  C   UNL     1       0.069  15.066  18.891  0.00  0.00    +0.000 C 
ATOM     17  C   UNL     1      -0.078  13.739  19.625  0.00  0.00    +0.000 C 
ENDBRANCH   8  12
BRANCH   1  18
ATOM     18  C   UNL     1       3.448   4.960  19.869  0.00  0.00    +0.000 C 
BRANCH  18  20
ATOM     19  C   UNL     1       3.423   2.859  18.656  0.00  0.00    +0.000 C 
ATOM     20  N   UNL     1       3.877   4.260  18.634  0.00  0.00    +0.000 NA
BRANCH  20  21
ATOM     21  C   UNL     1       5.355   4.249  18.539  0.00  0.00    +0.000 C 
BRANCH  21  22
ATOM     22  C   UNL     1       5.880   4.528  17.170  0.00  0.00    +0.000 A 
ATOM     23  C   UNL     1       7.144   4.545  16.613  0.00  0.00    +0.000 A 
ATOM     24  C   UNL     1       6.972   4.894  15.249  0.00  0.00    +0.000 A 
ATOM     25  C   UNL     1       5.623   5.072  15.065  0.00  0.00    +0.000 A 
ATOM     26  O   UNL     1       4.951   4.852  16.223  0.00  0.00    +0.000 OA
ENDBRANCH  21  22
ENDBRANCH  20  21
ENDBRANCH  18  20
ENDBRANCH   1  18
TORSDOF 5
ENDMDL
MODEL 5
REMARK VINA RESULT:      -6.8      2.732      3.967
REMARK  Name = 
REMARK  6 active torsions:
REMARK  status: ('A' for Active; 'I' for Inactive)
REMARK    1  A    between atoms: C_1  and  N_2
REMARK    2  A    between atoms: N_2  and  C_3
REMARK    3  A    between atoms: N_2  and  C_21
REMARK    4  A    between atoms: C_3  and  C_4
REMARK    5  A    between atoms: C_11  and  C_13
REMARK    6  A    between atoms: C_21  and  C_22
REMARK                            x       y       z     vdW  Elec       q    Type
REMARK                         _______ _______ _______ _____ _____    ______ ____
ROOT
ATOM      1  C   UNL     1       2.528   8.193  18.381  0.00  0.00    +0.000 A 
ATOM      2  C   UNL     1       1.878   9.257  17.788  0.00  0.00    +0.000 A 
ATOM      3  N   UNL     1       0.925   9.632  18.682  0.00  0.00    +0.000 N 
ATOM      4  C   UNL     1       1.051   8.863  19.813  0.00  0.00    +0.000 A 
ATOM      5  N   UNL     1       1.999   7.962  19.641  0.00  0.00    +0.000 NA
ATOM      6  C   UNL     1       0.170   9.063  21.014  0.00  0.00    +0.000 C 
ATOM      7  N   UNL     1      -0.579  10.325  20.893  0.00  0.00    +0.000 N 
ATOM      8  C   UNL     1      -0.564  11.208  21.962  0.00  0.00    +0.000 C 
ATOM      9  O   UNL     1      -0.015  10.911  23.024  0.00  0.00    +0.000 OA
ATOM     10  C   UNL     1      -1.160  10.564  19.570  0.00  0.00    +0.000 C 
ATOM     11  C   UNL     1      -0.052  10.690  18.524  0.00  0.00    +0.000 C 
ENDROOT
BRANCH   8  12
ATOM     12  C   UNL     1      -1.285  12.555  21.816  0.00  0.00    +0.000 C 
ATOM     13  C   UNL     1      -0.451  13.684  22.448  0.00  0.00    +0.000 C 
ATOM     14  C   UNL     1      -1.237  14.981  22.560  0.00  0.00    +0.000 C 
ATOM     15  O   UNL     1      -2.465  14.771  23.251  0.00  0.00    +0.000 OA
ATOM     16  C   UNL     1      -3.316  13.862  22.560  0.00  0.00    +0.000 C 
ATOM     17  C   UNL     1      -2.673  12.484  22.467  0.00  0.00    +0.000 C 
ENDBRANCH   8  12
BRANCH   1  18
ATOM     18  C   UNL     1       3.668   7.371  17.850  0.00  0.00    +0.000 C 
BRANCH  18  20
ATOM     19  C   UNL     1       4.881   5.278  18.031  0.00  0.00    +0.000 C 
ATOM     20  N   UNL     1       3.621   5.973  18.344  0.00  0.00    +0.000 NA
BRANCH  20  21
ATOM     21  C   UNL     1       2.524   5.231  17.681  0.00  0.00    +0.000 C 
BRANCH  21  22
ATOM     22  C   UNL     1       1.834   4.245  18.563  0.00  0.00    +0.000 A 
ATOM     23  C   UNL     1       1.548   4.203  19.913  0.00  0.00    +0.000 A 
ATOM     24  C   UNL     1       0.869   2.978  20.138  0.00  0.00    +0.000 A 
ATOM     25  C   UNL     1       0.789   2.354  18.916  0.00  0.00    +0.000 A 
ATOM     26  O   UNL     1       1.371   3.114  17.955  0.00  0.00    +0.000 OA
ENDBRANCH  21  22
ENDBRANCH  20  21
ENDBRANCH  18  20
ENDBRANCH   1  18
TORSDOF 5
ENDMDL
MODEL 6
REMARK VINA RESULT:      -6.8      1.832      2.037
REMARK  Name = 
REMARK  6 active torsions:
REMARK  status: ('A' for Active; 'I' for Inactive)
REMARK    1  A    between atoms: C_1  and  N_2
REMARK    2  A    between atoms: N_2  and  C_3
REMARK    3  A    between atoms: N_2  and  C_21
REMARK    4  A    between atoms: C_3  and  C_4
REMARK    5  A    between atoms: C_11  and  C_13
REMARK    6  A    between atoms: C_21  and  C_22
REMARK                            x       y       z     vdW  Elec       q    Type
REMARK                         _______ _______ _______ _____ _____    ______ ____
ROOT
ATOM      1  C   UNL     1       2.457   6.967  19.622  0.00  0.00    +0.000 A 
ATOM      2  C   UNL     1       2.273   8.100  18.855  0.00  0.00    +0.000 A 
ATOM      3  N   UNL     1       1.281   8.791  19.479  0.00  0.00    +0.000 N 
ATOM      4  C   UNL     1       0.934   8.127  20.630  0.00  0.00    +0.000 A 
ATOM      5  N   UNL     1       1.614   7.000  20.722  0.00  0.00    +0.000 NA
ATOM      6  C   UNL     1      -0.107   8.659  21.574  0.00  0.00    +0.000 C 
ATOM      7  N   UNL     1      -0.437  10.054  21.234  0.00  0.00    +0.000 N 
ATOM      8  C   UNL     1      -0.425  11.001  22.247  0.00  0.00    +0.000 C 
ATOM      9  O   UNL     1      -0.233  10.676  23.419  0.00  0.00    +0.000 OA
ATOM     10  C   UNL     1      -0.617  10.307  19.803  0.00  0.00    +0.000 C 
ATOM     11  C   UNL     1       0.690  10.044  19.055  0.00  0.00    +0.000 C 
ENDROOT
BRANCH   8  12
ATOM     12  C   UNL     1      -0.700  12.468  21.888  0.00  0.00    +0.000 C 
ATOM     13  C   UNL     1       0.578  13.141  21.355  0.00  0.00    +0.000 C 
ATOM     14  C   UNL     1       0.422  14.649  21.236  0.00  0.00    +0.000 C 
ATOM     15  O   UNL     1      -0.007  15.213  22.472  0.00  0.00    +0.000 OA
ATOM     16  C   UNL     1      -1.283  14.723  22.867  0.00  0.00    +0.000 C 
ATOM     17  C   UNL     1      -1.232  13.221  23.114  0.00  0.00    +0.000 C 
ENDBRANCH   8  12
BRANCH   1  18
ATOM     18  C   UNL     1       3.419   5.832  19.410  0.00  0.00    +0.000 C 
BRANCH  18  20
ATOM     19  C   UNL     1       2.292   4.436  17.778  0.00  0.00    +0.000 C 
ATOM     20  N   UNL     1       3.417   5.358  18.004  0.00  0.00    +0.000 NA
BRANCH  20  21
ATOM     21  C   UNL     1       4.667   4.621  17.710  0.00  0.00    +0.000 C 
BRANCH  21  22
ATOM     22  C   UNL     1       5.913   5.391  18.000  0.00  0.00    +0.000 A 
ATOM     23  C   UNL     1       6.463   6.550  17.490  0.00  0.00    +0.000 A 
ATOM     24  C   UNL     1       7.680   6.753  18.189  0.00  0.00    +0.000 A 
ATOM     25  C   UNL     1       7.795   5.706  19.072  0.00  0.00    +0.000 A 
ATOM     26  O   UNL     1       6.728   4.875  18.965  0.00  0.00    +0.000 OA
ENDBRANCH  21  22
ENDBRANCH  20  21
ENDBRANCH  18  20
ENDBRANCH   1  18
TORSDOF 5
ENDMDL
MODEL 7
REMARK VINA RESULT:      -6.8      1.342      1.548
REMARK  Name = 
REMARK  6 active torsions:
REMARK  status: ('A' for Active; 'I' for Inactive)
REMARK    1  A    between atoms: C_1  and  N_2
REMARK    2  A    between atoms: N_2  and  C_3
REMARK    3  A    between atoms: N_2  and  C_21
REMARK    4  A    between atoms: C_3  and  C_4
REMARK    5  A    between atoms: C_11  and  C_13
REMARK    6  A    between atoms: C_21  and  C_22
REMARK                            x       y       z     vdW  Elec       q    Type
REMARK                         _______ _______ _______ _____ _____    ______ ____
ROOT
ATOM      1  C   UNL     1       3.332   6.432  18.737  0.00  0.00    +0.000 A 
ATOM      2  C   UNL     1       3.208   7.456  17.820  0.00  0.00    +0.000 A 
ATOM      3  N   UNL     1       2.293   8.305  18.360  0.00  0.00    +0.000 N 
ATOM      4  C   UNL     1       1.937   7.840  19.603  0.00  0.00    +0.000 A 
ATOM      5  N   UNL     1       2.533   6.688  19.841  0.00  0.00    +0.000 NA
ATOM      6  C   UNL     1       0.972   8.583  20.484  0.00  0.00    +0.000 C 
ATOM      7  N   UNL     1       0.736   9.937  19.955  0.00  0.00    +0.000 N 
ATOM      8  C   UNL     1       0.855  11.014  20.820  0.00  0.00    +0.000 C 
ATOM      9  O   UNL     1       1.063  10.844  22.022  0.00  0.00    +0.000 OA
ATOM     10  C   UNL     1       0.527   9.998  18.506  0.00  0.00    +0.000 C 
ATOM     11  C   UNL     1       1.784   9.528  17.774  0.00  0.00    +0.000 C 
ENDROOT
BRANCH   8  12
ATOM     12  C   UNL     1       0.679  12.432  20.260  0.00  0.00    +0.000 C 
ATOM     13  C   UNL     1       2.050  13.091  20.022  0.00  0.00    +0.000 C 
ATOM     14  C   UNL     1       1.924  14.577  19.720  0.00  0.00    +0.000 C 
ATOM     15  O   UNL     1       1.179  15.240  20.737  0.00  0.00    +0.000 OA
ATOM     16  C   UNL     1      -0.155  14.750  20.825  0.00  0.00    +0.000 C 
ATOM     17  C   UNL     1      -0.164  13.279  21.222  0.00  0.00    +0.000 C 
ENDBRANCH   8  12
BRANCH   1  18
ATOM     18  C   UNL     1       4.199   5.206  18.668  0.00  0.00    +0.000 C 
BRANCH  18  20
ATOM     19  C   UNL     1       4.117   3.797  16.695  0.00  0.00    +0.000 C 
ATOM     20  N   UNL     1       4.738   4.984  17.305  0.00  0.00    +0.000 NA
BRANCH  20  21
ATOM     21  C   UNL     1       6.199   4.745  17.364  0.00  0.00    +0.000 C 
BRANCH  21  22
ATOM     22  C   UNL     1       6.999   5.946  17.741  0.00  0.00    +0.000 A 
ATOM     23  C   UNL     1       7.811   6.259  18.814  0.00  0.00    +0.000 A 
ATOM     24  C   UNL     1       8.282   7.577  18.584  0.00  0.00    +0.000 A 
ATOM     25  C   UNL     1       7.726   7.982  17.396  0.00  0.00    +0.000 A 
ATOM     26  O   UNL     1       6.947   7.000  16.876  0.00  0.00    +0.000 OA
ENDBRANCH  21  22
ENDBRANCH  20  21
ENDBRANCH  18  20
ENDBRANCH   1  18
TORSDOF 5
ENDMDL
MODEL 8
REMARK VINA RESULT:      -6.8      1.026      1.071
REMARK  Name = 
REMARK  6 active torsions:
REMARK  status: ('A' for Active; 'I' for Inactive)
REMARK    1  A    between atoms: C_1  and  N_2
REMARK    2  A    between atoms: N_2  and  C_3
REMARK    3  A    between atoms: N_2  and  C_21
REMARK    4  A    between atoms: C_3  and  C_4
REMARK    5  A    between atoms: C_11  and  C_13
REMARK    6  A    between atoms: C_21  and  C_22
REMARK                            x       y       z     vdW  Elec       q    Type
REMARK                         _______ _______ _______ _____ _____    ______ ____
ROOT
ATOM      1  C   UNL     1       2.260   6.760  19.850  0.00  0.00    +0.000 A 
ATOM      2  C   UNL     1       2.345   7.413  18.636  0.00  0.00    +0.000 A 
ATOM      3  N   UNL     1       1.736   8.612  18.837  0.00  0.00    +0.000 N 
ATOM      4  C   UNL     1       1.365   8.706  20.156  0.00  0.00    +0.000 A 
ATOM      5  N   UNL     1       1.646   7.580  20.784  0.00  0.00    +0.000 NA
ATOM      6  C   UNL     1       0.705   9.936  20.713  0.00  0.00    +0.000 C 
ATOM      7  N   UNL     1       0.802  11.046  19.750  0.00  0.00    +0.000 N 
ATOM      8  C   UNL     1       1.271  12.271  20.199  0.00  0.00    +0.000 C 
ATOM      9  O   UNL     1       1.518  12.460  21.391  0.00  0.00    +0.000 OA
ATOM     10  C   UNL     1       0.506  10.678  18.363  0.00  0.00    +0.000 C 
ATOM     11  C   UNL     1       1.530   9.662  17.860  0.00  0.00    +0.000 C 
ENDROOT
BRANCH   8  12
ATOM     12  C   UNL     1       1.439  13.412  19.186  0.00  0.00    +0.000 C 
ATOM     13  C   UNL     1       2.927  13.616  18.847  0.00  0.00    +0.000 C 
ATOM     14  C   UNL     1       3.163  14.895  18.058  0.00  0.00    +0.000 C 
ATOM     15  O   UNL     1       2.609  16.018  18.736  0.00  0.00    +0.000 OA
ATOM     16  C   UNL     1       1.197  15.909  18.881  0.00  0.00    +0.000 C 
ATOM     17  C   UNL     1       0.834  14.707  19.744  0.00  0.00    +0.000 C 
ENDBRANCH   8  12
BRANCH   1  18
ATOM     18  C   UNL     1       2.758   5.391  20.219  0.00  0.00    +0.000 C 
BRANCH  18  20
ATOM     19  C   UNL     1       2.454   3.492  18.741  0.00  0.00    +0.000 C 
ATOM     20  N   UNL     1       3.295   4.661  19.045  0.00  0.00    +0.000 NA
BRANCH  20  21
ATOM     21  C   UNL     1       4.662   4.167  19.331  0.00  0.00    +0.000 C 
BRANCH  21  22
ATOM     22  C   UNL     1       5.622   4.339  18.201  0.00  0.00    +0.000 A 
ATOM     23  C   UNL     1       5.481   4.447  16.832  0.00  0.00    +0.000 A 
ATOM     24  C   UNL     1       6.791   4.586  16.308  0.00  0.00    +0.000 A 
ATOM     25  C   UNL     1       7.642   4.549  17.385  0.00  0.00    +0.000 A 
ATOM     26  O   UNL     1       6.943   4.401  18.538  0.00  0.00    +0.000 OA
ENDBRANCH  21  22
ENDBRANCH  20  21
ENDBRANCH  18  20
ENDBRANCH   1  18
TORSDOF 5
ENDMDL
MODEL 9
REMARK VINA RESULT:      -6.7      5.548      9.108
REMARK  Name = 
REMARK  6 active torsions:
REMARK  status: ('A' for Active; 'I' for Inactive)
REMARK    1  A    between atoms: C_1  and  N_2
REMARK    2  A    between atoms: N_2  and  C_3
REMARK    3  A    between atoms: N_2  and  C_21
REMARK    4  A    between atoms: C_3  and  C_4
REMARK    5  A    between atoms: C_11  and  C_13
REMARK    6  A    between atoms: C_21  and  C_22
REMARK                            x       y       z     vdW  Elec       q    Type
REMARK                         _______ _______ _______ _____ _____    ______ ____
ROOT
ATOM      1  C   UNL     1       8.481   8.920  18.496  0.00  0.00    +0.000 A 
ATOM      2  C   UNL     1       7.478   8.922  17.548  0.00  0.00    +0.000 A 
ATOM      3  N   UNL     1       7.091   7.622  17.441  0.00  0.00    +0.000 N 
ATOM      4  C   UNL     1       7.791   6.875  18.357  0.00  0.00    +0.000 A 
ATOM      5  N   UNL     1       8.663   7.638  18.988  0.00  0.00    +0.000 NA
ATOM      6  C   UNL     1       7.559   5.399  18.524  0.00  0.00    +0.000 C 
ATOM      7  N   UNL     1       6.335   4.992  17.813  0.00  0.00    +0.000 N 
ATOM      8  C   UNL     1       5.395   4.236  18.496  0.00  0.00    +0.000 C 
ATOM      9  O   UNL     1       5.612   3.835  19.641  0.00  0.00    +0.000 OA
ATOM     10  C   UNL     1       6.193   5.560  16.470  0.00  0.00    +0.000 C 
ATOM     11  C   UNL     1       6.082   7.082  16.553  0.00  0.00    +0.000 C 
ENDROOT
BRANCH   8  12
ATOM     12  C   UNL     1       4.087   3.866  17.783  0.00  0.00    +0.000 C 
ATOM     13  C   UNL     1       2.964   4.843  18.178  0.00  0.00    +0.000 C 
ATOM     14  C   UNL     1       1.600   4.364  17.706  0.00  0.00    +0.000 C 
ATOM     15  O   UNL     1       1.343   3.039  18.161  0.00  0.00    +0.000 OA
ATOM     16  C   UNL     1       2.281   2.105  17.638  0.00  0.00    +0.000 C 
ATOM     17  C   UNL     1       3.689   2.424  18.124  0.00  0.00    +0.000 C 
ENDBRANCH   8  12
BRANCH   1  18
ATOM     18  C   UNL     1       9.287  10.078  19.015  0.00  0.00    +0.000 C 
BRANCH  18  20
ATOM     19  C   UNL     1      10.956  11.435  17.893  0.00  0.00    +0.000 C 
ATOM     20  N   UNL     1       9.524  11.103  17.970  0.00  0.00    +0.000 NA
BRANCH  20  21
ATOM     21  C   UNL     1       8.793  12.348  18.299  0.00  0.00    +0.000 C 
BRANCH  21  22
ATOM     22  C   UNL     1       9.557  13.294  19.164  0.00  0.00    +0.000 A 
ATOM     23  C   UNL     1       9.920  13.295  20.496  0.00  0.00    +0.000 A 
ATOM     24  C   UNL     1      10.641  14.497  20.711  0.00  0.00    +0.000 A 
ATOM     25  C   UNL     1      10.667  15.150  19.502  0.00  0.00    +0.000 A 
ATOM     26  O   UNL     1      10.013  14.429  18.558  0.00  0.00    +0.000 OA
ENDBRANCH  21  22
ENDBRANCH  20  21
ENDBRANCH  18  20
ENDBRANCH   1  18
TORSDOF 5
ENDMDL
