MODEL 1
REMARK VINA RESULT:      -8.0      0.000      0.000
REMARK  Name = 
REMARK  5 active torsions:
REMARK  status: ('A' for Active; 'I' for Inactive)
REMARK    1  A    between atoms: C_1  and  O_2
REMARK    2  A    between atoms: O_2  and  C_3
REMARK    3  A    between atoms: C_6  and  C_7
REMARK    4  A    between atoms: C_11  and  O_12
REMARK    5  A    between atoms: C_18  and  C_19
REMARK                            x       y       z     vdW  Elec       q    Type
REMARK                         _______ _______ _______ _____ _____    ______ ____
ROOT
ATOM      1  C   UNL     1       5.292   4.710  16.868  0.00  0.00    +0.000 A 
ATOM      2  C   UNL     1       6.486   5.436  16.919  0.00  0.00    +0.000 A 
ATOM      3  C   UNL     1       7.282   5.627  15.782  0.00  0.00    +0.000 A 
ATOM      4  C   UNL     1       6.970   5.020  14.545  0.00  0.00    +0.000 A 
ATOM      5  C   UNL     1       7.743   5.141  13.367  0.00  0.00    +0.000 A 
ATOM      6  C   UNL     1       7.399   4.468  12.198  0.00  0.00    +0.000 A 
ATOM      7  C   UNL     1       6.275   3.652  12.172  0.00  0.00    +0.000 A 
ATOM      8  C   UNL     1       5.482   3.535  13.312  0.00  0.00    +0.000 A 
ATOM      9  C   UNL     1       5.808   4.215  14.498  0.00  0.00    +0.000 A 
ATOM     10  C   UNL     1       4.984   4.101  15.635  0.00  0.00    +0.000 A 
ENDROOT
BRANCH   1  14
ATOM     11  C   UNL     1       2.721   4.050  20.311  0.00  0.00    +0.000 A 
ATOM     12  C   UNL     1       3.569   3.062  19.839  0.00  0.00    +0.000 A 
ATOM     13  C   UNL     1       4.398   3.319  18.741  0.00  0.00    +0.000 A 
ATOM     14  C   UNL     1       4.394   4.553  18.048  0.00  0.00    +0.000 A 
ATOM     15  C   UNL     1       3.504   5.548  18.527  0.00  0.00    +0.000 A 
ATOM     16  C   UNL     1       3.328   6.917  17.923  0.00  0.00    +0.000 C 
ATOM     17  C   UNL     1       2.708   5.285  19.666  0.00  0.00    +0.000 A 
BRANCH  11  19
ATOM     18  C   UNL     1       1.440   2.632  21.717  0.00  0.00    +0.000 C 
ATOM     19  O   UNL     1       1.869   3.944  21.375  0.00  0.00    +0.000 OA
ENDBRANCH  11  19
ENDBRANCH   1  14
BRANCH   5  20
ATOM     20  O   UNL     1       8.877   5.905  13.281  0.00  0.00    +0.000 OA
ATOM     21  H   UNL     1       8.683   6.808  13.563  0.00  0.00    +0.000 HD
ENDBRANCH   5  20
TORSDOF 3
ENDMDL
MODEL 2
REMARK VINA RESULT:      -7.8      3.687      8.033
REMARK  Name = 
REMARK  5 active torsions:
REMARK  status: ('A' for Active; 'I' for Inactive)
REMARK    1  A    between atoms: C_1  and  O_2
REMARK    2  A    between atoms: O_2  and  C_3
REMARK    3  A    between atoms: C_6  and  C_7
REMARK    4  A    between atoms: C_11  and  O_12
REMARK    5  A    between atoms: C_18  and  C_19
REMARK                            x       y       z     vdW  Elec       q    Type
REMARK                         _______ _______ _______ _____ _____    ______ ____
ROOT
ATOM      1  C   UNL     1       2.420   7.575  18.460  0.00  0.00    +0.000 A 
ATOM      2  C   UNL     1       1.830   8.607  17.723  0.00  0.00    +0.000 A 
ATOM      3  C   UNL     1       1.083   9.619  18.341  0.00  0.00    +0.000 A 
ATOM      4  C   UNL     1       0.808   9.600  19.726  0.00  0.00    +0.000 A 
ATOM      5  C   UNL     1       0.035  10.567  20.411  0.00  0.00    +0.000 A 
ATOM      6  C   UNL     1      -0.237  10.452  21.771  0.00  0.00    +0.000 A 
ATOM      7  C   UNL     1       0.251   9.366  22.487  0.00  0.00    +0.000 A 
ATOM      8  C   UNL     1       1.036   8.412  21.842  0.00  0.00    +0.000 A 
ATOM      9  C   UNL     1       1.330   8.517  20.472  0.00  0.00    +0.000 A 
ATOM     10  C   UNL     1       2.142   7.555  19.841  0.00  0.00    +0.000 A 
ENDROOT
BRANCH   1  14
ATOM     11  C   UNL     1       5.037   4.674  16.551  0.00  0.00    +0.000 A 
ATOM     12  C   UNL     1       5.346   6.025  16.576  0.00  0.00    +0.000 A 
ATOM     13  C   UNL     1       4.490   6.925  17.220  0.00  0.00    +0.000 A 
ATOM     14  C   UNL     1       3.278   6.528  17.833  0.00  0.00    +0.000 A 
ATOM     15  C   UNL     1       2.962   5.146  17.779  0.00  0.00    +0.000 A 
ATOM     16  C   UNL     1       1.715   4.519  18.349  0.00  0.00    +0.000 C 
ATOM     17  C   UNL     1       3.862   4.246  17.165  0.00  0.00    +0.000 A 
BRANCH  11  19
ATOM     18  C   UNL     1       6.286   3.949  14.670  0.00  0.00    +0.000 C 
ATOM     19  O   UNL     1       5.782   3.685  15.973  0.00  0.00    +0.000 OA
ENDBRANCH  11  19
ENDBRANCH   1  14
BRANCH   5  20
ATOM     20  O   UNL     1      -0.509  11.669  19.804  0.00  0.00    +0.000 OA
ATOM     21  H   UNL     1      -0.413  12.438  20.380  0.00  0.00    +0.000 HD
ENDBRANCH   5  20
TORSDOF 3
ENDMDL
MODEL 3
REMARK VINA RESULT:      -7.6      3.251      7.781
REMARK  Name = 
REMARK  5 active torsions:
REMARK  status: ('A' for Active; 'I' for Inactive)
REMARK    1  A    between atoms: C_1  and  O_2
REMARK    2  A    between atoms: O_2  and  C_3
REMARK    3  A    between atoms: C_6  and  C_7
REMARK    4  A    between atoms: C_11  and  O_12
REMARK    5  A    between atoms: C_18  and  C_19
REMARK                            x       y       z     vdW  Elec       q    Type
REMARK                         _______ _______ _______ _____ _____    ______ ____
ROOT
ATOM      1  C   UNL     1       2.694   6.967  18.711  0.00  0.00    +0.000 A 
ATOM      2  C   UNL     1       2.352   6.677  20.036  0.00  0.00    +0.000 A 
ATOM      3  C   UNL     1       1.497   7.506  20.775  0.00  0.00    +0.000 A 
ATOM      4  C   UNL     1       1.009   8.725  20.254  0.00  0.00    +0.000 A 
ATOM      5  C   UNL     1       0.171   9.625  20.953  0.00  0.00    +0.000 A 
ATOM      6  C   UNL     1      -0.226  10.835  20.391  0.00  0.00    +0.000 A 
ATOM      7  C   UNL     1       0.204  11.183  19.116  0.00  0.00    +0.000 A 
ATOM      8  C   UNL     1       1.009  10.302  18.396  0.00  0.00    +0.000 A 
ATOM      9  C   UNL     1       1.412   9.072  18.943  0.00  0.00    +0.000 A 
ATOM     10  C   UNL     1       2.209   8.185  18.194  0.00  0.00    +0.000 A 
ENDROOT
BRANCH   1  14
ATOM     11  C   UNL     1       5.299   4.495  16.261  0.00  0.00    +0.000 A 
ATOM     12  C   UNL     1       5.657   5.782  16.631  0.00  0.00    +0.000 A 
ATOM     13  C   UNL     1       4.801   6.539  17.439  0.00  0.00    +0.000 A 
ATOM     14  C   UNL     1       3.544   6.064  17.883  0.00  0.00    +0.000 A 
ATOM     15  C   UNL     1       3.180   4.755  17.478  0.00  0.00    +0.000 A 
ATOM     16  C   UNL     1       1.882   4.069  17.821  0.00  0.00    +0.000 C 
ATOM     17  C   UNL     1       4.078   3.988  16.700  0.00  0.00    +0.000 A 
BRANCH  11  19
ATOM     18  C   UNL     1       6.210   4.006  14.127  0.00  0.00    +0.000 C 
ATOM     19  O   UNL     1       6.037   3.641  15.490  0.00  0.00    +0.000 OA
ENDBRANCH  11  19
ENDBRANCH   1  14
BRANCH   5  20
ATOM     20  O   UNL     1      -0.300   9.394  22.218  0.00  0.00    +0.000 OA
ATOM     21  H   UNL     1       0.197   8.672  22.623  0.00  0.00    +0.000 HD
ENDBRANCH   5  20
TORSDOF 3
ENDMDL
MODEL 4
REMARK VINA RESULT:      -7.6      1.032      1.226
REMARK  Name = 
REMARK  5 active torsions:
REMARK  status: ('A' for Active; 'I' for Inactive)
REMARK    1  A    between atoms: C_1  and  O_2
REMARK    2  A    between atoms: O_2  and  C_3
REMARK    3  A    between atoms: C_6  and  C_7
REMARK    4  A    between atoms: C_11  and  O_12
REMARK    5  A    between atoms: C_18  and  C_19
REMARK                            x       y       z     vdW  Elec       q    Type
REMARK                         _______ _______ _______ _____ _____    ______ ____
ROOT
ATOM      1  C   UNL     1       4.987   4.420  16.449  0.00  0.00    +0.000 A 
ATOM      2  C   UNL     1       6.116   5.220  16.651  0.00  0.00    +0.000 A 
ATOM      3  C   UNL     1       7.011   5.509  15.612  0.00  0.00    +0.000 A 
ATOM      4  C   UNL     1       6.872   4.933  14.330  0.00  0.00    +0.000 A 
ATOM      5  C   UNL     1       7.754   5.152  13.245  0.00  0.00    +0.000 A 
ATOM      6  C   UNL     1       7.581   4.506  12.024  0.00  0.00    +0.000 A 
ATOM      7  C   UNL     1       6.525   3.619  11.852  0.00  0.00    +0.000 A 
ATOM      8  C   UNL     1       5.627   3.405  12.897  0.00  0.00    +0.000 A 
ATOM      9  C   UNL     1       5.780   4.056  14.132  0.00  0.00    +0.000 A 
ATOM     10  C   UNL     1       4.853   3.843  15.170  0.00  0.00    +0.000 A 
ENDROOT
BRANCH   1  14
ATOM     11  C   UNL     1       1.926   3.603  19.426  0.00  0.00    +0.000 A 
ATOM     12  C   UNL     1       1.744   3.281  18.091  0.00  0.00    +0.000 A 
ATOM     13  C   UNL     1       2.762   3.540  17.165  0.00  0.00    +0.000 A 
ATOM     14  C   UNL     1       3.984   4.157  17.521  0.00  0.00    +0.000 A 
ATOM     15  C   UNL     1       4.148   4.502  18.886  0.00  0.00    +0.000 A 
ATOM     16  C   UNL     1       5.360   5.184  19.469  0.00  0.00    +0.000 C 
ATOM     17  C   UNL     1       3.128   4.191  19.814  0.00  0.00    +0.000 A 
BRANCH  11  19
ATOM     18  C   UNL     1       1.533   2.791  21.620  0.00  0.00    +0.000 C 
ATOM     19  O   UNL     1       1.029   3.398  20.437  0.00  0.00    +0.000 OA
ENDBRANCH  11  19
ENDBRANCH   1  14
BRANCH   5  20
ATOM     20  O   UNL     1       8.835   5.991  13.306  0.00  0.00    +0.000 OA
ATOM     21  H   UNL     1       9.649   5.473  13.304  0.00  0.00    +0.000 HD
ENDBRANCH   5  20
TORSDOF 3
ENDMDL
MODEL 5
REMARK VINA RESULT:      -7.5      0.552      1.557
REMARK  Name = 
REMARK  5 active torsions:
REMARK  status: ('A' for Active; 'I' for Inactive)
REMARK    1  A    between atoms: C_1  and  O_2
REMARK    2  A    between atoms: O_2  and  C_3
REMARK    3  A    between atoms: C_6  and  C_7
REMARK    4  A    between atoms: C_11  and  O_12
REMARK    5  A    between atoms: C_18  and  C_19
REMARK                            x       y       z     vdW  Elec       q    Type
REMARK                         _______ _______ _______ _____ _____    ______ ____
ROOT
ATOM      1  C   UNL     1       5.087   4.644  16.797  0.00  0.00    +0.000 A 
ATOM      2  C   UNL     1       6.276   5.373  16.912  0.00  0.00    +0.000 A 
ATOM      3  C   UNL     1       7.122   5.582  15.815  0.00  0.00    +0.000 A 
ATOM      4  C   UNL     1       6.869   4.991  14.557  0.00  0.00    +0.000 A 
ATOM      5  C   UNL     1       7.695   5.130  13.417  0.00  0.00    +0.000 A 
ATOM      6  C   UNL     1       7.406   4.472  12.225  0.00  0.00    +0.000 A 
ATOM      7  C   UNL     1       6.288   3.653  12.137  0.00  0.00    +0.000 A 
ATOM      8  C   UNL     1       5.443   3.518  13.238  0.00  0.00    +0.000 A 
ATOM      9  C   UNL     1       5.712   4.183  14.446  0.00  0.00    +0.000 A 
ATOM     10  C   UNL     1       4.838   4.052  15.542  0.00  0.00    +0.000 A 
ENDROOT
BRANCH   1  14
ATOM     11  C   UNL     1       2.354   4.332  20.163  0.00  0.00    +0.000 A 
ATOM     12  C   UNL     1       2.897   5.548  19.779  0.00  0.00    +0.000 A 
ATOM     13  C   UNL     1       3.756   5.611  18.676  0.00  0.00    +0.000 A 
ATOM     14  C   UNL     1       4.137   4.469  17.932  0.00  0.00    +0.000 A 
ATOM     15  C   UNL     1       3.593   3.228  18.350  0.00  0.00    +0.000 A 
ATOM     16  C   UNL     1       3.884   1.895  17.712  0.00  0.00    +0.000 C 
ATOM     17  C   UNL     1       2.690   3.191  19.438  0.00  0.00    +0.000 A 
BRANCH  11  19
ATOM     18  C   UNL     1       1.368   2.783  21.664  0.00  0.00    +0.000 C 
ATOM     19  O   UNL     1       1.496   4.123  21.206  0.00  0.00    +0.000 OA
ENDBRANCH  11  19
ENDBRANCH   1  14
BRANCH   5  20
ATOM     20  O   UNL     1       8.829   5.898  13.394  0.00  0.00    +0.000 OA
ATOM     21  H   UNL     1       9.300   5.756  12.563  0.00  0.00    +0.000 HD
ENDBRANCH   5  20
TORSDOF 3
ENDMDL
MODEL 6
REMARK VINA RESULT:      -7.3      3.653      5.448
REMARK  Name = 
REMARK  5 active torsions:
REMARK  status: ('A' for Active; 'I' for Inactive)
REMARK    1  A    between atoms: C_1  and  O_2
REMARK    2  A    between atoms: O_2  and  C_3
REMARK    3  A    between atoms: C_6  and  C_7
REMARK    4  A    between atoms: C_11  and  O_12
REMARK    5  A    between atoms: C_18  and  C_19
REMARK                            x       y       z     vdW  Elec       q    Type
REMARK                         _______ _______ _______ _____ _____    ______ ____
ROOT
ATOM      1  C   UNL     1       2.439   6.947  19.165  0.00  0.00    +0.000 A 
ATOM      2  C   UNL     1       2.225   5.605  19.496  0.00  0.00    +0.000 A 
ATOM      3  C   UNL     1       2.941   4.571  18.879  0.00  0.00    +0.000 A 
ATOM      4  C   UNL     1       3.848   4.821  17.825  0.00  0.00    +0.000 A 
ATOM      5  C   UNL     1       4.580   3.826  17.135  0.00  0.00    +0.000 A 
ATOM      6  C   UNL     1       5.417   4.145  16.069  0.00  0.00    +0.000 A 
ATOM      7  C   UNL     1       5.546   5.466  15.660  0.00  0.00    +0.000 A 
ATOM      8  C   UNL     1       4.856   6.469  16.339  0.00  0.00    +0.000 A 
ATOM      9  C   UNL     1       4.015   6.167  17.424  0.00  0.00    +0.000 A 
ATOM     10  C   UNL     1       3.341   7.194  18.111  0.00  0.00    +0.000 A 
ENDROOT
BRANCH   1  14
ATOM     11  C   UNL     1       0.385  10.093  21.354  0.00  0.00    +0.000 A 
ATOM     12  C   UNL     1       0.811   8.932  21.980  0.00  0.00    +0.000 A 
ATOM     13  C   UNL     1       1.488   7.952  21.246  0.00  0.00    +0.000 A 
ATOM     14  C   UNL     1       1.740   8.068  19.858  0.00  0.00    +0.000 A 
ATOM     15  C   UNL     1       1.278   9.250  19.226  0.00  0.00    +0.000 A 
ATOM     16  C   UNL     1       1.424   9.562  17.758  0.00  0.00    +0.000 C 
ATOM     17  C   UNL     1       0.637  10.250  19.993  0.00  0.00    +0.000 A 
BRANCH  11  19
ATOM     18  C   UNL     1      -1.083  10.818  23.070  0.00  0.00    +0.000 C 
ATOM     19  O   UNL     1      -0.273  11.135  21.945  0.00  0.00    +0.000 OA
ENDBRANCH  11  19
ENDBRANCH   1  14
BRANCH   5  20
ATOM     20  O   UNL     1       4.519   2.492  17.441  0.00  0.00    +0.000 OA
ATOM     21  H   UNL     1       5.320   2.230  17.912  0.00  0.00    +0.000 HD
ENDBRANCH   5  20
TORSDOF 3
ENDMDL
MODEL 7
REMARK VINA RESULT:      -7.2      3.968      6.290
REMARK  Name = 
REMARK  5 active torsions:
REMARK  status: ('A' for Active; 'I' for Inactive)
REMARK    1  A    between atoms: C_1  and  O_2
REMARK    2  A    between atoms: O_2  and  C_3
REMARK    3  A    between atoms: C_6  and  C_7
REMARK    4  A    between atoms: C_11  and  O_12
REMARK    5  A    between atoms: C_18  and  C_19
REMARK                            x       y       z     vdW  Elec       q    Type
REMARK                         _______ _______ _______ _____ _____    ______ ____
ROOT
ATOM      1  C   UNL     1       2.221   6.832  19.611  0.00  0.00    +0.000 A 
ATOM      2  C   UNL     1       3.355   6.817  18.793  0.00  0.00    +0.000 A 
ATOM      3  C   UNL     1       3.821   5.636  18.199  0.00  0.00    +0.000 A 
ATOM      4  C   UNL     1       3.226   4.383  18.469  0.00  0.00    +0.000 A 
ATOM      5  C   UNL     1       3.662   3.149  17.934  0.00  0.00    +0.000 A 
ATOM      6  C   UNL     1       3.057   1.947  18.289  0.00  0.00    +0.000 A 
ATOM      7  C   UNL     1       2.001   1.942  19.192  0.00  0.00    +0.000 A 
ATOM      8  C   UNL     1       1.535   3.147  19.715  0.00  0.00    +0.000 A 
ATOM      9  C   UNL     1       2.127   4.371  19.360  0.00  0.00    +0.000 A 
ATOM     10  C   UNL     1       1.631   5.581  19.882  0.00  0.00    +0.000 A 
ENDROOT
BRANCH   1  14
ATOM     11  C   UNL     1       0.590  10.393  21.497  0.00  0.00    +0.000 A 
ATOM     12  C   UNL     1       0.968   9.286  22.241  0.00  0.00    +0.000 A 
ATOM     13  C   UNL     1       1.509   8.166  21.599  0.00  0.00    +0.000 A 
ATOM     14  C   UNL     1       1.666   8.087  20.195  0.00  0.00    +0.000 A 
ATOM     15  C   UNL     1       1.254   9.217  19.444  0.00  0.00    +0.000 A 
ATOM     16  C   UNL     1       1.315   9.330  17.943  0.00  0.00    +0.000 C 
ATOM     17  C   UNL     1       0.753  10.357  20.114  0.00  0.00    +0.000 A 
BRANCH  11  19
ATOM     18  C   UNL     1      -1.074  11.426  22.835  0.00  0.00    +0.000 C 
ATOM     19  O   UNL     1       0.061  11.554  21.988  0.00  0.00    +0.000 OA
ENDBRANCH  11  19
ENDBRANCH   1  14
BRANCH   5  20
ATOM     20  O   UNL     1       4.701   3.033  17.049  0.00  0.00    +0.000 OA
ATOM     21  H   UNL     1       5.420   3.621  17.313  0.00  0.00    +0.000 HD
ENDBRANCH   5  20
TORSDOF 3
ENDMDL
MODEL 8
REMARK VINA RESULT:      -7.1      3.922      6.083
REMARK  Name = 
REMARK  5 active torsions:
REMARK  status: ('A' for Active; 'I' for Inactive)
REMARK    1  A    between atoms: C_1  and  O_2
REMARK    2  A    between atoms: O_2  and  C_3
REMARK    3  A    between atoms: C_6  and  C_7
REMARK    4  A    between atoms: C_11  and  O_12
REMARK    5  A    between atoms: C_18  and  C_19
REMARK                            x       y       z     vdW  Elec       q    Type
REMARK                         _______ _______ _______ _____ _____    ______ ____
ROOT
ATOM      1  C   UNL     1       2.372   7.605  18.882  0.00  0.00    +0.000 A 
ATOM      2  C   UNL     1       2.488   6.497  19.728  0.00  0.00    +0.000 A 
ATOM      3  C   UNL     1       3.468   5.516  19.527  0.00  0.00    +0.000 A 
ATOM      4  C   UNL     1       4.330   5.544  18.408  0.00  0.00    +0.000 A 
ATOM      5  C   UNL     1       5.318   4.572  18.123  0.00  0.00    +0.000 A 
ATOM      6  C   UNL     1       6.095   4.640  16.970  0.00  0.00    +0.000 A 
ATOM      7  C   UNL     1       5.906   5.678  16.066  0.00  0.00    +0.000 A 
ATOM      8  C   UNL     1       4.957   6.662  16.335  0.00  0.00    +0.000 A 
ATOM      9  C   UNL     1       4.170   6.616  17.499  0.00  0.00    +0.000 A 
ATOM     10  C   UNL     1       3.230   7.630  17.765  0.00  0.00    +0.000 A 
ENDROOT
BRANCH   1  14
ATOM     11  C   UNL     1      -0.495  10.837  19.368  0.00  0.00    +0.000 A 
ATOM     12  C   UNL     1      -0.056  10.438  18.115  0.00  0.00    +0.000 A 
ATOM     13  C   UNL     1       0.851   9.379  17.998  0.00  0.00    +0.000 A 
ATOM     14  C   UNL     1       1.383   8.697  19.118  0.00  0.00    +0.000 A 
ATOM     15  C   UNL     1       0.944   9.130  20.394  0.00  0.00    +0.000 A 
ATOM     16  C   UNL     1       1.401   8.556  21.711  0.00  0.00    +0.000 C 
ATOM     17  C   UNL     1      -0.008  10.172  20.490  0.00  0.00    +0.000 A 
BRANCH  11  19
ATOM     18  C   UNL     1      -2.603  11.819  18.900  0.00  0.00    +0.000 C 
ATOM     19  O   UNL     1      -1.383  11.842  19.630  0.00  0.00    +0.000 OA
ENDBRANCH  11  19
ENDBRANCH   1  14
BRANCH   5  20
ATOM     20  O   UNL     1       5.580   3.500  18.934  0.00  0.00    +0.000 OA
ATOM     21  H   UNL     1       5.331   3.711  19.843  0.00  0.00    +0.000 HD
ENDBRANCH   5  20
TORSDOF 3
ENDMDL
MODEL 9
REMARK VINA RESULT:      -7.1      4.343      7.390
REMARK  Name = 
REMARK  5 active torsions:
REMARK  status: ('A' for Active; 'I' for Inactive)
REMARK    1  A    between atoms: C_1  and  O_2
REMARK    2  A    between atoms: O_2  and  C_3
REMARK    3  A    between atoms: C_6  and  C_7
REMARK    4  A    between atoms: C_11  and  O_12
REMARK    5  A    between atoms: C_18  and  C_19
REMARK                            x       y       z     vdW  Elec       q    Type
REMARK                         _______ _______ _______ _____ _____    ______ ____
ROOT
ATOM      1  C   UNL     1       2.376   6.945  19.411  0.00  0.00    +0.000 A 
ATOM      2  C   UNL     1       2.302   7.651  18.206  0.00  0.00    +0.000 A 
ATOM      3  C   UNL     1       1.739   8.932  18.136  0.00  0.00    +0.000 A 
ATOM      4  C   UNL     1       1.131   9.540  19.257  0.00  0.00    +0.000 A 
ATOM      5  C   UNL     1       0.515  10.813  19.252  0.00  0.00    +0.000 A 
ATOM      6  C   UNL     1      -0.111  11.324  20.386  0.00  0.00    +0.000 A 
ATOM      7  C   UNL     1      -0.142  10.577  21.557  0.00  0.00    +0.000 A 
ATOM      8  C   UNL     1       0.480   9.330  21.596  0.00  0.00    +0.000 A 
ATOM      9  C   UNL     1       1.125   8.803  20.465  0.00  0.00    +0.000 A 
ATOM     10  C   UNL     1       1.766   7.551  20.528  0.00  0.00    +0.000 A 
ENDROOT
BRANCH   1  14
ATOM     11  C   UNL     1       4.460   3.136  19.639  0.00  0.00    +0.000 A 
ATOM     12  C   UNL     1       5.097   4.287  19.202  0.00  0.00    +0.000 A 
ATOM     13  C   UNL     1       4.398   5.499  19.164  0.00  0.00    +0.000 A 
ATOM     14  C   UNL     1       3.034   5.611  19.523  0.00  0.00    +0.000 A 
ATOM     15  C   UNL     1       2.388   4.422  19.945  0.00  0.00    +0.000 A 
ATOM     16  C   UNL     1       0.940   4.317  20.350  0.00  0.00    +0.000 C 
ATOM     17  C   UNL     1       3.123   3.216  20.022  0.00  0.00    +0.000 A 
BRANCH  11  19
ATOM     18  C   UNL     1       5.080   1.328  21.043  0.00  0.00    +0.000 C 
ATOM     19  O   UNL     1       5.018   1.893  19.739  0.00  0.00    +0.000 OA
ENDBRANCH  11  19
ENDBRANCH   1  14
BRANCH   5  20
ATOM     20  O   UNL     1       0.472  11.629  18.152  0.00  0.00    +0.000 OA
ATOM     21  H   UNL     1      -0.175  11.289  17.521  0.00  0.00    +0.000 HD
ENDBRANCH   5  20
TORSDOF 3
ENDMDL
