MODEL 1
REMARK VINA RESULT:      -7.7      0.000      0.000
REMARK  Name = 
REMARK  11 active torsions:
REMARK  status: ('A' for Active; 'I' for Inactive)
REMARK    1  A    between atoms: C_1  and  C_2
REMARK    2  A    between atoms: C_2  and  C_3
REMARK    3  A    between atoms: N_7  and  S_8
REMARK    4  A    between atoms: S_8  and  C_11
REMARK    5  A    between atoms: C_14  and  N_15
REMARK    6  A    between atoms: C_16  and  C_18
REMARK    7  A    between atoms: C_19  and  C_20
REMARK    8  A    between atoms: C_23  and  O_24
REMARK    9  A    between atoms: O_24  and  C_25
REMARK   10  A    between atoms: C_27  and  O_28
REMARK   11  A    between atoms: O_28  and  C_29
REMARK                            x       y       z     vdW  Elec       q    Type
REMARK                         _______ _______ _______ _____ _____    ______ ____
ROOT
ATOM      1  C   UNL     1       2.397   6.860  19.481  0.00  0.00    +0.000 A 
ATOM      2  C   UNL     1       1.838   6.865  20.752  0.00  0.00    +0.000 A 
ATOM      3  C   UNL     1       1.099   7.973  21.173  0.00  0.00    +0.000 A 
ATOM      4  C   UNL     1       0.916   9.085  20.350  0.00  0.00    +0.000 A 
ATOM      5  C   UNL     1       1.525   9.086  19.088  0.00  0.00    +0.000 A 
ATOM      6  C   UNL     1       2.267   7.975  18.648  0.00  0.00    +0.000 A 
ENDROOT
BRANCH   4   7
ATOM      7  N   UNL     1       0.100  10.187  20.715  0.00  0.00    +0.000 N 
ATOM      8  C   UNL     1       0.562  11.425  21.106  0.00  0.00    +0.000 C 
ATOM      9  O   UNL     1       1.723  11.815  21.057  0.00  0.00    +0.000 OA
ATOM     10  H   UNL     1      -0.896  10.013  20.751  0.00  0.00    +0.000 HD
BRANCH   8  11
ATOM     11  C   UNL     1      -0.486  12.311  21.687  0.00  0.00    +0.000 C 
ATOM     12  C   UNL     1      -1.698  11.754  21.839  0.00  0.00    +0.000 C 
BRANCH  12  13
ATOM     13  C   UNL     1      -2.910  12.443  22.273  0.00  0.00    +0.000 A 
ATOM     14  C   UNL     1      -3.074  12.633  23.653  0.00  0.00    +0.000 A 
ATOM     15  C   UNL     1      -4.232  13.228  24.158  0.00  0.00    +0.000 A 
ATOM     16  C   UNL     1      -5.245  13.644  23.298  0.00  0.00    +0.000 A 
ATOM     17  C   UNL     1      -5.084  13.463  21.924  0.00  0.00    +0.000 A 
ATOM     18  C   UNL     1      -3.930  12.859  21.401  0.00  0.00    +0.000 A 
BRANCH  16  19
ATOM     19  O   UNL     1      -6.327  14.210  23.911  0.00  0.00    +0.000 OA
ATOM     20  C   UNL     1      -7.576  13.552  23.738  0.00  0.00    +0.000 C 
ENDBRANCH  16  19
BRANCH  18  21
ATOM     21  O   UNL     1      -3.927  12.811  20.031  0.00  0.00    +0.000 OA
ATOM     22  C   UNL     1      -5.054  12.225  19.388  0.00  0.00    +0.000 C 
ENDBRANCH  18  21
ENDBRANCH  12  13
ENDBRANCH   8  11
ENDBRANCH   4   7
BRANCH   1  23
ATOM     23  S   UNL     1       3.264   5.406  18.959  0.00  0.00    +0.000 S 
ATOM     24  O   UNL     1       2.653   4.920  17.743  0.00  0.00    +0.000 OA
ATOM     25  O   UNL     1       3.408   4.541  20.114  0.00  0.00    +0.000 OA
BRANCH  23  30
ATOM     26  C   UNL     1       6.261   5.334  15.261  0.00  0.00    +0.000 A 
ATOM     27  N   UNL     1       5.538   6.435  15.203  0.00  0.00    +0.000 NA
ATOM     28  N   UNL     1       4.930   6.721  16.413  0.00  0.00    +0.000 NA
ATOM     29  C   UNL     1       5.232   5.837  17.334  0.00  0.00    +0.000 A 
ATOM     30  N   UNL     1       4.829   5.989  18.679  0.00  0.00    +0.000 N 
ATOM     31  S   UNL     1       6.287   4.597  16.817  0.00  0.00    +0.000 S 
ATOM     32  H   UNL     1       5.435   5.491  19.328  0.00  0.00    +0.000 HD
BRANCH  26  34
ATOM     33  C   UNL     1       6.173   3.732  13.342  0.00  0.00    +0.000 C 
ATOM     34  C   UNL     1       7.009   4.746  14.107  0.00  0.00    +0.000 C 
ENDBRANCH  26  34
ENDBRANCH  23  30
ENDBRANCH   1  23
TORSDOF 8
ENDMDL
MODEL 2
REMARK VINA RESULT:      -7.6      1.794      2.228
REMARK  Name = 
REMARK  11 active torsions:
REMARK  status: ('A' for Active; 'I' for Inactive)
REMARK    1  A    between atoms: C_1  and  C_2
REMARK    2  A    between atoms: C_2  and  C_3
REMARK    3  A    between atoms: N_7  and  S_8
REMARK    4  A    between atoms: S_8  and  C_11
REMARK    5  A    between atoms: C_14  and  N_15
REMARK    6  A    between atoms: C_16  and  C_18
REMARK    7  A    between atoms: C_19  and  C_20
REMARK    8  A    between atoms: C_23  and  O_24
REMARK    9  A    between atoms: O_24  and  C_25
REMARK   10  A    between atoms: C_27  and  O_28
REMARK   11  A    between atoms: O_28  and  C_29
REMARK                            x       y       z     vdW  Elec       q    Type
REMARK                         _______ _______ _______ _____ _____    ______ ____
ROOT
ATOM      1  C   UNL     1       2.876   5.557  19.467  0.00  0.00    +0.000 A 
ATOM      2  C   UNL     1       2.057   5.202  20.531  0.00  0.00    +0.000 A 
ATOM      3  C   UNL     1       1.259   6.174  21.137  0.00  0.00    +0.000 A 
ATOM      4  C   UNL     1       1.271   7.502  20.708  0.00  0.00    +0.000 A 
ATOM      5  C   UNL     1       2.136   7.856  19.664  0.00  0.00    +0.000 A 
ATOM      6  C   UNL     1       2.942   6.887  19.040  0.00  0.00    +0.000 A 
ENDROOT
BRANCH   4   7
ATOM      7  N   UNL     1       0.408   8.493  21.245  0.00  0.00    +0.000 N 
ATOM      8  C   UNL     1       0.733   9.362  22.264  0.00  0.00    +0.000 C 
ATOM      9  O   UNL     1       1.843   9.520  22.758  0.00  0.00    +0.000 OA
ATOM     10  H   UNL     1      -0.538   8.504  20.888  0.00  0.00    +0.000 HD
BRANCH   8  11
ATOM     11  C   UNL     1      -0.429  10.115  22.817  0.00  0.00    +0.000 C 
ATOM     12  C   UNL     1      -0.502  11.409  22.466  0.00  0.00    +0.000 C 
BRANCH  12  13
ATOM     13  C   UNL     1      -1.472  12.379  22.967  0.00  0.00    +0.000 A 
ATOM     14  C   UNL     1      -2.760  11.902  23.251  0.00  0.00    +0.000 A 
ATOM     15  C   UNL     1      -3.766  12.772  23.676  0.00  0.00    +0.000 A 
ATOM     16  C   UNL     1      -3.504  14.132  23.825  0.00  0.00    +0.000 A 
ATOM     17  C   UNL     1      -2.224  14.611  23.551  0.00  0.00    +0.000 A 
ATOM     18  C   UNL     1      -1.205  13.751  23.115  0.00  0.00    +0.000 A 
BRANCH  16  19
ATOM     19  O   UNL     1      -4.568  14.882  24.246  0.00  0.00    +0.000 OA
ATOM     20  C   UNL     1      -5.673  14.978  23.356  0.00  0.00    +0.000 C 
ENDBRANCH  16  19
BRANCH  18  21
ATOM     21  O   UNL     1      -0.004  14.389  22.943  0.00  0.00    +0.000 OA
ATOM     22  C   UNL     1       0.247  14.996  21.680  0.00  0.00    +0.000 C 
ENDBRANCH  18  21
ENDBRANCH  12  13
ENDBRANCH   8  11
ENDBRANCH   4   7
BRANCH   1  23
ATOM     23  S   UNL     1       3.817   4.280  18.679  0.00  0.00    +0.000 S 
ATOM     24  O   UNL     1       3.100   3.842  17.504  0.00  0.00    +0.000 OA
ATOM     25  O   UNL     1       4.216   3.333  19.701  0.00  0.00    +0.000 OA
BRANCH  23  30
ATOM     26  C   UNL     1       6.291   4.886  14.656  0.00  0.00    +0.000 A 
ATOM     27  N   UNL     1       5.444   5.887  14.792  0.00  0.00    +0.000 NA
ATOM     28  N   UNL     1       4.971   5.996  16.088  0.00  0.00    +0.000 NA
ATOM     29  C   UNL     1       5.491   5.087  16.878  0.00  0.00    +0.000 A 
ATOM     30  N   UNL     1       5.253   5.078  18.269  0.00  0.00    +0.000 N 
ATOM     31  S   UNL     1       6.607   4.037  16.121  0.00  0.00    +0.000 S 
ATOM     32  H   UNL     1       5.993   4.612  18.790  0.00  0.00    +0.000 HD
BRANCH  26  34
ATOM     33  C   UNL     1       6.071   3.556  12.549  0.00  0.00    +0.000 C 
ATOM     34  C   UNL     1       6.944   4.492  13.371  0.00  0.00    +0.000 C 
ENDBRANCH  26  34
ENDBRANCH  23  30
ENDBRANCH   1  23
TORSDOF 8
ENDMDL
MODEL 3
REMARK VINA RESULT:      -7.4      2.565      3.500
REMARK  Name = 
REMARK  11 active torsions:
REMARK  status: ('A' for Active; 'I' for Inactive)
REMARK    1  A    between atoms: C_1  and  C_2
REMARK    2  A    between atoms: C_2  and  C_3
REMARK    3  A    between atoms: N_7  and  S_8
REMARK    4  A    between atoms: S_8  and  C_11
REMARK    5  A    between atoms: C_14  and  N_15
REMARK    6  A    between atoms: C_16  and  C_18
REMARK    7  A    between atoms: C_19  and  C_20
REMARK    8  A    between atoms: C_23  and  O_24
REMARK    9  A    between atoms: O_24  and  C_25
REMARK   10  A    between atoms: C_27  and  O_28
REMARK   11  A    between atoms: O_28  and  C_29
REMARK                            x       y       z     vdW  Elec       q    Type
REMARK                         _______ _______ _______ _____ _____    ______ ____
ROOT
ATOM      1  C   UNL     1       2.750   5.000  18.591  0.00  0.00    +0.000 A 
ATOM      2  C   UNL     1       2.423   6.228  18.033  0.00  0.00    +0.000 A 
ATOM      3  C   UNL     1       2.033   7.280  18.865  0.00  0.00    +0.000 A 
ATOM      4  C   UNL     1       1.952   7.124  20.249  0.00  0.00    +0.000 A 
ATOM      5  C   UNL     1       2.239   5.866  20.796  0.00  0.00    +0.000 A 
ATOM      6  C   UNL     1       2.639   4.800  19.970  0.00  0.00    +0.000 A 
ENDROOT
BRANCH   4   7
ATOM      7  N   UNL     1       1.644   8.196  21.128  0.00  0.00    +0.000 N 
ATOM      8  C   UNL     1       0.384   8.504  21.596  0.00  0.00    +0.000 C 
ATOM      9  O   UNL     1      -0.628   7.828  21.455  0.00  0.00    +0.000 OA
ATOM     10  H   UNL     1       2.409   8.813  21.366  0.00  0.00    +0.000 HD
BRANCH   8  11
ATOM     11  C   UNL     1       0.295   9.824  22.282  0.00  0.00    +0.000 C 
ATOM     12  C   UNL     1      -0.802  10.548  22.008  0.00  0.00    +0.000 C 
BRANCH  12  13
ATOM     13  C   UNL     1      -1.063  11.912  22.458  0.00  0.00    +0.000 A 
ATOM     14  C   UNL     1      -2.239  12.126  23.193  0.00  0.00    +0.000 A 
ATOM     15  C   UNL     1      -2.597  13.409  23.610  0.00  0.00    +0.000 A 
ATOM     16  C   UNL     1      -1.789  14.501  23.302  0.00  0.00    +0.000 A 
ATOM     17  C   UNL     1      -0.616  14.294  22.577  0.00  0.00    +0.000 A 
ATOM     18  C   UNL     1      -0.247  13.012  22.143  0.00  0.00    +0.000 A 
BRANCH  16  19
ATOM     19  O   UNL     1      -2.245  15.705  23.763  0.00  0.00    +0.000 OA
ATOM     20  C   UNL     1      -3.561  16.081  23.376  0.00  0.00    +0.000 C 
ENDBRANCH  16  19
BRANCH  18  21
ATOM     21  O   UNL     1       0.959  12.995  21.490  0.00  0.00    +0.000 OA
ATOM     22  C   UNL     1       0.991  13.479  20.152  0.00  0.00    +0.000 C 
ENDBRANCH  18  21
ENDBRANCH  12  13
ENDBRANCH   8  11
ENDBRANCH   4   7
BRANCH   1  23
ATOM     23  S   UNL     1       3.310   3.716  17.508  0.00  0.00    +0.000 S 
ATOM     24  O   UNL     1       2.160   3.133  16.856  0.00  0.00    +0.000 OA
ATOM     25  O   UNL     1       4.240   2.888  18.251  0.00  0.00    +0.000 OA
BRANCH  23  30
ATOM     26  C   UNL     1       7.306   6.280  17.855  0.00  0.00    +0.000 A 
ATOM     27  N   UNL     1       7.624   5.026  17.607  0.00  0.00    +0.000 NA
ATOM     28  N   UNL     1       6.549   4.303  17.119  0.00  0.00    +0.000 NA
ATOM     29  C   UNL     1       5.473   5.045  17.004  0.00  0.00    +0.000 A 
ATOM     30  N   UNL     1       4.288   4.557  16.411  0.00  0.00    +0.000 N 
ATOM     31  S   UNL     1       5.677   6.679  17.459  0.00  0.00    +0.000 S 
ATOM     32  H   UNL     1       3.707   5.301  16.029  0.00  0.00    +0.000 HD
BRANCH  26  34
ATOM     33  C   UNL     1       8.027   8.675  17.809  0.00  0.00    +0.000 C 
ATOM     34  C   UNL     1       8.242   7.300  18.421  0.00  0.00    +0.000 C 
ENDBRANCH  26  34
ENDBRANCH  23  30
ENDBRANCH   1  23
TORSDOF 8
ENDMDL
MODEL 4
REMARK VINA RESULT:      -7.3      7.757     11.724
REMARK  Name = 
REMARK  11 active torsions:
REMARK  status: ('A' for Active; 'I' for Inactive)
REMARK    1  A    between atoms: C_1  and  C_2
REMARK    2  A    between atoms: C_2  and  C_3
REMARK    3  A    between atoms: N_7  and  S_8
REMARK    4  A    between atoms: S_8  and  C_11
REMARK    5  A    between atoms: C_14  and  N_15
REMARK    6  A    between atoms: C_16  and  C_18
REMARK    7  A    between atoms: C_19  and  C_20
REMARK    8  A    between atoms: C_23  and  O_24
REMARK    9  A    between atoms: O_24  and  C_25
REMARK   10  A    between atoms: C_27  and  O_28
REMARK   11  A    between atoms: O_28  and  C_29
REMARK                            x       y       z     vdW  Elec       q    Type
REMARK                         _______ _______ _______ _____ _____    ______ ____
ROOT
ATOM      1  C   UNL     1      10.038  12.708  19.095  0.00  0.00    +0.000 A 
ATOM      2  C   UNL     1      10.061  12.003  17.900  0.00  0.00    +0.000 A 
ATOM      3  C   UNL     1       9.663  10.664  17.884  0.00  0.00    +0.000 A 
ATOM      4  C   UNL     1       9.251  10.011  19.046  0.00  0.00    +0.000 A 
ATOM      5  C   UNL     1       9.276  10.721  20.254  0.00  0.00    +0.000 A 
ATOM      6  C   UNL     1       9.669  12.071  20.284  0.00  0.00    +0.000 A 
ENDROOT
BRANCH   4   7
ATOM      7  N   UNL     1       8.758   8.680  19.047  0.00  0.00    +0.000 N 
ATOM      8  C   UNL     1       8.097   8.075  18.000  0.00  0.00    +0.000 C 
ATOM      9  O   UNL     1       7.964   8.526  16.869  0.00  0.00    +0.000 OA
ATOM     10  H   UNL     1       8.848   8.170  19.917  0.00  0.00    +0.000 HD
BRANCH   8  11
ATOM     11  C   UNL     1       7.456   6.777  18.353  0.00  0.00    +0.000 C 
ATOM     12  C   UNL     1       6.256   6.551  17.793  0.00  0.00    +0.000 C 
BRANCH  12  13
ATOM     13  C   UNL     1       5.380   5.416  18.072  0.00  0.00    +0.000 A 
ATOM     14  C   UNL     1       4.573   5.502  19.216  0.00  0.00    +0.000 A 
ATOM     15  C   UNL     1       3.752   4.438  19.592  0.00  0.00    +0.000 A 
ATOM     16  C   UNL     1       3.720   3.270  18.834  0.00  0.00    +0.000 A 
ATOM     17  C   UNL     1       4.516   3.181  17.692  0.00  0.00    +0.000 A 
ATOM     18  C   UNL     1       5.353   4.239  17.306  0.00  0.00    +0.000 A 
BRANCH  16  19
ATOM     19  O   UNL     1       2.879   2.299  19.303  0.00  0.00    +0.000 OA
ATOM     20  C   UNL     1       1.610   2.194  18.670  0.00  0.00    +0.000 C 
ENDBRANCH  16  19
BRANCH  18  21
ATOM     21  O   UNL     1       6.021   3.992  16.134  0.00  0.00    +0.000 OA
ATOM     22  C   UNL     1       5.402   4.405  14.921  0.00  0.00    +0.000 C 
ENDBRANCH  18  21
ENDBRANCH  12  13
ENDBRANCH   8  11
ENDBRANCH   4   7
BRANCH   1  23
ATOM     23  S   UNL     1      10.480  14.423  19.058  0.00  0.00    +0.000 S 
ATOM     24  O   UNL     1      11.897  14.525  18.797  0.00  0.00    +0.000 OA
ATOM     25  O   UNL     1       9.893  15.054  20.225  0.00  0.00    +0.000 OA
BRANCH  23  30
ATOM     26  C   UNL     1       6.249  16.565  18.637  0.00  0.00    +0.000 A 
ATOM     27  N   UNL     1       7.183  17.486  18.762  0.00  0.00    +0.000 NA
ATOM     28  N   UNL     1       8.447  16.982  18.507  0.00  0.00    +0.000 NA
ATOM     29  C   UNL     1       8.412  15.711  18.185  0.00  0.00    +0.000 A 
ATOM     30  N   UNL     1       9.564  15.014  17.762  0.00  0.00    +0.000 N 
ATOM     31  S   UNL     1       6.847  15.025  18.148  0.00  0.00    +0.000 S 
ATOM     32  H   UNL     1       9.342  14.206  17.183  0.00  0.00    +0.000 HD
BRANCH  26  34
ATOM     33  C   UNL     1       4.365  16.327  20.266  0.00  0.00    +0.000 C 
ATOM     34  C   UNL     1       4.791  16.792  18.882  0.00  0.00    +0.000 C 
ENDBRANCH  26  34
ENDBRANCH  23  30
ENDBRANCH   1  23
TORSDOF 8
ENDMDL
MODEL 5
REMARK VINA RESULT:      -7.2      4.132     11.517
REMARK  Name = 
REMARK  11 active torsions:
REMARK  status: ('A' for Active; 'I' for Inactive)
REMARK    1  A    between atoms: C_1  and  C_2
REMARK    2  A    between atoms: C_2  and  C_3
REMARK    3  A    between atoms: N_7  and  S_8
REMARK    4  A    between atoms: S_8  and  C_11
REMARK    5  A    between atoms: C_14  and  N_15
REMARK    6  A    between atoms: C_16  and  C_18
REMARK    7  A    between atoms: C_19  and  C_20
REMARK    8  A    between atoms: C_23  and  O_24
REMARK    9  A    between atoms: O_24  and  C_25
REMARK   10  A    between atoms: C_27  and  O_28
REMARK   11  A    between atoms: O_28  and  C_29
REMARK                            x       y       z     vdW  Elec       q    Type
REMARK                         _______ _______ _______ _____ _____    ______ ____
ROOT
ATOM      1  C   UNL     1      -0.968  12.618  22.135  0.00  0.00    +0.000 A 
ATOM      2  C   UNL     1      -0.944  11.233  22.230  0.00  0.00    +0.000 A 
ATOM      3  C   UNL     1      -0.201  10.492  21.308  0.00  0.00    +0.000 A 
ATOM      4  C   UNL     1       0.512  11.111  20.281  0.00  0.00    +0.000 A 
ATOM      5  C   UNL     1       0.442  12.506  20.167  0.00  0.00    +0.000 A 
ATOM      6  C   UNL     1      -0.297  13.264  21.092  0.00  0.00    +0.000 A 
ENDROOT
BRANCH   4   7
ATOM      7  N   UNL     1       1.345  10.394  19.382  0.00  0.00    +0.000 N 
ATOM      8  C   UNL     1       0.913   9.736  18.250  0.00  0.00    +0.000 C 
ATOM      9  O   UNL     1      -0.210   9.789  17.764  0.00  0.00    +0.000 OA
ATOM     10  H   UNL     1       2.319  10.312  19.643  0.00  0.00    +0.000 HD
BRANCH   8  11
ATOM     11  C   UNL     1       1.939   8.847  17.635  0.00  0.00    +0.000 C 
ATOM     12  C   UNL     1       2.101   7.652  18.226  0.00  0.00    +0.000 C 
BRANCH  12  13
ATOM     13  C   UNL     1       3.116   6.659  17.887  0.00  0.00    +0.000 A 
ATOM     14  C   UNL     1       4.373   7.143  17.494  0.00  0.00    +0.000 A 
ATOM     15  C   UNL     1       5.382   6.265  17.093  0.00  0.00    +0.000 A 
ATOM     16  C   UNL     1       5.157   4.891  17.079  0.00  0.00    +0.000 A 
ATOM     17  C   UNL     1       3.911   4.404  17.475  0.00  0.00    +0.000 A 
ATOM     18  C   UNL     1       2.884   5.273  17.872  0.00  0.00    +0.000 A 
BRANCH  16  19
ATOM     19  O   UNL     1       6.220   4.135  16.667  0.00  0.00    +0.000 OA
ATOM     20  C   UNL     1       6.919   4.590  15.516  0.00  0.00    +0.000 C 
ENDBRANCH  16  19
BRANCH  18  21
ATOM     21  O   UNL     1       1.751   4.613  18.273  0.00  0.00    +0.000 OA
ATOM     22  C   UNL     1       1.914   3.377  18.958  0.00  0.00    +0.000 C 
ENDBRANCH  18  21
ENDBRANCH  12  13
ENDBRANCH   8  11
ENDBRANCH   4   7
BRANCH   1  23
ATOM     23  S   UNL     1      -1.861  13.522  23.368  0.00  0.00    +0.000 S 
ATOM     24  O   UNL     1      -0.941  14.407  24.044  0.00  0.00    +0.000 OA
ATOM     25  O   UNL     1      -2.662  12.573  24.116  0.00  0.00    +0.000 OA
BRANCH  23  30
ATOM     26  C   UNL     1      -6.133  12.537  21.511  0.00  0.00    +0.000 A 
ATOM     27  N   UNL     1      -6.298  13.054  22.712  0.00  0.00    +0.000 NA
ATOM     28  N   UNL     1      -5.164  13.711  23.156  0.00  0.00    +0.000 NA
ATOM     29  C   UNL     1      -4.199  13.677  22.268  0.00  0.00    +0.000 A 
ATOM     30  N   UNL     1      -2.991  14.385  22.447  0.00  0.00    +0.000 N 
ATOM     31  S   UNL     1      -4.590  12.863  20.818  0.00  0.00    +0.000 S 
ATOM     32  H   UNL     1      -2.530  14.601  21.566  0.00  0.00    +0.000 HD
BRANCH  26  34
ATOM     33  C   UNL     1      -7.326  12.201  19.338  0.00  0.00    +0.000 C 
ATOM     34  C   UNL     1      -7.164  11.740  20.779  0.00  0.00    +0.000 C 
ENDBRANCH  26  34
ENDBRANCH  23  30
ENDBRANCH   1  23
TORSDOF 8
ENDMDL
MODEL 6
REMARK VINA RESULT:      -7.2      1.438      1.952
REMARK  Name = 
REMARK  11 active torsions:
REMARK  status: ('A' for Active; 'I' for Inactive)
REMARK    1  A    between atoms: C_1  and  C_2
REMARK    2  A    between atoms: C_2  and  C_3
REMARK    3  A    between atoms: N_7  and  S_8
REMARK    4  A    between atoms: S_8  and  C_11
REMARK    5  A    between atoms: C_14  and  N_15
REMARK    6  A    between atoms: C_16  and  C_18
REMARK    7  A    between atoms: C_19  and  C_20
REMARK    8  A    between atoms: C_23  and  O_24
REMARK    9  A    between atoms: O_24  and  C_25
REMARK   10  A    between atoms: C_27  and  O_28
REMARK   11  A    between atoms: O_28  and  C_29
REMARK                            x       y       z     vdW  Elec       q    Type
REMARK                         _______ _______ _______ _____ _____    ______ ____
ROOT
ATOM      1  C   UNL     1       2.306   7.375  19.085  0.00  0.00    +0.000 A 
ATOM      2  C   UNL     1       1.760   7.706  20.318  0.00  0.00    +0.000 A 
ATOM      3  C   UNL     1       1.077   8.915  20.466  0.00  0.00    +0.000 A 
ATOM      4  C   UNL     1       0.939   9.810  19.404  0.00  0.00    +0.000 A 
ATOM      5  C   UNL     1       1.535   9.486  18.178  0.00  0.00    +0.000 A 
ATOM      6  C   UNL     1       2.220   8.268  18.013  0.00  0.00    +0.000 A 
ENDROOT
BRANCH   4   7
ATOM      7  N   UNL     1       0.178  11.005  19.498  0.00  0.00    +0.000 N 
ATOM      8  C   UNL     1       0.104  11.816  20.610  0.00  0.00    +0.000 C 
ATOM      9  O   UNL     1       0.786  11.721  21.623  0.00  0.00    +0.000 OA
ATOM     10  H   UNL     1      -0.403  11.229  18.701  0.00  0.00    +0.000 HD
BRANCH   8  11
ATOM     11  C   UNL     1      -0.964  12.853  20.538  0.00  0.00    +0.000 C 
ATOM     12  C   UNL     1      -1.830  12.866  21.565  0.00  0.00    +0.000 C 
BRANCH  12  13
ATOM     13  C   UNL     1      -3.023  13.701  21.668  0.00  0.00    +0.000 A 
ATOM     14  C   UNL     1      -3.031  14.893  20.928  0.00  0.00    +0.000 A 
ATOM     15  C   UNL     1      -4.106  15.780  21.016  0.00  0.00    +0.000 A 
ATOM     16  C   UNL     1      -5.190  15.494  21.842  0.00  0.00    +0.000 A 
ATOM     17  C   UNL     1      -5.190  14.308  22.575  0.00  0.00    +0.000 A 
ATOM     18  C   UNL     1      -4.114  13.410  22.504  0.00  0.00    +0.000 A 
BRANCH  16  19
ATOM     19  O   UNL     1      -6.179  16.439  21.844  0.00  0.00    +0.000 OA
ATOM     20  C   UNL     1      -6.829  16.686  20.603  0.00  0.00    +0.000 C 
ENDBRANCH  16  19
BRANCH  18  21
ATOM     21  O   UNL     1      -4.312  12.279  23.253  0.00  0.00    +0.000 OA
ATOM     22  C   UNL     1      -4.271  12.409  24.670  0.00  0.00    +0.000 C 
ENDBRANCH  18  21
ENDBRANCH  12  13
ENDBRANCH   8  11
ENDBRANCH   4   7
BRANCH   1  23
ATOM     23  S   UNL     1       3.098   5.800  18.922  0.00  0.00    +0.000 S 
ATOM     24  O   UNL     1       2.522   5.112  17.789  0.00  0.00    +0.000 OA
ATOM     25  O   UNL     1       3.121   5.180  20.232  0.00  0.00    +0.000 OA
BRANCH  23  30
ATOM     26  C   UNL     1       6.162   5.129  15.340  0.00  0.00    +0.000 A 
ATOM     27  N   UNL     1       5.535   6.273  15.156  0.00  0.00    +0.000 NA
ATOM     28  N   UNL     1       4.925   6.723  16.315  0.00  0.00    +0.000 NA
ATOM     29  C   UNL     1       5.131   5.912  17.324  0.00  0.00    +0.000 A 
ATOM     30  N   UNL     1       4.712   6.226  18.635  0.00  0.00    +0.000 N 
ATOM     31  S   UNL     1       6.093   4.547  16.960  0.00  0.00    +0.000 S 
ATOM     32  H   UNL     1       5.261   5.746  19.347  0.00  0.00    +0.000 HD
BRANCH  26  34
ATOM     33  C   UNL     1       5.930   3.766  13.255  0.00  0.00    +0.000 C 
ATOM     34  C   UNL     1       6.885   4.374  14.271  0.00  0.00    +0.000 C 
ENDBRANCH  26  34
ENDBRANCH  23  30
ENDBRANCH   1  23
TORSDOF 8
ENDMDL
MODEL 7
REMARK VINA RESULT:      -7.2      5.959     10.297
REMARK  Name = 
REMARK  11 active torsions:
REMARK  status: ('A' for Active; 'I' for Inactive)
REMARK    1  A    between atoms: C_1  and  C_2
REMARK    2  A    between atoms: C_2  and  C_3
REMARK    3  A    between atoms: N_7  and  S_8
REMARK    4  A    between atoms: S_8  and  C_11
REMARK    5  A    between atoms: C_14  and  N_15
REMARK    6  A    between atoms: C_16  and  C_18
REMARK    7  A    between atoms: C_19  and  C_20
REMARK    8  A    between atoms: C_23  and  O_24
REMARK    9  A    between atoms: O_24  and  C_25
REMARK   10  A    between atoms: C_27  and  O_28
REMARK   11  A    between atoms: O_28  and  C_29
REMARK                            x       y       z     vdW  Elec       q    Type
REMARK                         _______ _______ _______ _____ _____    ______ ____
ROOT
ATOM      1  C   UNL     1       4.695   3.993  18.209  0.00  0.00    +0.000 A 
ATOM      2  C   UNL     1       5.420   4.633  19.205  0.00  0.00    +0.000 A 
ATOM      3  C   UNL     1       6.149   5.783  18.894  0.00  0.00    +0.000 A 
ATOM      4  C   UNL     1       6.177   6.302  17.598  0.00  0.00    +0.000 A 
ATOM      5  C   UNL     1       5.479   5.620  16.593  0.00  0.00    +0.000 A 
ATOM      6  C   UNL     1       4.736   4.464  16.893  0.00  0.00    +0.000 A 
ENDROOT
BRANCH   4   7
ATOM      7  N   UNL     1       6.836   7.515  17.269  0.00  0.00    +0.000 N 
ATOM      8  C   UNL     1       7.930   8.032  17.931  0.00  0.00    +0.000 C 
ATOM      9  O   UNL     1       8.588   7.466  18.796  0.00  0.00    +0.000 OA
ATOM     10  H   UNL     1       6.418   8.066  16.531  0.00  0.00    +0.000 HD
BRANCH   8  11
ATOM     11  C   UNL     1       8.259   9.436  17.558  0.00  0.00    +0.000 C 
ATOM     12  C   UNL     1       8.759  10.197  18.546  0.00  0.00    +0.000 C 
BRANCH  12  13
ATOM     13  C   UNL     1       9.048  11.626  18.464  0.00  0.00    +0.000 A 
ATOM     14  C   UNL     1       8.259  12.385  17.588  0.00  0.00    +0.000 A 
ATOM     15  C   UNL     1       8.506  13.746  17.402  0.00  0.00    +0.000 A 
ATOM     16  C   UNL     1       9.545  14.374  18.086  0.00  0.00    +0.000 A 
ATOM     17  C   UNL     1      10.329  13.625  18.963  0.00  0.00    +0.000 A 
ATOM     18  C   UNL     1      10.098  12.255  19.155  0.00  0.00    +0.000 A 
BRANCH  16  19
ATOM     19  O   UNL     1       9.688  15.708  17.820  0.00  0.00    +0.000 OA
ATOM     20  C   UNL     1      10.381  16.482  18.791  0.00  0.00    +0.000 C 
ENDBRANCH  16  19
BRANCH  18  21
ATOM     21  O   UNL     1      10.934  11.697  20.088  0.00  0.00    +0.000 OA
ATOM     22  C   UNL     1      12.333  11.736  19.829  0.00  0.00    +0.000 C 
ENDBRANCH  18  21
ENDBRANCH  12  13
ENDBRANCH   8  11
ENDBRANCH   4   7
BRANCH   1  23
ATOM     23  S   UNL     1       3.725   2.582  18.661  0.00  0.00    +0.000 S 
ATOM     24  O   UNL     1       4.121   2.159  19.985  0.00  0.00    +0.000 OA
ATOM     25  O   UNL     1       3.753   1.654  17.547  0.00  0.00    +0.000 OA
BRANCH  23  30
ATOM     26  C   UNL     1       1.672   6.583  20.223  0.00  0.00    +0.000 A 
ATOM     27  N   UNL     1       2.049   6.757  18.972  0.00  0.00    +0.000 NA
ATOM     28  N   UNL     1       2.297   5.555  18.332  0.00  0.00    +0.000 NA
ATOM     29  C   UNL     1       2.081   4.527  19.119  0.00  0.00    +0.000 A 
ATOM     30  N   UNL     1       2.148   3.197  18.650  0.00  0.00    +0.000 N 
ATOM     31  S   UNL     1       1.546   4.930  20.691  0.00  0.00    +0.000 S 
ATOM     32  H   UNL     1       1.591   2.556  19.211  0.00  0.00    +0.000 HD
BRANCH  26  34
ATOM     33  C   UNL     1       1.200   9.027  20.477  0.00  0.00    +0.000 C 
ATOM     34  C   UNL     1       1.368   7.690  21.182  0.00  0.00    +0.000 C 
ENDBRANCH  26  34
ENDBRANCH  23  30
ENDBRANCH   1  23
TORSDOF 8
ENDMDL
MODEL 8
REMARK VINA RESULT:      -7.1      2.997      3.850
REMARK  Name = 
REMARK  11 active torsions:
REMARK  status: ('A' for Active; 'I' for Inactive)
REMARK    1  A    between atoms: C_1  and  C_2
REMARK    2  A    between atoms: C_2  and  C_3
REMARK    3  A    between atoms: N_7  and  S_8
REMARK    4  A    between atoms: S_8  and  C_11
REMARK    5  A    between atoms: C_14  and  N_15
REMARK    6  A    between atoms: C_16  and  C_18
REMARK    7  A    between atoms: C_19  and  C_20
REMARK    8  A    between atoms: C_23  and  O_24
REMARK    9  A    between atoms: O_24  and  C_25
REMARK   10  A    between atoms: C_27  and  O_28
REMARK   11  A    between atoms: O_28  and  C_29
REMARK                            x       y       z     vdW  Elec       q    Type
REMARK                         _______ _______ _______ _____ _____    ______ ____
ROOT
ATOM      1  C   UNL     1       3.429   4.704  18.646  0.00  0.00    +0.000 A 
ATOM      2  C   UNL     1       3.666   5.441  19.798  0.00  0.00    +0.000 A 
ATOM      3  C   UNL     1       2.988   6.646  19.994  0.00  0.00    +0.000 A 
ATOM      4  C   UNL     1       2.084   7.137  19.052  0.00  0.00    +0.000 A 
ATOM      5  C   UNL     1       1.890   6.407  17.872  0.00  0.00    +0.000 A 
ATOM      6  C   UNL     1       2.561   5.189  17.663  0.00  0.00    +0.000 A 
ENDROOT
BRANCH   4   7
ATOM      7  N   UNL     1       1.316   8.313  19.261  0.00  0.00    +0.000 N 
ATOM      8  C   UNL     1       1.450   9.488  18.552  0.00  0.00    +0.000 C 
ATOM      9  O   UNL     1       2.133   9.656  17.550  0.00  0.00    +0.000 OA
ATOM     10  H   UNL     1       0.670   8.293  20.039  0.00  0.00    +0.000 HD
BRANCH   8  11
ATOM     11  C   UNL     1       0.716  10.642  19.143  0.00  0.00    +0.000 C 
ATOM     12  C   UNL     1       0.968  10.889  20.440  0.00  0.00    +0.000 C 
BRANCH  12  13
ATOM     13  C   UNL     1       0.292  11.881  21.270  0.00  0.00    +0.000 A 
ATOM     14  C   UNL     1      -0.633  11.401  22.208  0.00  0.00    +0.000 A 
ATOM     15  C   UNL     1      -1.370  12.284  23.000  0.00  0.00    +0.000 A 
ATOM     16  C   UNL     1      -1.196  13.660  22.871  0.00  0.00    +0.000 A 
ATOM     17  C   UNL     1      -0.272  14.143  21.944  0.00  0.00    +0.000 A 
ATOM     18  C   UNL     1       0.469  13.268  21.135  0.00  0.00    +0.000 A 
BRANCH  16  19
ATOM     19  O   UNL     1      -1.973  14.421  23.700  0.00  0.00    +0.000 OA
ATOM     20  C   UNL     1      -1.307  15.093  24.762  0.00  0.00    +0.000 C 
ENDBRANCH  16  19
BRANCH  18  21
ATOM     21  O   UNL     1       1.360  13.920  20.321  0.00  0.00    +0.000 OA
ATOM     22  C   UNL     1       0.868  14.453  19.096  0.00  0.00    +0.000 C 
ENDBRANCH  18  21
ENDBRANCH  12  13
ENDBRANCH   8  11
ENDBRANCH   4   7
BRANCH   1  23
ATOM     23  S   UNL     1       4.253   3.146  18.471  0.00  0.00    +0.000 S 
ATOM     24  O   UNL     1       3.298   2.173  17.992  0.00  0.00    +0.000 OA
ATOM     25  O   UNL     1       5.008   2.908  19.686  0.00  0.00    +0.000 OA
BRANCH  23  30
ATOM     26  C   UNL     1       7.214   6.781  17.644  0.00  0.00    +0.000 A 
ATOM     27  N   UNL     1       7.823   5.901  18.414  0.00  0.00    +0.000 NA
ATOM     28  N   UNL     1       7.197   4.667  18.388  0.00  0.00    +0.000 NA
ATOM     29  C   UNL     1       6.156   4.662  17.589  0.00  0.00    +0.000 A 
ATOM     30  N   UNL     1       5.436   3.481  17.306  0.00  0.00    +0.000 N 
ATOM     31  S   UNL     1       5.859   6.143  16.792  0.00  0.00    +0.000 S 
ATOM     32  H   UNL     1       4.948   3.526  16.413  0.00  0.00    +0.000 HD
BRANCH  26  34
ATOM     33  C   UNL     1       8.586   8.648  18.588  0.00  0.00    +0.000 C 
ATOM     34  C   UNL     1       7.630   8.209  17.489  0.00  0.00    +0.000 C 
ENDBRANCH  26  34
ENDBRANCH  23  30
ENDBRANCH   1  23
TORSDOF 8
ENDMDL
MODEL 9
REMARK VINA RESULT:      -7.0      2.579      4.164
REMARK  Name = 
REMARK  11 active torsions:
REMARK  status: ('A' for Active; 'I' for Inactive)
REMARK    1  A    between atoms: C_1  and  C_2
REMARK    2  A    between atoms: C_2  and  C_3
REMARK    3  A    between atoms: N_7  and  S_8
REMARK    4  A    between atoms: S_8  and  C_11
REMARK    5  A    between atoms: C_14  and  N_15
REMARK    6  A    between atoms: C_16  and  C_18
REMARK    7  A    between atoms: C_19  and  C_20
REMARK    8  A    between atoms: C_23  and  O_24
REMARK    9  A    between atoms: O_24  and  C_25
REMARK   10  A    between atoms: C_27  and  O_28
REMARK   11  A    between atoms: O_28  and  C_29
REMARK                            x       y       z     vdW  Elec       q    Type
REMARK                         _______ _______ _______ _____ _____    ______ ____
ROOT
ATOM      1  C   UNL     1       4.796   6.069  18.229  0.00  0.00    +0.000 A 
ATOM      2  C   UNL     1       4.420   6.954  17.227  0.00  0.00    +0.000 A 
ATOM      3  C   UNL     1       3.259   7.715  17.383  0.00  0.00    +0.000 A 
ATOM      4  C   UNL     1       2.458   7.601  18.520  0.00  0.00    +0.000 A 
ATOM      5  C   UNL     1       2.823   6.670  19.501  0.00  0.00    +0.000 A 
ATOM      6  C   UNL     1       3.993   5.901  19.361  0.00  0.00    +0.000 A 
ENDROOT
BRANCH   4   7
ATOM      7  N   UNL     1       1.322   8.421  18.747  0.00  0.00    +0.000 N 
ATOM      8  C   UNL     1       1.287   9.791  18.596  0.00  0.00    +0.000 C 
ATOM      9  O   UNL     1       2.166  10.490  18.106  0.00  0.00    +0.000 OA
ATOM     10  H   UNL     1       0.501   7.958  19.113  0.00  0.00    +0.000 HD
BRANCH   8  11
ATOM     11  C   UNL     1       0.062  10.434  19.151  0.00  0.00    +0.000 C 
ATOM     12  C   UNL     1       0.268  11.314  20.145  0.00  0.00    +0.000 C 
BRANCH  12  13
ATOM     13  C   UNL     1      -0.769  11.981  20.926  0.00  0.00    +0.000 A 
ATOM     14  C   UNL     1      -1.610  12.870  20.240  0.00  0.00    +0.000 A 
ATOM     15  C   UNL     1      -2.588  13.597  20.920  0.00  0.00    +0.000 A 
ATOM     16  C   UNL     1      -2.745  13.451  22.297  0.00  0.00    +0.000 A 
ATOM     17  C   UNL     1      -1.916  12.564  22.983  0.00  0.00    +0.000 A 
ATOM     18  C   UNL     1      -0.922  11.833  22.315  0.00  0.00    +0.000 A 
BRANCH  16  19
ATOM     19  O   UNL     1      -3.735  14.216  22.849  0.00  0.00    +0.000 OA
ATOM     20  C   UNL     1      -4.884  13.527  23.325  0.00  0.00    +0.000 C 
ENDBRANCH  16  19
BRANCH  18  21
ATOM     21  O   UNL     1      -0.240  10.978  23.142  0.00  0.00    +0.000 OA
ATOM     22  C   UNL     1      -0.636   9.612  23.152  0.00  0.00    +0.000 C 
ENDBRANCH  18  21
ENDBRANCH  12  13
ENDBRANCH   8  11
ENDBRANCH   4   7
BRANCH   1  23
ATOM     23  S   UNL     1       6.313   5.178  18.025  0.00  0.00    +0.000 S 
ATOM     24  O   UNL     1       6.951   5.058  19.316  0.00  0.00    +0.000 OA
ATOM     25  O   UNL     1       7.018   5.760  16.900  0.00  0.00    +0.000 OA
BRANCH  23  30
ATOM     26  C   UNL     1       2.214   2.763  18.215  0.00  0.00    +0.000 A 
ATOM     27  N   UNL     1       2.229   3.492  17.118  0.00  0.00    +0.000 NA
ATOM     28  N   UNL     1       3.507   3.916  16.793  0.00  0.00    +0.000 NA
ATOM     29  C   UNL     1       4.401   3.476  17.646  0.00  0.00    +0.000 A 
ATOM     30  N   UNL     1       5.785   3.675  17.450  0.00  0.00    +0.000 N 
ATOM     31  S   UNL     1       3.773   2.501  18.901  0.00  0.00    +0.000 S 
ATOM     32  H   UNL     1       6.352   2.976  17.927  0.00  0.00    +0.000 HD
BRANCH  26  34
ATOM     33  C   UNL     1       0.591   2.930  20.111  0.00  0.00    +0.000 C 
ATOM     34  C   UNL     1       0.982   2.192  18.841  0.00  0.00    +0.000 C 
ENDBRANCH  26  34
ENDBRANCH  23  30
ENDBRANCH   1  23
TORSDOF 8
ENDMDL
