MODEL 1
REMARK VINA RESULT:      -7.5      0.000      0.000
REMARK  Name = 
REMARK  4 active torsions:
REMARK  status: ('A' for Active; 'I' for Inactive)
REMARK    1  A    between atoms: N_11  and  C_12
REMARK    2  A    between atoms: C_12  and  C_13
REMARK    3  A    between atoms: C_13  and  O_14
REMARK    4  A    between atoms: O_14  and  C_15
REMARK                            x       y       z     vdW  Elec       q    Type
REMARK                         _______ _______ _______ _____ _____    ______ ____
ROOT
ATOM      1  O   UNL     1       4.237   3.455  16.245  0.00  0.00    +0.000 OA
ATOM      2  C   UNL     1       5.158   4.182  15.941  0.00  0.00    +0.000 C 
ATOM      3  C   UNL     1       5.833   4.164  14.641  0.00  0.00    +0.000 A 
ATOM      4  C   UNL     1       5.570   3.428  13.502  0.00  0.00    +0.000 A 
ATOM      5  C   UNL     1       6.393   3.651  12.391  0.00  0.00    +0.000 A 
ATOM      6  C   UNL     1       7.447   4.584  12.449  0.00  0.00    +0.000 A 
ATOM      7  C   UNL     1       7.697   5.314  13.616  0.00  0.00    +0.000 A 
ATOM      8  C   UNL     1       6.866   5.083  14.696  0.00  0.00    +0.000 A 
ATOM      9  C   UNL     1       6.846   5.691  16.025  0.00  0.00    +0.000 C 
ATOM     10  O   UNL     1       7.649   6.516  16.414  0.00  0.00    +0.000 OA
ATOM     11  N   UNL     1       5.785   5.141  16.691  0.00  0.00    +0.000 N 
ENDROOT
BRANCH  11  12
ATOM     12  C   UNL     1       5.409   5.494  18.051  0.00  0.00    +0.000 C 
BRANCH  12  13
ATOM     13  C   UNL     1       4.116   6.309  18.106  0.00  0.00    +0.000 C 
BRANCH  13  14
ATOM     14  O   UNL     1       3.502   6.137  19.390  0.00  0.00    +0.000 OA
BRANCH  14  15
ATOM     15  C   UNL     1       2.610   5.100  19.475  0.00  0.00    +0.000 A 
ATOM     16  C   UNL     1       2.325   4.639  20.764  0.00  0.00    +0.000 A 
ATOM     17  C   UNL     1       1.437   3.576  20.955  0.00  0.00    +0.000 A 
ATOM     18  C   UNL     1       0.815   2.980  19.860  0.00  0.00    +0.000 A 
ATOM     19  C   UNL     1       1.072   3.456  18.577  0.00  0.00    +0.000 A 
ATOM     20  C   UNL     1       1.963   4.515  18.384  0.00  0.00    +0.000 A 
ENDBRANCH  14  15
ENDBRANCH  13  14
ENDBRANCH  12  13
ENDBRANCH  11  12
TORSDOF 4
ENDMDL
MODEL 2
REMARK VINA RESULT:      -7.5      2.209      3.901
REMARK  Name = 
REMARK  4 active torsions:
REMARK  status: ('A' for Active; 'I' for Inactive)
REMARK    1  A    between atoms: N_11  and  C_12
REMARK    2  A    between atoms: C_12  and  C_13
REMARK    3  A    between atoms: C_13  and  O_14
REMARK    4  A    between atoms: O_14  and  C_15
REMARK                            x       y       z     vdW  Elec       q    Type
REMARK                         _______ _______ _______ _____ _____    ______ ____
ROOT
ATOM      1  O   UNL     1       5.680   4.588  19.863  0.00  0.00    +0.000 OA
ATOM      2  C   UNL     1       5.119   4.321  18.822  0.00  0.00    +0.000 C 
ATOM      3  C   UNL     1       5.717   4.475  17.494  0.00  0.00    +0.000 A 
ATOM      4  C   UNL     1       6.990   4.863  17.122  0.00  0.00    +0.000 A 
ATOM      5  C   UNL     1       7.275   4.895  15.751  0.00  0.00    +0.000 A 
ATOM      6  C   UNL     1       6.291   4.551  14.801  0.00  0.00    +0.000 A 
ATOM      7  C   UNL     1       5.008   4.166  15.204  0.00  0.00    +0.000 A 
ATOM      8  C   UNL     1       4.754   4.134  16.562  0.00  0.00    +0.000 A 
ATOM      9  C   UNL     1       3.546   3.756  17.293  0.00  0.00    +0.000 C 
ATOM     10  O   UNL     1       2.498   3.437  16.767  0.00  0.00    +0.000 OA
ATOM     11  N   UNL     1       3.848   3.850  18.623  0.00  0.00    +0.000 N 
ENDROOT
BRANCH  11  12
ATOM     12  C   UNL     1       2.912   3.541  19.693  0.00  0.00    +0.000 C 
BRANCH  12  13
ATOM     13  C   UNL     1       1.829   4.610  19.847  0.00  0.00    +0.000 C 
BRANCH  13  14
ATOM     14  O   UNL     1       2.407   5.789  20.423  0.00  0.00    +0.000 OA
BRANCH  14  15
ATOM     15  C   UNL     1       2.178   6.949  19.729  0.00  0.00    +0.000 A 
ATOM     16  C   UNL     1       1.553   7.977  20.440  0.00  0.00    +0.000 A 
ATOM     17  C   UNL     1       1.265   9.195  19.817  0.00  0.00    +0.000 A 
ATOM     18  C   UNL     1       1.618   9.398  18.484  0.00  0.00    +0.000 A 
ATOM     19  C   UNL     1       2.269   8.387  17.781  0.00  0.00    +0.000 A 
ATOM     20  C   UNL     1       2.553   7.169  18.401  0.00  0.00    +0.000 A 
ENDBRANCH  14  15
ENDBRANCH  13  14
ENDBRANCH  12  13
ENDBRANCH  11  12
TORSDOF 4
ENDMDL
MODEL 3
REMARK VINA RESULT:      -7.5      2.228      3.504
REMARK  Name = 
REMARK  4 active torsions:
REMARK  status: ('A' for Active; 'I' for Inactive)
REMARK    1  A    between atoms: N_11  and  C_12
REMARK    2  A    between atoms: C_12  and  C_13
REMARK    3  A    between atoms: C_13  and  O_14
REMARK    4  A    between atoms: O_14  and  C_15
REMARK                            x       y       z     vdW  Elec       q    Type
REMARK                         _______ _______ _______ _____ _____    ______ ____
ROOT
ATOM      1  O   UNL     1       2.769   3.260  16.909  0.00  0.00    +0.000 OA
ATOM      2  C   UNL     1       3.782   3.741  17.370  0.00  0.00    +0.000 C 
ATOM      3  C   UNL     1       4.947   4.137  16.575  0.00  0.00    +0.000 A 
ATOM      4  C   UNL     1       5.146   4.130  15.208  0.00  0.00    +0.000 A 
ATOM      5  C   UNL     1       6.380   4.596  14.738  0.00  0.00    +0.000 A 
ATOM      6  C   UNL     1       7.372   5.041  15.635  0.00  0.00    +0.000 A 
ATOM      7  C   UNL     1       7.149   5.033  17.015  0.00  0.00    +0.000 A 
ATOM      8  C   UNL     1       5.920   4.578  17.454  0.00  0.00    +0.000 A 
ATOM      9  C   UNL     1       5.374   4.471  18.806  0.00  0.00    +0.000 C 
ATOM     10  O   UNL     1       5.990   4.744  19.817  0.00  0.00    +0.000 OA
ATOM     11  N   UNL     1       4.094   4.009  18.676  0.00  0.00    +0.000 N 
ENDROOT
BRANCH  11  12
ATOM     12  C   UNL     1       3.196   3.778  19.797  0.00  0.00    +0.000 C 
BRANCH  12  13
ATOM     13  C   UNL     1       2.038   4.777  19.833  0.00  0.00    +0.000 C 
BRANCH  13  14
ATOM     14  O   UNL     1       2.496   6.011  20.402  0.00  0.00    +0.000 OA
BRANCH  14  15
ATOM     15  C   UNL     1       2.212   7.133  19.665  0.00  0.00    +0.000 A 
ATOM     16  C   UNL     1       1.535   8.153  20.339  0.00  0.00    +0.000 A 
ATOM     17  C   UNL     1       1.188   9.332  19.672  0.00  0.00    +0.000 A 
ATOM     18  C   UNL     1       1.534   9.504  18.333  0.00  0.00    +0.000 A 
ATOM     19  C   UNL     1       2.237   8.503  17.667  0.00  0.00    +0.000 A 
ATOM     20  C   UNL     1       2.579   7.323  18.332  0.00  0.00    +0.000 A 
ENDBRANCH  14  15
ENDBRANCH  13  14
ENDBRANCH  12  13
ENDBRANCH  11  12
TORSDOF 4
ENDMDL
MODEL 4
REMARK VINA RESULT:      -7.5      1.438      6.703
REMARK  Name = 
REMARK  4 active torsions:
REMARK  status: ('A' for Active; 'I' for Inactive)
REMARK    1  A    between atoms: N_11  and  C_12
REMARK    2  A    between atoms: C_12  and  C_13
REMARK    3  A    between atoms: C_13  and  O_14
REMARK    4  A    between atoms: O_14  and  C_15
REMARK                            x       y       z     vdW  Elec       q    Type
REMARK                         _______ _______ _______ _____ _____    ______ ____
ROOT
ATOM      1  O   UNL     1       2.455   6.868  18.100  0.00  0.00    +0.000 OA
ATOM      2  C   UNL     1       3.123   5.927  18.471  0.00  0.00    +0.000 C 
ATOM      3  C   UNL     1       2.609   4.807  19.263  0.00  0.00    +0.000 A 
ATOM      4  C   UNL     1       1.327   4.524  19.693  0.00  0.00    +0.000 A 
ATOM      5  C   UNL     1       1.142   3.346  20.428  0.00  0.00    +0.000 A 
ATOM      6  C   UNL     1       2.231   2.499  20.718  0.00  0.00    +0.000 A 
ATOM      7  C   UNL     1       3.521   2.811  20.277  0.00  0.00    +0.000 A 
ATOM      8  C   UNL     1       3.675   3.973  19.545  0.00  0.00    +0.000 A 
ATOM      9  C   UNL     1       4.866   4.555  18.929  0.00  0.00    +0.000 C 
ATOM     10  O   UNL     1       5.984   4.087  19.019  0.00  0.00    +0.000 OA
ATOM     11  N   UNL     1       4.457   5.685  18.277  0.00  0.00    +0.000 N 
ENDROOT
BRANCH  11  12
ATOM     12  C   UNL     1       5.344   6.552  17.517  0.00  0.00    +0.000 C 
BRANCH  12  13
ATOM     13  C   UNL     1       5.306   6.256  16.017  0.00  0.00    +0.000 C 
BRANCH  13  14
ATOM     14  O   UNL     1       6.561   5.690  15.615  0.00  0.00    +0.000 OA
BRANCH  14  15
ATOM     15  C   UNL     1       6.534   4.993  14.434  0.00  0.00    +0.000 A 
ATOM     16  C   UNL     1       7.572   5.263  13.538  0.00  0.00    +0.000 A 
ATOM     17  C   UNL     1       7.626   4.614  12.302  0.00  0.00    +0.000 A 
ATOM     18  C   UNL     1       6.652   3.677  11.962  0.00  0.00    +0.000 A 
ATOM     19  C   UNL     1       5.634   3.382  12.864  0.00  0.00    +0.000 A 
ATOM     20  C   UNL     1       5.576   4.033  14.098  0.00  0.00    +0.000 A 
ENDBRANCH  14  15
ENDBRANCH  13  14
ENDBRANCH  12  13
ENDBRANCH  11  12
TORSDOF 4
ENDMDL
MODEL 5
REMARK VINA RESULT:      -7.5      0.263      1.105
REMARK  Name = 
REMARK  4 active torsions:
REMARK  status: ('A' for Active; 'I' for Inactive)
REMARK    1  A    between atoms: N_11  and  C_12
REMARK    2  A    between atoms: C_12  and  C_13
REMARK    3  A    between atoms: C_13  and  O_14
REMARK    4  A    between atoms: O_14  and  C_15
REMARK                            x       y       z     vdW  Elec       q    Type
REMARK                         _______ _______ _______ _____ _____    ______ ____
ROOT
ATOM      1  O   UNL     1       4.535   3.248  16.309  0.00  0.00    +0.000 OA
ATOM      2  C   UNL     1       5.387   4.041  15.968  0.00  0.00    +0.000 C 
ATOM      3  C   UNL     1       5.986   4.092  14.632  0.00  0.00    +0.000 A 
ATOM      4  C   UNL     1       5.707   3.359  13.495  0.00  0.00    +0.000 A 
ATOM      5  C   UNL     1       6.448   3.656  12.344  0.00  0.00    +0.000 A 
ATOM      6  C   UNL     1       7.439   4.659  12.363  0.00  0.00    +0.000 A 
ATOM      7  C   UNL     1       7.706   5.383  13.529  0.00  0.00    +0.000 A 
ATOM      8  C   UNL     1       6.955   5.078  14.649  0.00  0.00    +0.000 A 
ATOM      9  C   UNL     1       6.971   5.660  15.990  0.00  0.00    +0.000 C 
ATOM     10  O   UNL     1       7.738   6.530  16.350  0.00  0.00    +0.000 OA
ATOM     11  N   UNL     1       5.990   5.027  16.702  0.00  0.00    +0.000 N 
ENDROOT
BRANCH  11  12
ATOM     12  C   UNL     1       5.669   5.330  18.088  0.00  0.00    +0.000 C 
BRANCH  12  13
ATOM     13  C   UNL     1       4.289   5.973  18.241  0.00  0.00    +0.000 C 
BRANCH  13  14
ATOM     14  O   UNL     1       3.818   5.767  19.579  0.00  0.00    +0.000 OA
BRANCH  14  15
ATOM     15  C   UNL     1       2.809   4.847  19.707  0.00  0.00    +0.000 A 
ATOM     16  C   UNL     1       2.239   4.392  18.514  0.00  0.00    +0.000 A 
ATOM     17  C   UNL     1       1.195   3.463  18.538  0.00  0.00    +0.000 A 
ATOM     18  C   UNL     1       0.728   2.970  19.755  0.00  0.00    +0.000 A 
ATOM     19  C   UNL     1       1.314   3.397  20.944  0.00  0.00    +0.000 A 
ATOM     20  C   UNL     1       2.354   4.329  20.921  0.00  0.00    +0.000 A 
ENDBRANCH  14  15
ENDBRANCH  13  14
ENDBRANCH  12  13
ENDBRANCH  11  12
TORSDOF 4
ENDMDL
MODEL 6
REMARK VINA RESULT:      -7.5      1.455      6.754
REMARK  Name = 
REMARK  4 active torsions:
REMARK  status: ('A' for Active; 'I' for Inactive)
REMARK    1  A    between atoms: N_11  and  C_12
REMARK    2  A    between atoms: C_12  and  C_13
REMARK    3  A    between atoms: C_13  and  O_14
REMARK    4  A    between atoms: O_14  and  C_15
REMARK                            x       y       z     vdW  Elec       q    Type
REMARK                         _______ _______ _______ _____ _____    ______ ____
ROOT
ATOM      1  O   UNL     1       2.507   6.787  17.978  0.00  0.00    +0.000 OA
ATOM      2  C   UNL     1       3.148   5.857  18.419  0.00  0.00    +0.000 C 
ATOM      3  C   UNL     1       2.599   4.806  19.279  0.00  0.00    +0.000 A 
ATOM      4  C   UNL     1       1.306   4.585  19.712  0.00  0.00    +0.000 A 
ATOM      5  C   UNL     1       1.085   3.464  20.523  0.00  0.00    +0.000 A 
ATOM      6  C   UNL     1       2.150   2.612  20.882  0.00  0.00    +0.000 A 
ATOM      7  C   UNL     1       3.451   2.861  20.434  0.00  0.00    +0.000 A 
ATOM      8  C   UNL     1       3.641   3.967  19.628  0.00  0.00    +0.000 A 
ATOM      9  C   UNL     1       4.852   4.477  18.987  0.00  0.00    +0.000 C 
ATOM     10  O   UNL     1       5.956   3.989  19.121  0.00  0.00    +0.000 OA
ATOM     11  N   UNL     1       4.477   5.570  18.256  0.00  0.00    +0.000 N 
ENDROOT
BRANCH  11  12
ATOM     12  C   UNL     1       5.393   6.362  17.450  0.00  0.00    +0.000 C 
BRANCH  12  13
ATOM     13  C   UNL     1       5.208   6.123  15.950  0.00  0.00    +0.000 C 
BRANCH  13  14
ATOM     14  O   UNL     1       5.485   4.748  15.654  0.00  0.00    +0.000 OA
BRANCH  14  15
ATOM     15  C   UNL     1       6.062   4.520  14.430  0.00  0.00    +0.000 A 
ATOM     16  C   UNL     1       5.386   3.631  13.589  0.00  0.00    +0.000 A 
ATOM     17  C   UNL     1       5.900   3.323  12.326  0.00  0.00    +0.000 A 
ATOM     18  C   UNL     1       7.083   3.917  11.890  0.00  0.00    +0.000 A 
ATOM     19  C   UNL     1       7.742   4.827  12.712  0.00  0.00    +0.000 A 
ATOM     20  C   UNL     1       7.232   5.132  13.976  0.00  0.00    +0.000 A 
ENDBRANCH  14  15
ENDBRANCH  13  14
ENDBRANCH  12  13
ENDBRANCH  11  12
TORSDOF 4
ENDMDL
MODEL 7
REMARK VINA RESULT:      -7.4      0.577      2.074
REMARK  Name = 
REMARK  4 active torsions:
REMARK  status: ('A' for Active; 'I' for Inactive)
REMARK    1  A    between atoms: N_11  and  C_12
REMARK    2  A    between atoms: C_12  and  C_13
REMARK    3  A    between atoms: C_13  and  O_14
REMARK    4  A    between atoms: O_14  and  C_15
REMARK                            x       y       z     vdW  Elec       q    Type
REMARK                         _______ _______ _______ _____ _____    ______ ____
ROOT
ATOM      1  O   UNL     1       7.616   6.433  16.372  0.00  0.00    +0.000 OA
ATOM      2  C   UNL     1       6.883   5.564  15.951  0.00  0.00    +0.000 C 
ATOM      3  C   UNL     1       6.907   5.051  14.580  0.00  0.00    +0.000 A 
ATOM      4  C   UNL     1       7.746   5.350  13.524  0.00  0.00    +0.000 A 
ATOM      5  C   UNL     1       7.529   4.668  12.320  0.00  0.00    +0.000 A 
ATOM      6  C   UNL     1       6.487   3.725  12.203  0.00  0.00    +0.000 A 
ATOM      7  C   UNL     1       5.647   3.445  13.285  0.00  0.00    +0.000 A 
ATOM      8  C   UNL     1       5.888   4.123  14.465  0.00  0.00    +0.000 A 
ATOM      9  C   UNL     1       5.219   4.039  15.762  0.00  0.00    +0.000 C 
ATOM     10  O   UNL     1       4.253   3.339  15.990  0.00  0.00    +0.000 OA
ATOM     11  N   UNL     1       5.887   4.886  16.602  0.00  0.00    +0.000 N 
ENDROOT
BRANCH  11  12
ATOM     12  C   UNL     1       5.541   5.082  18.001  0.00  0.00    +0.000 C 
BRANCH  12  13
ATOM     13  C   UNL     1       4.610   6.278  18.211  0.00  0.00    +0.000 C 
BRANCH  13  14
ATOM     14  O   UNL     1       3.308   5.958  17.703  0.00  0.00    +0.000 OA
BRANCH  14  15
ATOM     15  C   UNL     1       2.530   5.193  18.534  0.00  0.00    +0.000 A 
ATOM     16  C   UNL     1       2.441   5.625  19.861  0.00  0.00    +0.000 A 
ATOM     17  C   UNL     1       1.683   4.906  20.789  0.00  0.00    +0.000 A 
ATOM     18  C   UNL     1       0.994   3.761  20.392  0.00  0.00    +0.000 A 
ATOM     19  C   UNL     1       1.055   3.346  19.064  0.00  0.00    +0.000 A 
ATOM     20  C   UNL     1       1.816   4.061  18.136  0.00  0.00    +0.000 A 
ENDBRANCH  14  15
ENDBRANCH  13  14
ENDBRANCH  12  13
ENDBRANCH  11  12
TORSDOF 4
ENDMDL
MODEL 8
REMARK VINA RESULT:      -7.4      2.018      6.299
REMARK  Name = 
REMARK  4 active torsions:
REMARK  status: ('A' for Active; 'I' for Inactive)
REMARK    1  A    between atoms: N_11  and  C_12
REMARK    2  A    between atoms: C_12  and  C_13
REMARK    3  A    between atoms: C_13  and  O_14
REMARK    4  A    between atoms: O_14  and  C_15
REMARK                            x       y       z     vdW  Elec       q    Type
REMARK                         _______ _______ _______ _____ _____    ______ ____
ROOT
ATOM      1  O   UNL     1       2.531   2.184  16.751  0.00  0.00    +0.000 OA
ATOM      2  C   UNL     1       2.854   3.068  17.516  0.00  0.00    +0.000 C 
ATOM      3  C   UNL     1       2.375   3.187  18.895  0.00  0.00    +0.000 A 
ATOM      4  C   UNL     1       1.558   2.356  19.637  0.00  0.00    +0.000 A 
ATOM      5  C   UNL     1       1.292   2.734  20.959  0.00  0.00    +0.000 A 
ATOM      6  C   UNL     1       1.833   3.920  21.494  0.00  0.00    +0.000 A 
ATOM      7  C   UNL     1       2.653   4.748  20.720  0.00  0.00    +0.000 A 
ATOM      8  C   UNL     1       2.909   4.348  19.422  0.00  0.00    +0.000 A 
ATOM      9  C   UNL     1       3.733   4.966  18.384  0.00  0.00    +0.000 C 
ATOM     10  O   UNL     1       4.317   6.024  18.511  0.00  0.00    +0.000 OA
ATOM     11  N   UNL     1       3.687   4.133  17.300  0.00  0.00    +0.000 N 
ENDROOT
BRANCH  11  12
ATOM     12  C   UNL     1       4.394   4.382  16.054  0.00  0.00    +0.000 C 
BRANCH  12  13
ATOM     13  C   UNL     1       5.712   3.610  15.965  0.00  0.00    +0.000 C 
BRANCH  13  14
ATOM     14  O   UNL     1       6.771   4.519  15.638  0.00  0.00    +0.000 OA
BRANCH  14  15
ATOM     15  C   UNL     1       7.175   5.336  16.662  0.00  0.00    +0.000 A 
ATOM     16  C   UNL     1       7.585   4.694  17.834  0.00  0.00    +0.000 A 
ATOM     17  C   UNL     1       8.002   5.440  18.940  0.00  0.00    +0.000 A 
ATOM     18  C   UNL     1       8.030   6.832  18.874  0.00  0.00    +0.000 A 
ATOM     19  C   UNL     1       7.653   7.474  17.698  0.00  0.00    +0.000 A 
ATOM     20  C   UNL     1       7.231   6.730  16.594  0.00  0.00    +0.000 A 
ENDBRANCH  14  15
ENDBRANCH  13  14
ENDBRANCH  12  13
ENDBRANCH  11  12
TORSDOF 4
ENDMDL
MODEL 9
REMARK VINA RESULT:      -7.4      1.449      6.369
REMARK  Name = 
REMARK  4 active torsions:
REMARK  status: ('A' for Active; 'I' for Inactive)
REMARK    1  A    between atoms: N_11  and  C_12
REMARK    2  A    between atoms: C_12  and  C_13
REMARK    3  A    between atoms: C_13  and  O_14
REMARK    4  A    between atoms: O_14  and  C_15
REMARK                            x       y       z     vdW  Elec       q    Type
REMARK                         _______ _______ _______ _____ _____    ______ ____
ROOT
ATOM      1  O   UNL     1       3.633   6.401  17.023  0.00  0.00    +0.000 OA
ATOM      2  C   UNL     1       3.887   5.416  17.684  0.00  0.00    +0.000 C 
ATOM      3  C   UNL     1       2.893   4.438  18.131  0.00  0.00    +0.000 A 
ATOM      4  C   UNL     1       1.537   4.356  17.877  0.00  0.00    +0.000 A 
ATOM      5  C   UNL     1       0.845   3.275  18.437  0.00  0.00    +0.000 A 
ATOM      6  C   UNL     1       1.516   2.323  19.232  0.00  0.00    +0.000 A 
ATOM      7  C   UNL     1       2.888   2.432  19.479  0.00  0.00    +0.000 A 
ATOM      8  C   UNL     1       3.550   3.502  18.907  0.00  0.00    +0.000 A 
ATOM      9  C   UNL     1       4.963   3.877  18.950  0.00  0.00    +0.000 C 
ATOM     10  O   UNL     1       5.811   3.279  19.582  0.00  0.00    +0.000 OA
ATOM     11  N   UNL     1       5.095   4.993  18.171  0.00  0.00    +0.000 N 
ENDROOT
BRANCH  11  12
ATOM     12  C   UNL     1       6.358   5.676  17.938  0.00  0.00    +0.000 C 
BRANCH  12  13
ATOM     13  C   UNL     1       7.271   4.906  16.982  0.00  0.00    +0.000 C 
BRANCH  13  14
ATOM     14  O   UNL     1       7.408   5.644  15.761  0.00  0.00    +0.000 OA
BRANCH  14  15
ATOM     15  C   UNL     1       6.984   4.990  14.633  0.00  0.00    +0.000 A 
ATOM     16  C   UNL     1       7.760   5.177  13.486  0.00  0.00    +0.000 A 
ATOM     17  C   UNL     1       7.404   4.563  12.283  0.00  0.00    +0.000 A 
ATOM     18  C   UNL     1       6.279   3.743  12.224  0.00  0.00    +0.000 A 
ATOM     19  C   UNL     1       5.520   3.528  13.372  0.00  0.00    +0.000 A 
ATOM     20  C   UNL     1       5.873   4.145  14.574  0.00  0.00    +0.000 A 
ENDBRANCH  14  15
ENDBRANCH  13  14
ENDBRANCH  12  13
ENDBRANCH  11  12
TORSDOF 4
ENDMDL
