MODEL 1
REMARK VINA RESULT:      -7.4      0.000      0.000
REMARK  Name = 
REMARK  9 active torsions:
REMARK  status: ('A' for Active; 'I' for Inactive)
REMARK    1  A    between atoms: C_1  and  O_2
REMARK    2  A    between atoms: O_2  and  C_3
REMARK    3  A    between atoms: N_5  and  C_6
REMARK    4  A    between atoms: C_9  and  C_10
REMARK    5  A    between atoms: C_18  and  O_19
REMARK    6  A    between atoms: O_19  and  C_20
REMARK    7  A    between atoms: C_28  and  O_30
REMARK    8  A    between atoms: O_30  and  C_31
REMARK    9  A    between atoms: C_31  and  C_32
REMARK                            x       y       z     vdW  Elec       q    Type
REMARK                         _______ _______ _______ _____ _____    ______ ____
ROOT
ATOM      1  C   UNL     1       0.760   9.535  20.140  0.00  0.00    +0.000 A 
ATOM      2  C   UNL     1       0.793  10.880  19.722  0.00  0.00    +0.000 A 
ATOM      3  N   UNL     1       0.238  12.020  20.307  0.00  0.00    +0.000 N 
ATOM      4  N   UNL     1       1.431  11.257  18.586  0.00  0.00    +0.000 NA
ATOM      5  C   UNL     1       2.047  10.323  17.873  0.00  0.00    +0.000 A 
ATOM      6  N   UNL     1       2.127   9.043  18.202  0.00  0.00    +0.000 NA
ATOM      7  C   UNL     1       1.481   8.660  19.323  0.00  0.00    +0.000 A 
ATOM      8  H   UNL     1       0.420  12.779  19.647  0.00  0.00    +0.000 HD
ENDROOT
BRANCH   3   9
ATOM      9  C   UNL     1      -0.836  12.339  21.172  0.00  0.00    +0.000 A 
ATOM     10  C   UNL     1      -0.639  12.678  22.500  0.00  0.00    +0.000 A 
ATOM     11  C   UNL     1      -1.702  12.729  23.401  0.00  0.00    +0.000 A 
ATOM     12  C   UNL     1      -3.007  12.527  22.962  0.00  0.00    +0.000 A 
ATOM     13  C   UNL     1      -3.249  12.383  21.595  0.00  0.00    +0.000 A 
ATOM     14  C   UNL     1      -2.165  12.293  20.708  0.00  0.00    +0.000 A 
ATOM     15 CL   UNL     1      -2.531  12.113  19.023  0.00  0.00    +0.000 Cl
BRANCH  12  16
ATOM     16  C   UNL     1      -4.075  12.442  23.916  0.00  0.00    +0.000 C 
ATOM     17  N   UNL     1      -4.937  12.321  24.678  0.00  0.00    +0.000 NA
ENDBRANCH  12  16
ENDBRANCH   3   9
BRANCH   1  19
ATOM     18  C   UNL     1       0.499   9.176  22.547  0.00  0.00    +0.000 C 
ATOM     19  O   UNL     1       0.005   9.183  21.215  0.00  0.00    +0.000 OA
ENDBRANCH   1  19
BRANCH   7  20
ATOM     20  O   UNL     1       1.554   7.309  19.623  0.00  0.00    +0.000 OA
BRANCH  20  21
ATOM     21  C   UNL     1       2.696   6.658  19.039  0.00  0.00    +0.000 C 
ATOM     22  C   UNL     1       2.287   5.654  17.961  0.00  0.00    +0.000 C 
ATOM     23  C   UNL     1       1.455   4.539  18.597  0.00  0.00    +0.000 C 
ATOM     24  O   UNL     1       2.147   3.829  19.611  0.00  0.00    +0.000 OA
ATOM     25  C   UNL     1       2.827   4.607  20.589  0.00  0.00    +0.000 C 
ATOM     26  C   UNL     1       3.512   5.881  20.075  0.00  0.00    +0.000 C 
ATOM     27  C   UNL     1       4.836   5.512  19.396  0.00  0.00    +0.000 C 
ATOM     28  N   UNL     1       4.665   4.792  18.141  0.00  0.00    +0.000 N 
ATOM     29  C   UNL     1       5.792   4.128  17.662  0.00  0.00    +0.000 C 
ATOM     30  O   UNL     1       6.815   3.987  18.325  0.00  0.00    +0.000 OA
ATOM     31  C   UNL     1       3.554   5.148  17.255  0.00  0.00    +0.000 C 
BRANCH  29  32
ATOM     32  O   UNL     1       5.647   3.654  16.388  0.00  0.00    +0.000 OA
BRANCH  32  33
ATOM     33  C   UNL     1       6.290   4.405  15.331  0.00  0.00    +0.000 C 
ATOM     34  C   UNL     1       7.387   5.327  15.769  0.00  0.00    +0.000 C 
ATOM     35  C   UNL     1       6.329   3.742  13.975  0.00  0.00    +0.000 C 
ATOM     36  C   UNL     1       5.370   4.868  14.229  0.00  0.00    +0.000 C 
ENDBRANCH  32  33
ENDBRANCH  29  32
ENDBRANCH  20  21
ENDBRANCH   7  20
TORSDOF 7
ENDMDL
MODEL 2
REMARK VINA RESULT:      -6.9      3.436      9.751
REMARK  Name = 
REMARK  9 active torsions:
REMARK  status: ('A' for Active; 'I' for Inactive)
REMARK    1  A    between atoms: C_1  and  O_2
REMARK    2  A    between atoms: O_2  and  C_3
REMARK    3  A    between atoms: N_5  and  C_6
REMARK    4  A    between atoms: C_9  and  C_10
REMARK    5  A    between atoms: C_18  and  O_19
REMARK    6  A    between atoms: O_19  and  C_20
REMARK    7  A    between atoms: C_28  and  O_30
REMARK    8  A    between atoms: O_30  and  C_31
REMARK    9  A    between atoms: C_31  and  C_32
REMARK                            x       y       z     vdW  Elec       q    Type
REMARK                         _______ _______ _______ _____ _____    ______ ____
ROOT
ATOM      1  C   UNL     1       3.154   6.599  19.491  0.00  0.00    +0.000 A 
ATOM      2  C   UNL     1       3.118   5.192  19.471  0.00  0.00    +0.000 A 
ATOM      3  N   UNL     1       3.977   4.276  18.859  0.00  0.00    +0.000 N 
ATOM      4  N   UNL     1       2.144   4.494  20.108  0.00  0.00    +0.000 NA
ATOM      5  C   UNL     1       1.221   5.174  20.775  0.00  0.00    +0.000 A 
ATOM      6  N   UNL     1       1.190   6.491  20.906  0.00  0.00    +0.000 NA
ATOM      7  C   UNL     1       2.148   7.190  20.261  0.00  0.00    +0.000 A 
ATOM      8  H   UNL     1       3.554   3.359  19.017  0.00  0.00    +0.000 HD
ENDROOT
BRANCH   3   9
ATOM      9  C   UNL     1       4.868   4.247  17.759  0.00  0.00    +0.000 A 
ATOM     10  C   UNL     1       6.210   4.564  17.888  0.00  0.00    +0.000 A 
ATOM     11  C   UNL     1       7.012   4.790  16.770  0.00  0.00    +0.000 A 
ATOM     12  C   UNL     1       6.501   4.611  15.488  0.00  0.00    +0.000 A 
ATOM     13  C   UNL     1       5.211   4.098  15.338  0.00  0.00    +0.000 A 
ATOM     14  C   UNL     1       4.404   3.916  16.472  0.00  0.00    +0.000 A 
ATOM     15 CL   UNL     1       2.813   3.277  16.218  0.00  0.00    +0.000 Cl
BRANCH  12  16
ATOM     16  C   UNL     1       7.288   4.981  14.348  0.00  0.00    +0.000 C 
ATOM     17  N   UNL     1       7.916   5.230  13.409  0.00  0.00    +0.000 NA
ENDBRANCH  12  16
ENDBRANCH   3   9
BRANCH   1  19
ATOM     18  C   UNL     1       3.870   7.585  17.369  0.00  0.00    +0.000 C 
ATOM     19  O   UNL     1       4.072   7.261  18.737  0.00  0.00    +0.000 OA
ENDBRANCH   1  19
BRANCH   7  20
ATOM     20  O   UNL     1       2.071   8.568  20.390  0.00  0.00    +0.000 OA
BRANCH  20  21
ATOM     21  C   UNL     1       0.877   9.127  19.814  0.00  0.00    +0.000 C 
ATOM     22  C   UNL     1       1.151   9.779  18.459  0.00  0.00    +0.000 C 
ATOM     23  C   UNL     1       2.110  10.955  18.648  0.00  0.00    +0.000 C 
ATOM     24  O   UNL     1       1.607  11.957  19.517  0.00  0.00    +0.000 OA
ATOM     25  C   UNL     1       1.058  11.517  20.753  0.00  0.00    +0.000 C 
ATOM     26  C   UNL     1       0.257  10.208  20.704  0.00  0.00    +0.000 C 
ATOM     27  C   UNL     1      -1.141  10.484  20.140  0.00  0.00    +0.000 C 
ATOM     28  N   UNL     1      -1.139  10.834  18.725  0.00  0.00    +0.000 N 
ATOM     29  C   UNL     1      -2.302  11.432  18.245  0.00  0.00    +0.000 C 
ATOM     30  O   UNL     1      -3.206  11.819  18.979  0.00  0.00    +0.000 OA
ATOM     31  C   UNL     1      -0.190  10.175  17.824  0.00  0.00    +0.000 C 
BRANCH  29  32
ATOM     32  O   UNL     1      -2.337  11.542  16.883  0.00  0.00    +0.000 OA
BRANCH  32  33
ATOM     33  C   UNL     1      -3.418  10.867  16.197  0.00  0.00    +0.000 C 
ATOM     34  C   UNL     1      -4.798  11.336  16.548  0.00  0.00    +0.000 C 
ATOM     35  C   UNL     1      -3.104  10.344  14.816  0.00  0.00    +0.000 C 
ATOM     36  C   UNL     1      -3.206   9.391  15.971  0.00  0.00    +0.000 C 
ENDBRANCH  32  33
ENDBRANCH  29  32
ENDBRANCH  20  21
ENDBRANCH   7  20
TORSDOF 7
ENDMDL
MODEL 3
REMARK VINA RESULT:      -6.9      3.039     10.621
REMARK  Name = 
REMARK  9 active torsions:
REMARK  status: ('A' for Active; 'I' for Inactive)
REMARK    1  A    between atoms: C_1  and  O_2
REMARK    2  A    between atoms: O_2  and  C_3
REMARK    3  A    between atoms: N_5  and  C_6
REMARK    4  A    between atoms: C_9  and  C_10
REMARK    5  A    between atoms: C_18  and  O_19
REMARK    6  A    between atoms: O_19  and  C_20
REMARK    7  A    between atoms: C_28  and  O_30
REMARK    8  A    between atoms: O_30  and  C_31
REMARK    9  A    between atoms: C_31  and  C_32
REMARK                            x       y       z     vdW  Elec       q    Type
REMARK                         _______ _______ _______ _____ _____    ______ ____
ROOT
ATOM      1  C   UNL     1       1.938   8.283  19.602  0.00  0.00    +0.000 A 
ATOM      2  C   UNL     1       1.944   7.084  20.341  0.00  0.00    +0.000 A 
ATOM      3  N   UNL     1       2.773   5.964  20.236  0.00  0.00    +0.000 N 
ATOM      4  N   UNL     1       1.054   6.857  21.339  0.00  0.00    +0.000 NA
ATOM      5  C   UNL     1       0.174   7.809  21.622  0.00  0.00    +0.000 A 
ATOM      6  N   UNL     1       0.114   8.992  21.030  0.00  0.00    +0.000 NA
ATOM      7  C   UNL     1       0.988   9.216  20.026  0.00  0.00    +0.000 A 
ATOM      8  H   UNL     1       2.394   5.284  20.898  0.00  0.00    +0.000 HD
ENDROOT
BRANCH   3   9
ATOM      9  C   UNL     1       3.561   5.331  19.246  0.00  0.00    +0.000 A 
ATOM     10  C   UNL     1       4.934   5.497  19.178  0.00  0.00    +0.000 A 
ATOM     11  C   UNL     1       5.659   5.093  18.058  0.00  0.00    +0.000 A 
ATOM     12  C   UNL     1       5.027   4.427  17.012  0.00  0.00    +0.000 A 
ATOM     13  C   UNL     1       3.684   4.072  17.148  0.00  0.00    +0.000 A 
ATOM     14  C   UNL     1       2.960   4.522  18.263  0.00  0.00    +0.000 A 
ATOM     15 CL   UNL     1       1.296   4.048  18.372  0.00  0.00    +0.000 Cl
BRANCH  12  16
ATOM     16  C   UNL     1       5.751   4.142  15.806  0.00  0.00    +0.000 C 
ATOM     17  N   UNL     1       6.347   3.964  14.832  0.00  0.00    +0.000 NA
ENDBRANCH  12  16
ENDBRANCH   3   9
BRANCH   1  19
ATOM     18  C   UNL     1       2.406   8.017  17.214  0.00  0.00    +0.000 C 
ATOM     19  O   UNL     1       2.763   8.418  18.530  0.00  0.00    +0.000 OA
ENDBRANCH   1  19
BRANCH   7  20
ATOM     20  O   UNL     1       0.880  10.450  19.405  0.00  0.00    +0.000 OA
BRANCH  20  21
ATOM     21  C   UNL     1       0.123  11.406  20.167  0.00  0.00    +0.000 C 
ATOM     22  C   UNL     1      -1.286  11.595  19.605  0.00  0.00    +0.000 C 
ATOM     23  C   UNL     1      -1.193  12.171  18.192  0.00  0.00    +0.000 C 
ATOM     24  O   UNL     1      -0.535  13.426  18.137  0.00  0.00    +0.000 OA
ATOM     25  C   UNL     1       0.701  13.532  18.834  0.00  0.00    +0.000 C 
ATOM     26  C   UNL     1       0.781  12.789  20.176  0.00  0.00    +0.000 C 
ATOM     27  C   UNL     1       0.061  13.605  21.255  0.00  0.00    +0.000 C 
ATOM     28  N   UNL     1      -1.386  13.656  21.078  0.00  0.00    +0.000 N 
ATOM     29  C   UNL     1      -2.051  14.647  21.795  0.00  0.00    +0.000 C 
ATOM     30  O   UNL     1      -1.466  15.546  22.392  0.00  0.00    +0.000 OA
ATOM     31  C   UNL     1      -2.089  12.473  20.576  0.00  0.00    +0.000 C 
BRANCH  29  32
ATOM     32  O   UNL     1      -3.412  14.520  21.769  0.00  0.00    +0.000 OA
BRANCH  32  33
ATOM     33  C   UNL     1      -4.080  14.338  23.040  0.00  0.00    +0.000 C 
ATOM     34  C   UNL     1      -4.488  15.598  23.741  0.00  0.00    +0.000 C 
ATOM     35  C   UNL     1      -4.883  13.070  23.192  0.00  0.00    +0.000 C 
ATOM     36  C   UNL     1      -3.554  13.198  23.877  0.00  0.00    +0.000 C 
ENDBRANCH  32  33
ENDBRANCH  29  32
ENDBRANCH  20  21
ENDBRANCH   7  20
TORSDOF 7
ENDMDL
MODEL 4
REMARK VINA RESULT:      -6.9      3.391     10.524
REMARK  Name = 
REMARK  9 active torsions:
REMARK  status: ('A' for Active; 'I' for Inactive)
REMARK    1  A    between atoms: C_1  and  O_2
REMARK    2  A    between atoms: O_2  and  C_3
REMARK    3  A    between atoms: N_5  and  C_6
REMARK    4  A    between atoms: C_9  and  C_10
REMARK    5  A    between atoms: C_18  and  O_19
REMARK    6  A    between atoms: O_19  and  C_20
REMARK    7  A    between atoms: C_28  and  O_30
REMARK    8  A    between atoms: O_30  and  C_31
REMARK    9  A    between atoms: C_31  and  C_32
REMARK                            x       y       z     vdW  Elec       q    Type
REMARK                         _______ _______ _______ _____ _____    ______ ____
ROOT
ATOM      1  C   UNL     1       1.608   8.601  19.762  0.00  0.00    +0.000 A 
ATOM      2  C   UNL     1       1.742   7.389  20.467  0.00  0.00    +0.000 A 
ATOM      3  N   UNL     1       2.632   6.329  20.279  0.00  0.00    +0.000 N 
ATOM      4  N   UNL     1       0.936   7.081  21.514  0.00  0.00    +0.000 NA
ATOM      5  C   UNL     1       0.016   7.965  21.878  0.00  0.00    +0.000 A 
ATOM      6  N   UNL     1      -0.159   9.155  21.323  0.00  0.00    +0.000 NA
ATOM      7  C   UNL     1       0.629   9.458  20.271  0.00  0.00    +0.000 A 
ATOM      8  H   UNL     1       2.343   5.611  20.946  0.00  0.00    +0.000 HD
ENDROOT
BRANCH   3   9
ATOM      9  C   UNL     1       3.393   5.773  19.223  0.00  0.00    +0.000 A 
ATOM     10  C   UNL     1       4.692   6.173  18.958  0.00  0.00    +0.000 A 
ATOM     11  C   UNL     1       5.332   5.820  17.771  0.00  0.00    +0.000 A 
ATOM     12  C   UNL     1       4.707   4.975  16.858  0.00  0.00    +0.000 A 
ATOM     13  C   UNL     1       3.481   4.400  17.196  0.00  0.00    +0.000 A 
ATOM     14  C   UNL     1       2.833   4.798  18.375  0.00  0.00    +0.000 A 
ATOM     15 CL   UNL     1       1.313   4.047  18.737  0.00  0.00    +0.000 Cl
BRANCH  12  16
ATOM     16  C   UNL     1       5.313   4.732  15.580  0.00  0.00    +0.000 C 
ATOM     17  N   UNL     1       5.775   4.491  14.548  0.00  0.00    +0.000 NA
ENDBRANCH  12  16
ENDBRANCH   3   9
BRANCH   1  19
ATOM     18  C   UNL     1       1.925   8.434  17.340  0.00  0.00    +0.000 C 
ATOM     19  O   UNL     1       2.350   8.814  18.642  0.00  0.00    +0.000 OA
ENDBRANCH   1  19
BRANCH   7  20
ATOM     20  O   UNL     1       0.400  10.696  19.691  0.00  0.00    +0.000 OA
BRANCH  20  21
ATOM     21  C   UNL     1      -0.934  11.188  19.909  0.00  0.00    +0.000 C 
ATOM     22  C   UNL     1      -1.585  11.659  18.608  0.00  0.00    +0.000 C 
ATOM     23  C   UNL     1      -0.795  12.840  18.045  0.00  0.00    +0.000 C 
ATOM     24  O   UNL     1      -0.736  13.949  18.925  0.00  0.00    +0.000 OA
ATOM     25  C   UNL     1      -0.389  13.677  20.277  0.00  0.00    +0.000 C 
ATOM     26  C   UNL     1      -0.960  12.381  20.869  0.00  0.00    +0.000 C 
ATOM     27  C   UNL     1      -2.428  12.596  21.252  0.00  0.00    +0.000 C 
ATOM     28  N   UNL     1      -3.311  12.762  20.103  0.00  0.00    +0.000 N 
ATOM     29  C   UNL     1      -4.565  13.305  20.373  0.00  0.00    +0.000 C 
ATOM     30  O   UNL     1      -4.862  13.792  21.460  0.00  0.00    +0.000 OA
ATOM     31  C   UNL     1      -3.060  11.984  18.888  0.00  0.00    +0.000 C 
BRANCH  29  32
ATOM     32  O   UNL     1      -5.428  13.240  19.314  0.00  0.00    +0.000 OA
BRANCH  32  33
ATOM     33  C   UNL     1      -6.726  12.650  19.561  0.00  0.00    +0.000 C 
ATOM     34  C   UNL     1      -7.792  13.601  20.014  0.00  0.00    +0.000 C 
ATOM     35  C   UNL     1      -7.070  11.435  18.734  0.00  0.00    +0.000 C 
ATOM     36  C   UNL     1      -6.693  11.274  20.178  0.00  0.00    +0.000 C 
ENDBRANCH  32  33
ENDBRANCH  29  32
ENDBRANCH  20  21
ENDBRANCH   7  20
TORSDOF 7
ENDMDL
MODEL 5
REMARK VINA RESULT:      -6.6      1.188      1.549
REMARK  Name = 
REMARK  9 active torsions:
REMARK  status: ('A' for Active; 'I' for Inactive)
REMARK    1  A    between atoms: C_1  and  O_2
REMARK    2  A    between atoms: O_2  and  C_3
REMARK    3  A    between atoms: N_5  and  C_6
REMARK    4  A    between atoms: C_9  and  C_10
REMARK    5  A    between atoms: C_18  and  O_19
REMARK    6  A    between atoms: O_19  and  C_20
REMARK    7  A    between atoms: C_28  and  O_30
REMARK    8  A    between atoms: O_30  and  C_31
REMARK    9  A    between atoms: C_31  and  C_32
REMARK                            x       y       z     vdW  Elec       q    Type
REMARK                         _______ _______ _______ _____ _____    ______ ____
ROOT
ATOM      1  C   UNL     1       0.388   9.473  19.803  0.00  0.00    +0.000 A 
ATOM      2  C   UNL     1       0.399  10.808  19.353  0.00  0.00    +0.000 A 
ATOM      3  N   UNL     1      -0.418  11.885  19.703  0.00  0.00    +0.000 N 
ATOM      4  N   UNL     1       1.296  11.241  18.432  0.00  0.00    +0.000 NA
ATOM      5  C   UNL     1       2.187  10.374  17.968  0.00  0.00    +0.000 A 
ATOM      6  N   UNL     1       2.302   9.115  18.362  0.00  0.00    +0.000 NA
ATOM      7  C   UNL     1       1.402   8.676  19.267  0.00  0.00    +0.000 A 
ATOM      8  H   UNL     1      -0.133  12.652  19.090  0.00  0.00    +0.000 HD
ENDROOT
BRANCH   3   9
ATOM      9  C   UNL     1      -1.724  12.090  20.208  0.00  0.00    +0.000 A 
ATOM     10  C   UNL     1      -2.848  12.007  19.403  0.00  0.00    +0.000 A 
ATOM     11  C   UNL     1      -4.090  12.466  19.841  0.00  0.00    +0.000 A 
ATOM     12  C   UNL     1      -4.247  12.939  21.141  0.00  0.00    +0.000 A 
ATOM     13  C   UNL     1      -3.177  12.845  22.031  0.00  0.00    +0.000 A 
ATOM     14  C   UNL     1      -1.924  12.419  21.562  0.00  0.00    +0.000 A 
ATOM     15 CL   UNL     1      -0.635  12.325  22.717  0.00  0.00    +0.000 Cl
BRANCH  12  16
ATOM     16  C   UNL     1      -5.489  13.538  21.536  0.00  0.00    +0.000 C 
ATOM     17  N   UNL     1      -6.471  14.027  21.903  0.00  0.00    +0.000 NA
ENDBRANCH  12  16
ENDBRANCH   3   9
BRANCH   1  19
ATOM     18  C   UNL     1      -0.433   8.877  22.030  0.00  0.00    +0.000 C 
ATOM     19  O   UNL     1      -0.605   9.050  20.631  0.00  0.00    +0.000 OA
ENDBRANCH   1  19
BRANCH   7  20
ATOM     20  O   UNL     1       1.527   7.345  19.635  0.00  0.00    +0.000 OA
BRANCH  20  21
ATOM     21  C   UNL     1       2.668   6.697  19.047  0.00  0.00    +0.000 C 
ATOM     22  C   UNL     1       2.256   5.668  17.994  0.00  0.00    +0.000 C 
ATOM     23  C   UNL     1       1.448   4.556  18.663  0.00  0.00    +0.000 C 
ATOM     24  O   UNL     1       2.162   3.873  19.679  0.00  0.00    +0.000 OA
ATOM     25  C   UNL     1       2.846   4.677  20.632  0.00  0.00    +0.000 C 
ATOM     26  C   UNL     1       3.508   5.950  20.086  0.00  0.00    +0.000 C 
ATOM     27  C   UNL     1       4.827   5.584  19.395  0.00  0.00    +0.000 C 
ATOM     28  N   UNL     1       4.647   4.838  18.155  0.00  0.00    +0.000 N 
ATOM     29  C   UNL     1       5.775   4.179  17.674  0.00  0.00    +0.000 C 
ATOM     30  O   UNL     1       6.810   4.063  18.324  0.00  0.00    +0.000 OA
ATOM     31  C   UNL     1       3.519   5.164  17.279  0.00  0.00    +0.000 C 
BRANCH  29  32
ATOM     32  O   UNL     1       5.618   3.679  16.410  0.00  0.00    +0.000 OA
BRANCH  32  33
ATOM     33  C   UNL     1       6.277   4.390  15.336  0.00  0.00    +0.000 C 
ATOM     34  C   UNL     1       7.391   5.302  15.753  0.00  0.00    +0.000 C 
ATOM     35  C   UNL     1       6.304   3.693  13.998  0.00  0.00    +0.000 C 
ATOM     36  C   UNL     1       5.368   4.845  14.222  0.00  0.00    +0.000 C 
ENDBRANCH  32  33
ENDBRANCH  29  32
ENDBRANCH  20  21
ENDBRANCH   7  20
TORSDOF 7
ENDMDL
MODEL 6
REMARK VINA RESULT:      -6.5      2.824     10.574
REMARK  Name = 
REMARK  9 active torsions:
REMARK  status: ('A' for Active; 'I' for Inactive)
REMARK    1  A    between atoms: C_1  and  O_2
REMARK    2  A    between atoms: O_2  and  C_3
REMARK    3  A    between atoms: N_5  and  C_6
REMARK    4  A    between atoms: C_9  and  C_10
REMARK    5  A    between atoms: C_18  and  O_19
REMARK    6  A    between atoms: O_19  and  C_20
REMARK    7  A    between atoms: C_28  and  O_30
REMARK    8  A    between atoms: O_30  and  C_31
REMARK    9  A    between atoms: C_31  and  C_32
REMARK                            x       y       z     vdW  Elec       q    Type
REMARK                         _______ _______ _______ _____ _____    ______ ____
ROOT
ATOM      1  C   UNL     1       3.082   6.932  18.729  0.00  0.00    +0.000 A 
ATOM      2  C   UNL     1       3.492   5.700  19.275  0.00  0.00    +0.000 A 
ATOM      3  N   UNL     1       4.475   4.806  18.846  0.00  0.00    +0.000 N 
ATOM      4  N   UNL     1       2.917   5.190  20.393  0.00  0.00    +0.000 NA
ATOM      5  C   UNL     1       1.957   5.893  20.981  0.00  0.00    +0.000 A 
ATOM      6  N   UNL     1       1.535   7.084  20.586  0.00  0.00    +0.000 NA
ATOM      7  C   UNL     1       2.093   7.588  19.466  0.00  0.00    +0.000 A 
ATOM      8  H   UNL     1       4.399   3.999  19.470  0.00  0.00    +0.000 HD
ENDROOT
BRANCH   3   9
ATOM      9  C   UNL     1       5.122   4.458  17.636  0.00  0.00    +0.000 A 
ATOM     10  C   UNL     1       6.465   4.715  17.417  0.00  0.00    +0.000 A 
ATOM     11  C   UNL     1       7.024   4.615  16.143  0.00  0.00    +0.000 A 
ATOM     12  C   UNL     1       6.259   4.165  15.071  0.00  0.00    +0.000 A 
ATOM     13  C   UNL     1       4.960   3.711  15.308  0.00  0.00    +0.000 A 
ATOM     14  C   UNL     1       4.401   3.856  16.587  0.00  0.00    +0.000 A 
ATOM     15 CL   UNL     1       2.784   3.274  16.816  0.00  0.00    +0.000 Cl
BRANCH  12  16
ATOM     16  C   UNL     1       6.800   4.201  13.743  0.00  0.00    +0.000 C 
ATOM     17  N   UNL     1       7.203   4.268  12.661  0.00  0.00    +0.000 NA
ENDBRANCH  12  16
ENDBRANCH   3   9
BRANCH   1  19
ATOM     18  C   UNL     1       4.883   7.934  17.409  0.00  0.00    +0.000 C 
ATOM     19  O   UNL     1       3.596   7.346  17.540  0.00  0.00    +0.000 OA
ENDBRANCH   1  19
BRANCH   7  20
ATOM     20  O   UNL     1       1.607   8.821  19.059  0.00  0.00    +0.000 OA
BRANCH  20  21
ATOM     21  C   UNL     1       1.062   9.601  20.138  0.00  0.00    +0.000 C 
ATOM     22  C   UNL     1      -0.450   9.417  20.265  0.00  0.00    +0.000 C 
ATOM     23  C   UNL     1      -1.131   9.932  18.996  0.00  0.00    +0.000 C 
ATOM     24  O   UNL     1      -0.882  11.304  18.741  0.00  0.00    +0.000 OA
ATOM     25  C   UNL     1       0.470  11.738  18.830  0.00  0.00    +0.000 C 
ATOM     26  C   UNL     1       1.307  11.101  19.948  0.00  0.00    +0.000 C 
ATOM     27  C   UNL     1       0.967  11.768  21.285  0.00  0.00    +0.000 C 
ATOM     28  N   UNL     1      -0.375  11.460  21.765  0.00  0.00    +0.000 N 
ATOM     29  C   UNL     1      -0.870  12.294  22.764  0.00  0.00    +0.000 C 
ATOM     30  O   UNL     1      -0.313  13.334  23.103  0.00  0.00    +0.000 OA
ATOM     31  C   UNL     1      -0.925  10.120  21.545  0.00  0.00    +0.000 C 
BRANCH  29  32
ATOM     32  O   UNL     1      -2.029  11.840  23.330  0.00  0.00    +0.000 OA
BRANCH  32  33
ATOM     33  C   UNL     1      -3.197  12.686  23.202  0.00  0.00    +0.000 C 
ATOM     34  C   UNL     1      -3.641  12.965  21.799  0.00  0.00    +0.000 C 
ATOM     35  C   UNL     1      -4.194  12.614  24.333  0.00  0.00    +0.000 C 
ATOM     36  C   UNL     1      -3.286  13.803  24.211  0.00  0.00    +0.000 C 
ENDBRANCH  32  33
ENDBRANCH  29  32
ENDBRANCH  20  21
ENDBRANCH   7  20
TORSDOF 7
ENDMDL
MODEL 7
REMARK VINA RESULT:      -6.4      3.409     10.649
REMARK  Name = 
REMARK  9 active torsions:
REMARK  status: ('A' for Active; 'I' for Inactive)
REMARK    1  A    between atoms: C_1  and  O_2
REMARK    2  A    between atoms: O_2  and  C_3
REMARK    3  A    between atoms: N_5  and  C_6
REMARK    4  A    between atoms: C_9  and  C_10
REMARK    5  A    between atoms: C_18  and  O_19
REMARK    6  A    between atoms: O_19  and  C_20
REMARK    7  A    between atoms: C_28  and  O_30
REMARK    8  A    between atoms: O_30  and  C_31
REMARK    9  A    between atoms: C_31  and  C_32
REMARK                            x       y       z     vdW  Elec       q    Type
REMARK                         _______ _______ _______ _____ _____    ______ ____
ROOT
ATOM      1  C   UNL     1       1.918   8.344  19.585  0.00  0.00    +0.000 A 
ATOM      2  C   UNL     1       1.889   7.168  20.359  0.00  0.00    +0.000 A 
ATOM      3  N   UNL     1       2.693   6.028  20.298  0.00  0.00    +0.000 N 
ATOM      4  N   UNL     1       0.982   6.991  21.353  0.00  0.00    +0.000 NA
ATOM      5  C   UNL     1       0.120   7.970  21.596  0.00  0.00    +0.000 A 
ATOM      6  N   UNL     1       0.094   9.136  20.968  0.00  0.00    +0.000 NA
ATOM      7  C   UNL     1       0.984   9.310  19.969  0.00  0.00    +0.000 A 
ATOM      8  H   UNL     1       2.292   5.376  20.976  0.00  0.00    +0.000 HD
ENDROOT
BRANCH   3   9
ATOM      9  C   UNL     1       3.479   5.348  19.337  0.00  0.00    +0.000 A 
ATOM     10  C   UNL     1       4.849   5.526  19.244  0.00  0.00    +0.000 A 
ATOM     11  C   UNL     1       5.567   5.067  18.140  0.00  0.00    +0.000 A 
ATOM     12  C   UNL     1       4.932   4.333  17.143  0.00  0.00    +0.000 A 
ATOM     13  C   UNL     1       3.595   3.970  17.314  0.00  0.00    +0.000 A 
ATOM     14  C   UNL     1       2.877   4.475  18.410  0.00  0.00    +0.000 A 
ATOM     15 CL   UNL     1       1.221   3.988  18.566  0.00  0.00    +0.000 Cl
BRANCH  12  16
ATOM     16  C   UNL     1       5.645   3.988  15.947  0.00  0.00    +0.000 C 
ATOM     17  N   UNL     1       6.247   3.754  14.988  0.00  0.00    +0.000 NA
ENDBRANCH  12  16
ENDBRANCH   3   9
BRANCH   1  19
ATOM     18  C   UNL     1       2.417   7.970  17.218  0.00  0.00    +0.000 C 
ATOM     19  O   UNL     1       2.759   8.428  18.519  0.00  0.00    +0.000 OA
ENDBRANCH   1  19
BRANCH   7  20
ATOM     20  O   UNL     1       0.911  10.527  19.309  0.00  0.00    +0.000 OA
BRANCH  20  21
ATOM     21  C   UNL     1       0.495  11.610  20.159  0.00  0.00    +0.000 C 
ATOM     22  C   UNL     1      -0.904  12.110  19.799  0.00  0.00    +0.000 C 
ATOM     23  C   UNL     1      -0.889  12.679  18.380  0.00  0.00    +0.000 C 
ATOM     24  O   UNL     1       0.012  13.761  18.217  0.00  0.00    +0.000 OA
ATOM     25  C   UNL     1       1.327  13.584  18.731  0.00  0.00    +0.000 C 
ATOM     26  C   UNL     1       1.431  12.817  20.057  0.00  0.00    +0.000 C 
ATOM     27  C   UNL     1       1.064  13.749  21.217  0.00  0.00    +0.000 C 
ATOM     28  N   UNL     1      -0.346  14.115  21.246  0.00  0.00    +0.000 N 
ATOM     29  C   UNL     1      -0.674  15.214  22.036  0.00  0.00    +0.000 C 
ATOM     30  O   UNL     1       0.170  15.954  22.534  0.00  0.00    +0.000 OA
ATOM     31  C   UNL     1      -1.353  13.123  20.862  0.00  0.00    +0.000 C 
BRANCH  29  32
ATOM     32  O   UNL     1      -2.020  15.385  22.204  0.00  0.00    +0.000 OA
BRANCH  32  33
ATOM     33  C   UNL     1      -2.606  16.582  21.639  0.00  0.00    +0.000 C 
ATOM     34  C   UNL     1      -2.218  16.884  20.224  0.00  0.00    +0.000 C 
ATOM     35  C   UNL     1      -3.962  16.972  22.173  0.00  0.00    +0.000 C 
ATOM     36  C   UNL     1      -2.744  17.737  22.600  0.00  0.00    +0.000 C 
ENDBRANCH  32  33
ENDBRANCH  29  32
ENDBRANCH  20  21
ENDBRANCH   7  20
TORSDOF 7
ENDMDL
MODEL 8
REMARK VINA RESULT:      -6.4      7.023      8.767
REMARK  Name = 
REMARK  9 active torsions:
REMARK  status: ('A' for Active; 'I' for Inactive)
REMARK    1  A    between atoms: C_1  and  O_2
REMARK    2  A    between atoms: O_2  and  C_3
REMARK    3  A    between atoms: N_5  and  C_6
REMARK    4  A    between atoms: C_9  and  C_10
REMARK    5  A    between atoms: C_18  and  O_19
REMARK    6  A    between atoms: O_19  and  C_20
REMARK    7  A    between atoms: C_28  and  O_30
REMARK    8  A    between atoms: O_30  and  C_31
REMARK    9  A    between atoms: C_31  and  C_32
REMARK                            x       y       z     vdW  Elec       q    Type
REMARK                         _______ _______ _______ _____ _____    ______ ____
ROOT
ATOM      1  C   UNL     1       2.641  16.028  20.010  0.00  0.00    +0.000 A 
ATOM      2  C   UNL     1       1.458  15.940  19.251  0.00  0.00    +0.000 A 
ATOM      3  N   UNL     1       0.243  15.316  19.543  0.00  0.00    +0.000 N 
ATOM      4  N   UNL     1       1.355  16.508  18.023  0.00  0.00    +0.000 NA
ATOM      5  C   UNL     1       2.401  17.173  17.551  0.00  0.00    +0.000 A 
ATOM      6  N   UNL     1       3.539  17.365  18.201  0.00  0.00    +0.000 NA
ATOM      7  C   UNL     1       3.651  16.788  19.416  0.00  0.00    +0.000 A 
ATOM      8  H   UNL     1      -0.323  15.415  18.698  0.00  0.00    +0.000 HD
ENDROOT
BRANCH   3   9
ATOM      9  C   UNL     1      -0.222  14.249  20.349  0.00  0.00    +0.000 A 
ATOM     10  C   UNL     1      -0.382  14.374  21.719  0.00  0.00    +0.000 A 
ATOM     11  C   UNL     1      -0.580  13.257  22.530  0.00  0.00    +0.000 A 
ATOM     12  C   UNL     1      -0.713  11.991  21.967  0.00  0.00    +0.000 A 
ATOM     13  C   UNL     1      -0.756  11.869  20.578  0.00  0.00    +0.000 A 
ATOM     14  C   UNL     1      -0.514  12.995  19.777  0.00  0.00    +0.000 A 
ATOM     15 CL   UNL     1      -0.580  12.777  18.058  0.00  0.00    +0.000 Cl
BRANCH  12  16
ATOM     16  C   UNL     1      -0.775  10.836  22.815  0.00  0.00    +0.000 C 
ATOM     17  N   UNL     1      -0.783   9.922  23.524  0.00  0.00    +0.000 NA
ENDBRANCH  12  16
ENDBRANCH   3   9
BRANCH   1  19
ATOM     18  C   UNL     1       3.315  14.041  21.271  0.00  0.00    +0.000 C 
ATOM     19  O   UNL     1       2.744  15.339  21.179  0.00  0.00    +0.000 OA
ENDBRANCH   1  19
BRANCH   7  20
ATOM     20  O   UNL     1       4.865  16.979  20.058  0.00  0.00    +0.000 OA
BRANCH  20  21
ATOM     21  C   UNL     1       5.991  16.508  19.297  0.00  0.00    +0.000 C 
ATOM     22  C   UNL     1       6.441  15.119  19.750  0.00  0.00    +0.000 C 
ATOM     23  C   UNL     1       6.922  15.191  21.199  0.00  0.00    +0.000 C 
ATOM     24  O   UNL     1       8.009  16.082  21.388  0.00  0.00    +0.000 OA
ATOM     25  C   UNL     1       7.888  17.374  20.806  0.00  0.00    +0.000 C 
ATOM     26  C   UNL     1       7.206  17.429  19.431  0.00  0.00    +0.000 C 
ATOM     27  C   UNL     1       8.201  16.995  18.349  0.00  0.00    +0.000 C 
ATOM     28  N   UNL     1       8.542  15.579  18.407  0.00  0.00    +0.000 N 
ATOM     29  C   UNL     1       9.682  15.199  17.701  0.00  0.00    +0.000 C 
ATOM     30  O   UNL     1      10.465  16.008  17.213  0.00  0.00    +0.000 OA
ATOM     31  C   UNL     1       7.510  14.607  18.772  0.00  0.00    +0.000 C 
BRANCH  29  32
ATOM     32  O   UNL     1       9.838  13.844  17.605  0.00  0.00    +0.000 OA
BRANCH  32  33
ATOM     33  C   UNL     1      10.971  13.263  18.293  0.00  0.00    +0.000 C 
ATOM     34  C   UNL     1      11.214  13.773  19.681  0.00  0.00    +0.000 C 
ATOM     35  C   UNL     1      11.320  11.844  17.914  0.00  0.00    +0.000 C 
ATOM     36  C   UNL     1      12.168  12.980  17.421  0.00  0.00    +0.000 C 
ENDBRANCH  32  33
ENDBRANCH  29  32
ENDBRANCH  20  21
ENDBRANCH   7  20
TORSDOF 7
ENDMDL
MODEL 9
REMARK VINA RESULT:      -6.4      6.643      8.161
REMARK  Name = 
REMARK  9 active torsions:
REMARK  status: ('A' for Active; 'I' for Inactive)
REMARK    1  A    between atoms: C_1  and  O_2
REMARK    2  A    between atoms: O_2  and  C_3
REMARK    3  A    between atoms: N_5  and  C_6
REMARK    4  A    between atoms: C_9  and  C_10
REMARK    5  A    between atoms: C_18  and  O_19
REMARK    6  A    between atoms: O_19  and  C_20
REMARK    7  A    between atoms: C_28  and  O_30
REMARK    8  A    between atoms: O_30  and  C_31
REMARK    9  A    between atoms: C_31  and  C_32
REMARK                            x       y       z     vdW  Elec       q    Type
REMARK                         _______ _______ _______ _____ _____    ______ ____
ROOT
ATOM      1  C   UNL     1       2.111  14.484  20.837  0.00  0.00    +0.000 A 
ATOM      2  C   UNL     1       1.138  13.843  20.046  0.00  0.00    +0.000 A 
ATOM      3  N   UNL     1      -0.199  13.549  20.322  0.00  0.00    +0.000 N 
ATOM      4  N   UNL     1       1.420  13.391  18.798  0.00  0.00    +0.000 NA
ATOM      5  C   UNL     1       2.644  13.581  18.323  0.00  0.00    +0.000 A 
ATOM      6  N   UNL     1       3.617  14.218  18.958  0.00  0.00    +0.000 NA
ATOM      7  C   UNL     1       3.346  14.656  20.205  0.00  0.00    +0.000 A 
ATOM      8  H   UNL     1      -0.529  13.008  19.520  0.00  0.00    +0.000 HD
ENDROOT
BRANCH   3   9
ATOM      9  C   UNL     1      -1.010  13.327  21.460  0.00  0.00    +0.000 A 
ATOM     10  C   UNL     1      -0.914  12.174  22.221  0.00  0.00    +0.000 A 
ATOM     11  C   UNL     1      -1.884  11.846  23.167  0.00  0.00    +0.000 A 
ATOM     12  C   UNL     1      -2.932  12.722  23.434  0.00  0.00    +0.000 A 
ATOM     13  C   UNL     1      -2.939  13.977  22.823  0.00  0.00    +0.000 A 
ATOM     14  C   UNL     1      -1.978  14.274  21.844  0.00  0.00    +0.000 A 
ATOM     15 CL   UNL     1      -2.041  15.850  21.123  0.00  0.00    +0.000 Cl
BRANCH  12  16
ATOM     16  C   UNL     1      -3.999  12.315  24.303  0.00  0.00    +0.000 C 
ATOM     17  N   UNL     1      -4.893  12.004  24.967  0.00  0.00    +0.000 NA
ENDBRANCH  12  16
ENDBRANCH   3   9
BRANCH   1  19
ATOM     18  C   UNL     1       1.329  16.082  22.518  0.00  0.00    +0.000 C 
ATOM     19  O   UNL     1       1.824  14.809  22.126  0.00  0.00    +0.000 OA
ENDBRANCH   1  19
BRANCH   7  20
ATOM     20  O   UNL     1       4.393  15.290  20.856  0.00  0.00    +0.000 OA
BRANCH  20  21
ATOM     21  C   UNL     1       5.683  14.963  20.310  0.00  0.00    +0.000 C 
ATOM     22  C   UNL     1       6.697  14.635  21.407  0.00  0.00    +0.000 C 
ATOM     23  C   UNL     1       6.917  15.872  22.278  0.00  0.00    +0.000 C 
ATOM     24  O   UNL     1       7.406  16.990  21.556  0.00  0.00    +0.000 OA
ATOM     25  C   UNL     1       6.740  17.310  20.341  0.00  0.00    +0.000 C 
ATOM     26  C   UNL     1       6.275  16.116  19.495  0.00  0.00    +0.000 C 
ATOM     27  C   UNL     1       7.469  15.536  18.729  0.00  0.00    +0.000 C 
ATOM     28  N   UNL     1       8.446  14.876  19.587  0.00  0.00    +0.000 N 
ATOM     29  C   UNL     1       9.697  14.647  19.020  0.00  0.00    +0.000 C 
ATOM     30  O   UNL     1      10.039  15.125  17.942  0.00  0.00    +0.000 OA
ATOM     31  C   UNL     1       7.981  14.112  20.747  0.00  0.00    +0.000 C 
BRANCH  29  32
ATOM     32  O   UNL     1      10.501  13.840  19.776  0.00  0.00    +0.000 OA
BRANCH  32  33
ATOM     33  C   UNL     1      10.948  12.604  19.170  0.00  0.00    +0.000 C 
ATOM     34  C   UNL     1       9.868  11.741  18.590  0.00  0.00    +0.000 C 
ATOM     35  C   UNL     1      12.333  12.622  18.571  0.00  0.00    +0.000 C 
ATOM     36  C   UNL     1      12.094  11.926  19.879  0.00  0.00    +0.000 C 
ENDBRANCH  32  33
ENDBRANCH  29  32
ENDBRANCH  20  21
ENDBRANCH   7  20
TORSDOF 7
ENDMDL
