MODEL 1
REMARK VINA RESULT:      -8.0      0.000      0.000
REMARK  Name = 
REMARK  8 active torsions:
REMARK  status: ('A' for Active; 'I' for Inactive)
REMARK    1  A    between atoms: C_1  and  O_2
REMARK    2  A    between atoms: O_2  and  C_3
REMARK    3  A    between atoms: C_5  and  C_6
REMARK    4  A    between atoms: N_7  and  N_8
REMARK    5  A    between atoms: C_9  and  C_11
REMARK    6  A    between atoms: C_19  and  O_20
REMARK    7  A    between atoms: O_20  and  C_21
REMARK    8  A    between atoms: C_21  and  C_23
REMARK                            x       y       z     vdW  Elec       q    Type
REMARK                         _______ _______ _______ _____ _____    ______ ____
ROOT
ATOM      1  C   UNL     1       4.572   4.526  19.040  0.00  0.00    +0.000 A 
ATOM      2  C   UNL     1       3.670   5.286  19.785  0.00  0.00    +0.000 A 
ATOM      3  C   UNL     1       3.022   6.392  19.219  0.00  0.00    +0.000 A 
ATOM      4  C   UNL     1       3.280   6.761  17.897  0.00  0.00    +0.000 A 
ATOM      5  C   UNL     1       4.175   6.001  17.138  0.00  0.00    +0.000 A 
ATOM      6  C   UNL     1       4.814   4.894  17.710  0.00  0.00    +0.000 A 
ENDROOT
BRANCH   1   8
ATOM      7  C   UNL     1       4.278   2.286  19.711  0.00  0.00    +0.000 C 
ATOM      8  O   UNL     1       5.164   3.388  19.515  0.00  0.00    +0.000 OA
ENDBRANCH   1   8
BRANCH   3   9
ATOM      9  C   UNL     1       2.030   7.136  20.029  0.00  0.00    +0.000 C 
ATOM     10  N   UNL     1       1.894   8.413  19.868  0.00  0.00    +0.000 NA
BRANCH  10  11
ATOM     11  N   UNL     1       0.976   9.061  20.631  0.00  0.00    +0.000 N 
ATOM     12  C   UNL     1       0.509  10.294  20.194  0.00  0.00    +0.000 C 
ATOM     13  O   UNL     1       0.858  10.850  19.155  0.00  0.00    +0.000 OA
ATOM     14  H   UNL     1       0.581   8.590  21.437  0.00  0.00    +0.000 HD
BRANCH  12  15
ATOM     15  C   UNL     1      -0.510  10.964  21.048  0.00  0.00    +0.000 A 
ATOM     16  C   UNL     1      -1.390  11.927  20.555  0.00  0.00    +0.000 A 
ATOM     17  C   UNL     1      -2.314  12.465  21.435  0.00  0.00    +0.000 A 
ATOM     18  N   UNL     1      -2.411  12.113  22.734  0.00  0.00    +0.000 NA
ATOM     19  C   UNL     1      -1.561  11.165  23.179  0.00  0.00    +0.000 A 
ATOM     20  C   UNL     1      -0.604  10.565  22.383  0.00  0.00    +0.000 A 
ENDBRANCH  12  15
ENDBRANCH  10  11
ENDBRANCH   3   9
BRANCH   6  21
ATOM     21  O   UNL     1       5.559   4.083  16.828  0.00  0.00    +0.000 OA
BRANCH  21  22
ATOM     22  C   UNL     1       6.838   4.463  16.414  0.00  0.00    +0.000 C 
ATOM     23  O   UNL     1       7.768   4.767  17.154  0.00  0.00    +0.000 OA
BRANCH  22  24
ATOM     24  C   UNL     1       6.884   4.467  14.967  0.00  0.00    +0.000 A 
ATOM     25  C   UNL     1       6.168   3.745  14.027  0.00  0.00    +0.000 A 
ATOM     26  C   UNL     1       6.615   4.170  12.752  0.00  0.00    +0.000 A 
ATOM     27  C   UNL     1       7.582   5.118  12.982  0.00  0.00    +0.000 A 
ATOM     28  O   UNL     1       7.754   5.305  14.315  0.00  0.00    +0.000 OA
ENDBRANCH  22  24
ENDBRANCH  21  22
ENDBRANCH   6  21
TORSDOF 7
ENDMDL
MODEL 2
REMARK VINA RESULT:      -7.9      2.505      3.309
REMARK  Name = 
REMARK  8 active torsions:
REMARK  status: ('A' for Active; 'I' for Inactive)
REMARK    1  A    between atoms: C_1  and  O_2
REMARK    2  A    between atoms: O_2  and  C_3
REMARK    3  A    between atoms: C_5  and  C_6
REMARK    4  A    between atoms: N_7  and  N_8
REMARK    5  A    between atoms: C_9  and  C_11
REMARK    6  A    between atoms: C_19  and  O_20
REMARK    7  A    between atoms: O_20  and  C_21
REMARK    8  A    between atoms: C_21  and  C_23
REMARK                            x       y       z     vdW  Elec       q    Type
REMARK                         _______ _______ _______ _____ _____    ______ ____
ROOT
ATOM      1  C   UNL     1       2.402   5.701  20.187  0.00  0.00    +0.000 A 
ATOM      2  C   UNL     1       1.738   6.889  20.496  0.00  0.00    +0.000 A 
ATOM      3  C   UNL     1       1.786   7.986  19.626  0.00  0.00    +0.000 A 
ATOM      4  C   UNL     1       2.511   7.911  18.434  0.00  0.00    +0.000 A 
ATOM      5  C   UNL     1       3.171   6.722  18.109  0.00  0.00    +0.000 A 
ATOM      6  C   UNL     1       3.114   5.628  18.983  0.00  0.00    +0.000 A 
ENDROOT
BRANCH   1   8
ATOM      7  C   UNL     1       1.186   3.745  20.689  0.00  0.00    +0.000 C 
ATOM      8  O   UNL     1       2.316   4.573  20.959  0.00  0.00    +0.000 OA
ENDBRANCH   1   8
BRANCH   3   9
ATOM      9  C   UNL     1       1.021   9.208  19.966  0.00  0.00    +0.000 C 
ATOM     10  N   UNL     1       0.267   9.224  21.018  0.00  0.00    +0.000 NA
BRANCH  10  11
ATOM     11  N   UNL     1      -0.421  10.361  21.296  0.00  0.00    +0.000 N 
ATOM     12  C   UNL     1      -0.574  10.729  22.627  0.00  0.00    +0.000 C 
ATOM     13  O   UNL     1      -0.124  10.106  23.586  0.00  0.00    +0.000 OA
ATOM     14  H   UNL     1      -0.714  10.961  20.533  0.00  0.00    +0.000 HD
BRANCH  12  15
ATOM     15  C   UNL     1      -1.319  11.992  22.889  0.00  0.00    +0.000 A 
ATOM     16  C   UNL     1      -0.795  13.250  22.592  0.00  0.00    +0.000 A 
ATOM     17  C   UNL     1      -1.588  14.356  22.854  0.00  0.00    +0.000 A 
ATOM     18  N   UNL     1      -2.830  14.285  23.377  0.00  0.00    +0.000 NA
ATOM     19  C   UNL     1      -3.319  13.054  23.636  0.00  0.00    +0.000 A 
ATOM     20  C   UNL     1      -2.611  11.890  23.409  0.00  0.00    +0.000 A 
ENDBRANCH  12  15
ENDBRANCH  10  11
ENDBRANCH   3   9
BRANCH   6  21
ATOM     21  O   UNL     1       3.655   4.418  18.500  0.00  0.00    +0.000 OA
BRANCH  21  22
ATOM     22  C   UNL     1       4.804   3.869  19.072  0.00  0.00    +0.000 C 
ATOM     23  O   UNL     1       4.843   2.862  19.772  0.00  0.00    +0.000 OA
BRANCH  22  24
ATOM     24  C   UNL     1       5.943   4.694  18.729  0.00  0.00    +0.000 A 
ATOM     25  C   UNL     1       6.439   5.106  17.504  0.00  0.00    +0.000 A 
ATOM     26  C   UNL     1       7.569   5.919  17.768  0.00  0.00    +0.000 A 
ATOM     27  C   UNL     1       7.706   5.951  19.134  0.00  0.00    +0.000 A 
ATOM     28  O   UNL     1       6.731   5.216  19.725  0.00  0.00    +0.000 OA
ENDBRANCH  22  24
ENDBRANCH  21  22
ENDBRANCH   6  21
TORSDOF 7
ENDMDL
MODEL 3
REMARK VINA RESULT:      -7.9      5.487      8.336
REMARK  Name = 
REMARK  8 active torsions:
REMARK  status: ('A' for Active; 'I' for Inactive)
REMARK    1  A    between atoms: C_1  and  O_2
REMARK    2  A    between atoms: O_2  and  C_3
REMARK    3  A    between atoms: C_5  and  C_6
REMARK    4  A    between atoms: N_7  and  N_8
REMARK    5  A    between atoms: C_9  and  C_11
REMARK    6  A    between atoms: C_19  and  O_20
REMARK    7  A    between atoms: O_20  and  C_21
REMARK    8  A    between atoms: C_21  and  C_23
REMARK                            x       y       z     vdW  Elec       q    Type
REMARK                         _______ _______ _______ _____ _____    ______ ____
ROOT
ATOM      1  C   UNL     1       5.597   4.900  16.383  0.00  0.00    +0.000 A 
ATOM      2  C   UNL     1       6.495   5.967  16.315  0.00  0.00    +0.000 A 
ATOM      3  C   UNL     1       6.989   6.565  17.483  0.00  0.00    +0.000 A 
ATOM      4  C   UNL     1       6.580   6.108  18.737  0.00  0.00    +0.000 A 
ATOM      5  C   UNL     1       5.690   5.032  18.817  0.00  0.00    +0.000 A 
ATOM      6  C   UNL     1       5.204   4.438  17.645  0.00  0.00    +0.000 A 
ENDROOT
BRANCH   1   8
ATOM      7  C   UNL     1       6.079   4.172  14.194  0.00  0.00    +0.000 C 
ATOM      8  O   UNL     1       5.153   4.226  15.278  0.00  0.00    +0.000 OA
ENDBRANCH   1   8
BRANCH   3   9
ATOM      9  C   UNL     1       7.982   7.657  17.366  0.00  0.00    +0.000 C 
ATOM     10  N   UNL     1       7.847   8.731  18.075  0.00  0.00    +0.000 NA
BRANCH  10  11
ATOM     11  N   UNL     1       8.776   9.711  17.938  0.00  0.00    +0.000 N 
ATOM     12  C   UNL     1       9.290  10.297  19.089  0.00  0.00    +0.000 C 
ATOM     13  O   UNL     1       8.974   9.989  20.236  0.00  0.00    +0.000 OA
ATOM     14  H   UNL     1       9.145   9.919  17.017  0.00  0.00    +0.000 HD
BRANCH  12  15
ATOM     15  C   UNL     1      10.319  11.355  18.897  0.00  0.00    +0.000 A 
ATOM     16  C   UNL     1      10.764  11.752  17.636  0.00  0.00    +0.000 A 
ATOM     17  C   UNL     1      11.707  12.765  17.576  0.00  0.00    +0.000 A 
ATOM     18  N   UNL     1      12.217  13.386  18.660  0.00  0.00    +0.000 NA
ATOM     19  C   UNL     1      11.754  12.995  19.866  0.00  0.00    +0.000 A 
ATOM     20  C   UNL     1      10.814  11.997  20.035  0.00  0.00    +0.000 A 
ENDBRANCH  12  15
ENDBRANCH  10  11
ENDBRANCH   3   9
BRANCH   6  21
ATOM     21  O   UNL     1       4.455   3.254  17.814  0.00  0.00    +0.000 OA
BRANCH  21  22
ATOM     22  C   UNL     1       3.062   3.295  17.901  0.00  0.00    +0.000 C 
ATOM     23  O   UNL     1       2.285   3.253  16.952  0.00  0.00    +0.000 OA
BRANCH  22  24
ATOM     24  C   UNL     1       2.679   3.422  19.291  0.00  0.00    +0.000 A 
ATOM     25  C   UNL     1       1.991   4.419  19.962  0.00  0.00    +0.000 A 
ATOM     26  C   UNL     1       1.884   4.008  21.314  0.00  0.00    +0.000 A 
ATOM     27  C   UNL     1       2.518   2.792  21.395  0.00  0.00    +0.000 A 
ATOM     28  O   UNL     1       3.002   2.428  20.181  0.00  0.00    +0.000 OA
ENDBRANCH  22  24
ENDBRANCH  21  22
ENDBRANCH   6  21
TORSDOF 7
ENDMDL
MODEL 4
REMARK VINA RESULT:      -7.8      1.269      1.301
REMARK  Name = 
REMARK  8 active torsions:
REMARK  status: ('A' for Active; 'I' for Inactive)
REMARK    1  A    between atoms: C_1  and  O_2
REMARK    2  A    between atoms: O_2  and  C_3
REMARK    3  A    between atoms: C_5  and  C_6
REMARK    4  A    between atoms: N_7  and  N_8
REMARK    5  A    between atoms: C_9  and  C_11
REMARK    6  A    between atoms: C_19  and  O_20
REMARK    7  A    between atoms: O_20  and  C_21
REMARK    8  A    between atoms: C_21  and  C_23
REMARK                            x       y       z     vdW  Elec       q    Type
REMARK                         _______ _______ _______ _____ _____    ______ ____
ROOT
ATOM      1  C   UNL     1       3.560   4.663  17.637  0.00  0.00    +0.000 A 
ATOM      2  C   UNL     1       2.725   5.701  18.053  0.00  0.00    +0.000 A 
ATOM      3  C   UNL     1       3.096   7.039  17.870  0.00  0.00    +0.000 A 
ATOM      4  C   UNL     1       4.319   7.358  17.274  0.00  0.00    +0.000 A 
ATOM      5  C   UNL     1       5.159   6.326  16.844  0.00  0.00    +0.000 A 
ATOM      6  C   UNL     1       4.777   4.991  17.027  0.00  0.00    +0.000 A 
ENDROOT
BRANCH   1   8
ATOM      7  C   UNL     1       3.190   2.800  19.032  0.00  0.00    +0.000 C 
ATOM      8  O   UNL     1       3.207   3.343  17.713  0.00  0.00    +0.000 OA
ENDBRANCH   1   8
BRANCH   3   9
ATOM      9  C   UNL     1       2.155   8.109  18.275  0.00  0.00    +0.000 C 
ATOM     10  N   UNL     1       1.767   8.192  19.507  0.00  0.00    +0.000 NA
BRANCH  10  11
ATOM     11  N   UNL     1       0.901   9.184  19.840  0.00  0.00    +0.000 N 
ATOM     12  C   UNL     1       0.616   9.385  21.185  0.00  0.00    +0.000 C 
ATOM     13  O   UNL     1       1.097   8.736  22.111  0.00  0.00    +0.000 OA
ATOM     14  H   UNL     1       0.567   9.813  19.118  0.00  0.00    +0.000 HD
BRANCH  12  15
ATOM     15  C   UNL     1      -0.323  10.494  21.510  0.00  0.00    +0.000 A 
ATOM     16  C   UNL     1      -0.900  11.303  20.531  0.00  0.00    +0.000 A 
ATOM     17  C   UNL     1      -1.781  12.288  20.947  0.00  0.00    +0.000 A 
ATOM     18  N   UNL     1      -2.111  12.509  22.237  0.00  0.00    +0.000 NA
ATOM     19  C   UNL     1      -1.554  11.698  23.160  0.00  0.00    +0.000 A 
ATOM     20  C   UNL     1      -0.666  10.686  22.850  0.00  0.00    +0.000 A 
ENDBRANCH  12  15
ENDBRANCH  10  11
ENDBRANCH   3   9
BRANCH   6  21
ATOM     21  O   UNL     1       5.595   4.021  16.408  0.00  0.00    +0.000 OA
BRANCH  21  22
ATOM     22  C   UNL     1       6.909   4.320  16.044  0.00  0.00    +0.000 C 
ATOM     23  O   UNL     1       7.846   4.487  16.819  0.00  0.00    +0.000 OA
BRANCH  22  24
ATOM     24  C   UNL     1       6.987   4.431  14.603  0.00  0.00    +0.000 A 
ATOM     25  C   UNL     1       6.322   3.751  13.596  0.00  0.00    +0.000 A 
ATOM     26  C   UNL     1       6.779   4.285  12.366  0.00  0.00    +0.000 A 
ATOM     27  C   UNL     1       7.701   5.252  12.687  0.00  0.00    +0.000 A 
ATOM     28  O   UNL     1       7.835   5.348  14.034  0.00  0.00    +0.000 OA
ENDBRANCH  22  24
ENDBRANCH  21  22
ENDBRANCH   6  21
TORSDOF 7
ENDMDL
MODEL 5
REMARK VINA RESULT:      -7.7      1.888      2.688
REMARK  Name = 
REMARK  8 active torsions:
REMARK  status: ('A' for Active; 'I' for Inactive)
REMARK    1  A    between atoms: C_1  and  O_2
REMARK    2  A    between atoms: O_2  and  C_3
REMARK    3  A    between atoms: C_5  and  C_6
REMARK    4  A    between atoms: N_7  and  N_8
REMARK    5  A    between atoms: C_9  and  C_11
REMARK    6  A    between atoms: C_19  and  O_20
REMARK    7  A    between atoms: O_20  and  C_21
REMARK    8  A    between atoms: C_21  and  C_23
REMARK                            x       y       z     vdW  Elec       q    Type
REMARK                         _______ _______ _______ _____ _____    ______ ____
ROOT
ATOM      1  C   UNL     1       2.407   5.947  20.020  0.00  0.00    +0.000 A 
ATOM      2  C   UNL     1       1.725   7.114  20.369  0.00  0.00    +0.000 A 
ATOM      3  C   UNL     1       1.716   8.224  19.514  0.00  0.00    +0.000 A 
ATOM      4  C   UNL     1       2.402   8.184  18.298  0.00  0.00    +0.000 A 
ATOM      5  C   UNL     1       3.080   7.017  17.933  0.00  0.00    +0.000 A 
ATOM      6  C   UNL     1       3.080   5.910  18.792  0.00  0.00    +0.000 A 
ENDROOT
BRANCH   1   8
ATOM      7  C   UNL     1       1.172   4.047  20.668  0.00  0.00    +0.000 C 
ATOM      8  O   UNL     1       2.375   4.807  20.777  0.00  0.00    +0.000 OA
ENDBRANCH   1   8
BRANCH   3   9
ATOM      9  C   UNL     1       0.933   9.421  19.898  0.00  0.00    +0.000 C 
ATOM     10  N   UNL     1       0.074   9.347  20.864  0.00  0.00    +0.000 NA
BRANCH  10  11
ATOM     11  N   UNL     1      -0.627  10.465  21.185  0.00  0.00    +0.000 N 
ATOM     12  C   UNL     1      -0.655  10.864  22.515  0.00  0.00    +0.000 C 
ATOM     13  O   UNL     1      -0.082  10.286  23.436  0.00  0.00    +0.000 OA
ATOM     14  H   UNL     1      -1.022  11.032  20.443  0.00  0.00    +0.000 HD
BRANCH  12  15
ATOM     15  C   UNL     1      -1.419  12.104  22.824  0.00  0.00    +0.000 A 
ATOM     16  C   UNL     1      -2.757  12.085  23.217  0.00  0.00    +0.000 A 
ATOM     17  C   UNL     1      -3.361  13.299  23.505  0.00  0.00    +0.000 A 
ATOM     18  N   UNL     1      -2.733  14.490  23.426  0.00  0.00    +0.000 NA
ATOM     19  C   UNL     1      -1.434  14.477  23.062  0.00  0.00    +0.000 A 
ATOM     20  C   UNL     1      -0.739  13.322  22.757  0.00  0.00    +0.000 A 
ENDBRANCH  12  15
ENDBRANCH  10  11
ENDBRANCH   3   9
BRANCH   6  21
ATOM     21  O   UNL     1       3.634   4.721  18.272  0.00  0.00    +0.000 OA
BRANCH  21  22
ATOM     22  C   UNL     1       5.013   4.507  18.289  0.00  0.00    +0.000 C 
ATOM     23  O   UNL     1       5.701   4.348  19.293  0.00  0.00    +0.000 OA
BRANCH  22  24
ATOM     24  C   UNL     1       5.511   4.531  16.930  0.00  0.00    +0.000 A 
ATOM     25  C   UNL     1       4.858   4.418  15.714  0.00  0.00    +0.000 A 
ATOM     26  C   UNL     1       5.845   4.530  14.703  0.00  0.00    +0.000 A 
ATOM     27  C   UNL     1       7.043   4.696  15.355  0.00  0.00    +0.000 A 
ATOM     28  O   UNL     1       6.855   4.697  16.699  0.00  0.00    +0.000 OA
ENDBRANCH  22  24
ENDBRANCH  21  22
ENDBRANCH   6  21
TORSDOF 7
ENDMDL
MODEL 6
REMARK VINA RESULT:      -7.7      5.721      8.208
REMARK  Name = 
REMARK  8 active torsions:
REMARK  status: ('A' for Active; 'I' for Inactive)
REMARK    1  A    between atoms: C_1  and  O_2
REMARK    2  A    between atoms: O_2  and  C_3
REMARK    3  A    between atoms: C_5  and  C_6
REMARK    4  A    between atoms: N_7  and  N_8
REMARK    5  A    between atoms: C_9  and  C_11
REMARK    6  A    between atoms: C_19  and  O_20
REMARK    7  A    between atoms: O_20  and  C_21
REMARK    8  A    between atoms: C_21  and  C_23
REMARK                            x       y       z     vdW  Elec       q    Type
REMARK                         _______ _______ _______ _____ _____    ______ ____
ROOT
ATOM      1  C   UNL     1       5.568   5.272  17.074  0.00  0.00    +0.000 A 
ATOM      2  C   UNL     1       6.247   6.475  16.873  0.00  0.00    +0.000 A 
ATOM      3  C   UNL     1       7.173   6.943  17.815  0.00  0.00    +0.000 A 
ATOM      4  C   UNL     1       7.424   6.215  18.980  0.00  0.00    +0.000 A 
ATOM      5  C   UNL     1       6.757   5.003  19.187  0.00  0.00    +0.000 A 
ATOM      6  C   UNL     1       5.836   4.541  18.238  0.00  0.00    +0.000 A 
ENDROOT
BRANCH   1   8
ATOM      7  C   UNL     1       5.300   4.503  14.862  0.00  0.00    +0.000 C 
ATOM      8  O   UNL     1       4.721   4.728  16.147  0.00  0.00    +0.000 OA
ENDBRANCH   1   8
BRANCH   3   9
ATOM      9  C   UNL     1       7.913   8.196  17.536  0.00  0.00    +0.000 C 
ATOM     10  N   UNL     1       8.444   8.861  18.510  0.00  0.00    +0.000 NA
BRANCH  10  11
ATOM     11  N   UNL     1       9.111  10.007  18.214  0.00  0.00    +0.000 N 
ATOM     12  C   UNL     1       9.547  10.804  19.265  0.00  0.00    +0.000 C 
ATOM     13  O   UNL     1       9.383  10.550  20.456  0.00  0.00    +0.000 OA
ATOM     14  H   UNL     1       9.364  10.198  17.251  0.00  0.00    +0.000 HD
BRANCH  12  15
ATOM     15  C   UNL     1      10.291  12.042  18.900  0.00  0.00    +0.000 A 
ATOM     16  C   UNL     1      10.129  13.246  19.585  0.00  0.00    +0.000 A 
ATOM     17  C   UNL     1      10.892  14.327  19.175  0.00  0.00    +0.000 A 
ATOM     18  N   UNL     1      11.777  14.282  18.157  0.00  0.00    +0.000 NA
ATOM     19  C   UNL     1      11.927  13.099  17.525  0.00  0.00    +0.000 A 
ATOM     20  C   UNL     1      11.217  11.962  17.858  0.00  0.00    +0.000 A 
ENDBRANCH  12  15
ENDBRANCH  10  11
ENDBRANCH   3   9
BRANCH   6  21
ATOM     21  O   UNL     1       5.344   3.233  18.436  0.00  0.00    +0.000 OA
BRANCH  21  22
ATOM     22  C   UNL     1       4.684   2.889  19.617  0.00  0.00    +0.000 C 
ATOM     23  O   UNL     1       5.131   2.165  20.501  0.00  0.00    +0.000 OA
BRANCH  22  24
ATOM     24  C   UNL     1       3.372   3.500  19.621  0.00  0.00    +0.000 A 
ATOM     25  C   UNL     1       2.760   4.347  20.530  0.00  0.00    +0.000 A 
ATOM     26  C   UNL     1       1.476   4.649  20.013  0.00  0.00    +0.000 A 
ATOM     27  C   UNL     1       1.372   3.965  18.825  0.00  0.00    +0.000 A 
ATOM     28  O   UNL     1       2.509   3.268  18.578  0.00  0.00    +0.000 OA
ENDBRANCH  22  24
ENDBRANCH  21  22
ENDBRANCH   6  21
TORSDOF 7
ENDMDL
MODEL 7
REMARK VINA RESULT:      -7.6      5.598      8.377
REMARK  Name = 
REMARK  8 active torsions:
REMARK  status: ('A' for Active; 'I' for Inactive)
REMARK    1  A    between atoms: C_1  and  O_2
REMARK    2  A    between atoms: O_2  and  C_3
REMARK    3  A    between atoms: C_5  and  C_6
REMARK    4  A    between atoms: N_7  and  N_8
REMARK    5  A    between atoms: C_9  and  C_11
REMARK    6  A    between atoms: C_19  and  O_20
REMARK    7  A    between atoms: O_20  and  C_21
REMARK    8  A    between atoms: C_21  and  C_23
REMARK                            x       y       z     vdW  Elec       q    Type
REMARK                         _______ _______ _______ _____ _____    ______ ____
ROOT
ATOM      1  C   UNL     1       5.516   5.063  16.782  0.00  0.00    +0.000 A 
ATOM      2  C   UNL     1       6.338   6.178  16.609  0.00  0.00    +0.000 A 
ATOM      3  C   UNL     1       7.085   6.692  17.678  0.00  0.00    +0.000 A 
ATOM      4  C   UNL     1       7.008   6.101  18.941  0.00  0.00    +0.000 A 
ATOM      5  C   UNL     1       6.195   4.978  19.123  0.00  0.00    +0.000 A 
ATOM      6  C   UNL     1       5.456   4.468  18.048  0.00  0.00    +0.000 A 
ENDROOT
BRANCH   1   8
ATOM      7  C   UNL     1       5.587   4.301  14.553  0.00  0.00    +0.000 C 
ATOM      8  O   UNL     1       4.835   4.470  15.753  0.00  0.00    +0.000 OA
ENDBRANCH   1   8
BRANCH   3   9
ATOM      9  C   UNL     1       7.988   7.841  17.437  0.00  0.00    +0.000 C 
ATOM     10  N   UNL     1       8.045   8.807  18.297  0.00  0.00    +0.000 NA
BRANCH  10  11
ATOM     11  N   UNL     1       8.883   9.844  18.040  0.00  0.00    +0.000 N 
ATOM     12  C   UNL     1       9.448  10.516  19.117  0.00  0.00    +0.000 C 
ATOM     13  O   UNL     1       9.256  10.239  20.299  0.00  0.00    +0.000 OA
ATOM     14  H   UNL     1       9.154  10.036  17.082  0.00  0.00    +0.000 HD
BRANCH  12  15
ATOM     15  C   UNL     1      10.374  11.636  18.793  0.00  0.00    +0.000 A 
ATOM     16  C   UNL     1      11.456  11.976  19.605  0.00  0.00    +0.000 A 
ATOM     17  C   UNL     1      12.268  13.020  19.193  0.00  0.00    +0.000 A 
ATOM     18  N   UNL     1      12.073  13.723  18.057  0.00  0.00    +0.000 NA
ATOM     19  C   UNL     1      11.031  13.359  17.281  0.00  0.00    +0.000 A 
ATOM     20  C   UNL     1      10.164  12.332  17.601  0.00  0.00    +0.000 A 
ENDBRANCH  12  15
ENDBRANCH  10  11
ENDBRANCH   3   9
BRANCH   6  21
ATOM     21  O   UNL     1       4.805   3.236  18.271  0.00  0.00    +0.000 OA
BRANCH  21  22
ATOM     22  C   UNL     1       3.415   3.137  18.197  0.00  0.00    +0.000 C 
ATOM     23  O   UNL     1       2.778   2.721  17.234  0.00  0.00    +0.000 OA
BRANCH  22  24
ATOM     24  C   UNL     1       2.839   3.631  19.430  0.00  0.00    +0.000 A 
ATOM     25  C   UNL     1       2.717   3.048  20.680  0.00  0.00    +0.000 A 
ATOM     26  C   UNL     1       2.085   3.999  21.519  0.00  0.00    +0.000 A 
ATOM     27  C   UNL     1       1.850   5.103  20.735  0.00  0.00    +0.000 A 
ATOM     28  O   UNL     1       2.300   4.893  19.473  0.00  0.00    +0.000 OA
ENDBRANCH  22  24
ENDBRANCH  21  22
ENDBRANCH   6  21
TORSDOF 7
ENDMDL
MODEL 8
REMARK VINA RESULT:      -7.6      0.741      1.290
REMARK  Name = 
REMARK  8 active torsions:
REMARK  status: ('A' for Active; 'I' for Inactive)
REMARK    1  A    between atoms: C_1  and  O_2
REMARK    2  A    between atoms: O_2  and  C_3
REMARK    3  A    between atoms: C_5  and  C_6
REMARK    4  A    between atoms: N_7  and  N_8
REMARK    5  A    between atoms: C_9  and  C_11
REMARK    6  A    between atoms: C_19  and  O_20
REMARK    7  A    between atoms: O_20  and  C_21
REMARK    8  A    between atoms: C_21  and  C_23
REMARK                            x       y       z     vdW  Elec       q    Type
REMARK                         _______ _______ _______ _____ _____    ______ ____
ROOT
ATOM      1  C   UNL     1       4.755   4.846  18.825  0.00  0.00    +0.000 A 
ATOM      2  C   UNL     1       3.794   5.526  19.575  0.00  0.00    +0.000 A 
ATOM      3  C   UNL     1       3.140   6.651  19.054  0.00  0.00    +0.000 A 
ATOM      4  C   UNL     1       3.449   7.117  17.775  0.00  0.00    +0.000 A 
ATOM      5  C   UNL     1       4.403   6.437  17.010  0.00  0.00    +0.000 A 
ATOM      6  C   UNL     1       5.048   5.311  17.537  0.00  0.00    +0.000 A 
ENDROOT
BRANCH   1   8
ATOM      7  C   UNL     1       4.464   2.632  19.578  0.00  0.00    +0.000 C 
ATOM      8  O   UNL     1       5.359   3.694  19.251  0.00  0.00    +0.000 OA
ENDBRANCH   1   8
BRANCH   3   9
ATOM      9  C   UNL     1       2.087   7.308  19.862  0.00  0.00    +0.000 C 
ATOM     10  N   UNL     1       1.731   8.523  19.591  0.00  0.00    +0.000 NA
BRANCH  10  11
ATOM     11  N   UNL     1       0.765   9.093  20.356  0.00  0.00    +0.000 N 
ATOM     12  C   UNL     1       0.586  10.468  20.273  0.00  0.00    +0.000 C 
ATOM     13  O   UNL     1       1.233  11.220  19.547  0.00  0.00    +0.000 OA
ATOM     14  H   UNL     1       0.136   8.498  20.884  0.00  0.00    +0.000 HD
BRANCH  12  15
ATOM     15  C   UNL     1      -0.496  11.052  21.113  0.00  0.00    +0.000 A 
ATOM     16  C   UNL     1      -0.659  10.729  22.460  0.00  0.00    +0.000 A 
ATOM     17  C   UNL     1      -1.684  11.354  23.152  0.00  0.00    +0.000 A 
ATOM     18  N   UNL     1      -2.528  12.251  22.601  0.00  0.00    +0.000 NA
ATOM     19  C   UNL     1      -2.335  12.559  21.302  0.00  0.00    +0.000 A 
ATOM     20  C   UNL     1      -1.341  11.995  20.524  0.00  0.00    +0.000 A 
ENDBRANCH  12  15
ENDBRANCH  10  11
ENDBRANCH   3   9
BRANCH   6  21
ATOM     21  O   UNL     1       5.860   4.585  16.640  0.00  0.00    +0.000 OA
BRANCH  21  22
ATOM     22  C   UNL     1       6.795   5.236  15.833  0.00  0.00    +0.000 C 
ATOM     23  O   UNL     1       7.563   6.120  16.199  0.00  0.00    +0.000 OA
BRANCH  22  24
ATOM     24  C   UNL     1       6.694   4.721  14.484  0.00  0.00    +0.000 A 
ATOM     25  C   UNL     1       7.482   4.928  13.364  0.00  0.00    +0.000 A 
ATOM     26  C   UNL     1       6.925   4.154  12.317  0.00  0.00    +0.000 A 
ATOM     27  C   UNL     1       5.826   3.524  12.851  0.00  0.00    +0.000 A 
ATOM     28  O   UNL     1       5.676   3.859  14.157  0.00  0.00    +0.000 OA
ENDBRANCH  22  24
ENDBRANCH  21  22
ENDBRANCH   6  21
TORSDOF 7
ENDMDL
MODEL 9
REMARK VINA RESULT:      -7.5      5.562      8.187
REMARK  Name = 
REMARK  8 active torsions:
REMARK  status: ('A' for Active; 'I' for Inactive)
REMARK    1  A    between atoms: C_1  and  O_2
REMARK    2  A    between atoms: O_2  and  C_3
REMARK    3  A    between atoms: C_5  and  C_6
REMARK    4  A    between atoms: N_7  and  N_8
REMARK    5  A    between atoms: C_9  and  C_11
REMARK    6  A    between atoms: C_19  and  O_20
REMARK    7  A    between atoms: O_20  and  C_21
REMARK    8  A    between atoms: C_21  and  C_23
REMARK                            x       y       z     vdW  Elec       q    Type
REMARK                         _______ _______ _______ _____ _____    ______ ____
ROOT
ATOM      1  C   UNL     1       4.793   5.676  18.523  0.00  0.00    +0.000 A 
ATOM      2  C   UNL     1       5.522   6.835  18.254  0.00  0.00    +0.000 A 
ATOM      3  C   UNL     1       6.830   6.762  17.756  0.00  0.00    +0.000 A 
ATOM      4  C   UNL     1       7.431   5.521  17.530  0.00  0.00    +0.000 A 
ATOM      5  C   UNL     1       6.706   4.353  17.786  0.00  0.00    +0.000 A 
ATOM      6  C   UNL     1       5.398   4.436  18.280  0.00  0.00    +0.000 A 
ENDROOT
BRANCH   1   8
ATOM      7  C   UNL     1       2.563   6.188  17.958  0.00  0.00    +0.000 C 
ATOM      8  O   UNL     1       3.486   5.691  18.927  0.00  0.00    +0.000 OA
ENDBRANCH   1   8
BRANCH   3   9
ATOM      9  C   UNL     1       7.547   8.016  17.431  0.00  0.00    +0.000 C 
ATOM     10  N   UNL     1       8.274   8.595  18.332  0.00  0.00    +0.000 NA
BRANCH  10  11
ATOM     11  N   UNL     1       8.913   9.746  17.998  0.00  0.00    +0.000 N 
ATOM     12  C   UNL     1       9.325  10.591  19.021  0.00  0.00    +0.000 C 
ATOM     13  O   UNL     1       9.163  10.375  20.220  0.00  0.00    +0.000 OA
ATOM     14  H   UNL     1       9.164   9.909  17.029  0.00  0.00    +0.000 HD
BRANCH  12  15
ATOM     15  C   UNL     1      10.039  11.833  18.614  0.00  0.00    +0.000 A 
ATOM     16  C   UNL     1       9.749  13.081  19.164  0.00  0.00    +0.000 A 
ATOM     17  C   UNL     1      10.494  14.165  18.729  0.00  0.00    +0.000 A 
ATOM     18  N   UNL     1      11.478  14.083  17.809  0.00  0.00    +0.000 NA
ATOM     19  C   UNL     1      11.750  12.860  17.309  0.00  0.00    +0.000 A 
ATOM     20  C   UNL     1      11.068  11.716  17.677  0.00  0.00    +0.000 A 
ENDBRANCH  12  15
ENDBRANCH  10  11
ENDBRANCH   3   9
BRANCH   6  21
ATOM     21  O   UNL     1       4.680   3.223  18.341  0.00  0.00    +0.000 OA
BRANCH  21  22
ATOM     22  C   UNL     1       4.391   2.623  19.569  0.00  0.00    +0.000 C 
ATOM     23  O   UNL     1       5.207   2.086  20.312  0.00  0.00    +0.000 OA
BRANCH  22  24
ATOM     24  C   UNL     1       2.967   2.712  19.815  0.00  0.00    +0.000 A 
ATOM     25  C   UNL     1       1.882   2.564  18.968  0.00  0.00    +0.000 A 
ATOM     26  C   UNL     1       0.717   2.739  19.755  0.00  0.00    +0.000 A 
ATOM     27  C   UNL     1       1.154   2.992  21.033  0.00  0.00    +0.000 A 
ATOM     28  O   UNL     1       2.509   2.980  21.081  0.00  0.00    +0.000 OA
ENDBRANCH  22  24
ENDBRANCH  21  22
ENDBRANCH   6  21
TORSDOF 7
ENDMDL
