MODEL 1
REMARK VINA RESULT:      -7.3      0.000      0.000
REMARK  Name = 
REMARK  7 active torsions:
REMARK  status: ('A' for Active; 'I' for Inactive)
REMARK    1  A    between atoms: C_1  and  S_2
REMARK    2  A    between atoms: S_2  and  N_5
REMARK    3  A    between atoms: N_5  and  C_6
REMARK    4  A    between atoms: C_6  and  C_7
REMARK    5  A    between atoms: C_7  and  C_8
REMARK    6  A    between atoms: N_11  and  C_12
REMARK    7  A    between atoms: C_18  and  C_19
REMARK                            x       y       z     vdW  Elec       q    Type
REMARK                         _______ _______ _______ _____ _____    ______ ____
ROOT
ATOM      1  C   UNL     1       2.184   3.734  19.419  0.00  0.00    +0.000 C 
ATOM      2  C   UNL     1       1.513   4.396  18.198  0.00  0.00    +0.000 C 
ATOM      3  C   UNL     1       2.329   5.578  17.674  0.00  0.00    +0.000 C 
ATOM      4  N   UNL     1       2.532   6.511  18.771  0.00  0.00    +0.000 N 
ATOM      5  C   UNL     1       3.288   6.000  19.908  0.00  0.00    +0.000 C 
ATOM      6  C   UNL     1       2.517   4.805  20.482  0.00  0.00    +0.000 C 
ENDROOT
BRANCH   4   7
ATOM      7  C   UNL     1       2.133   7.831  18.747  0.00  0.00    +0.000 A 
ATOM      8  N   UNL     1       2.358   8.552  17.619  0.00  0.00    +0.000 NA
ATOM      9  C   UNL     1       1.955   9.828  17.551  0.00  0.00    +0.000 A 
ATOM     10  N   UNL     1       1.335  10.534  18.496  0.00  0.00    +0.000 NA
ATOM     11  C   UNL     1       1.144   9.854  19.651  0.00  0.00    +0.000 A 
ATOM     12  C   UNL     1       0.525  10.398  20.817  0.00  0.00    +0.000 A 
ATOM     13  C   UNL     1       0.486   9.508  21.868  0.00  0.00    +0.000 A 
ATOM     14  S   UNL     1       1.230   8.040  21.445  0.00  0.00    +0.000 S 
ATOM     15  C   UNL     1       1.535   8.528  19.820  0.00  0.00    +0.000 A 
BRANCH  13  16
ATOM     16  C   UNL     1      -0.071   9.723  23.188  0.00  0.00    +0.000 C 
ATOM     17  N   UNL     1      -1.321  10.281  23.253  0.00  0.00    +0.000 N 
ATOM     18  O   UNL     1       0.512   9.448  24.233  0.00  0.00    +0.000 OA
ATOM     19  H   UNL     1      -1.839  10.527  22.423  0.00  0.00    +0.000 HD
ATOM     20  H   UNL     1      -1.726  10.434  24.162  0.00  0.00    +0.000 HD
ENDBRANCH  13  16
ENDBRANCH   4   7
BRANCH   1  21
ATOM     21  C   UNL     1       3.402   2.887  18.985  0.00  0.00    +0.000 C 
BRANCH  21  22
ATOM     22  C   UNL     1       4.766   3.499  19.313  0.00  0.00    +0.000 C 
BRANCH  22  23
ATOM     23  N   UNL     1       5.525   3.784  18.069  0.00  0.00    +0.000 NA
ATOM     24  H   UNL     1       5.953   2.937  17.696  0.00  0.00    +0.000 HD
BRANCH  23  26
ATOM     25  C   UNL     1       6.036   6.348  17.445  0.00  0.00    +0.000 C 
ATOM     26  S   UNL     1       6.739   4.951  18.293  0.00  0.00    +0.000 S 
ATOM     27  O   UNL     1       7.882   4.489  17.539  0.00  0.00    +0.000 OA
ATOM     28  O   UNL     1       6.818   5.242  19.706  0.00  0.00    +0.000 OA
ENDBRANCH  23  26
ENDBRANCH  22  23
ENDBRANCH  21  22
ENDBRANCH   1  21
TORSDOF 6
ENDMDL
MODEL 2
REMARK VINA RESULT:      -7.2      3.417      5.173
REMARK  Name = 
REMARK  7 active torsions:
REMARK  status: ('A' for Active; 'I' for Inactive)
REMARK    1  A    between atoms: C_1  and  S_2
REMARK    2  A    between atoms: S_2  and  N_5
REMARK    3  A    between atoms: N_5  and  C_6
REMARK    4  A    between atoms: C_6  and  C_7
REMARK    5  A    between atoms: C_7  and  C_8
REMARK    6  A    between atoms: N_11  and  C_12
REMARK    7  A    between atoms: C_18  and  C_19
REMARK                            x       y       z     vdW  Elec       q    Type
REMARK                         _______ _______ _______ _____ _____    ______ ____
ROOT
ATOM      1  C   UNL     1       6.319   5.688  16.554  0.00  0.00    +0.000 C 
ATOM      2  C   UNL     1       6.493   5.399  18.059  0.00  0.00    +0.000 C 
ATOM      3  C   UNL     1       5.809   4.094  18.469  0.00  0.00    +0.000 C 
ATOM      4  N   UNL     1       4.411   4.172  18.075  0.00  0.00    +0.000 N 
ATOM      5  C   UNL     1       4.160   4.302  16.645  0.00  0.00    +0.000 C 
ATOM      6  C   UNL     1       4.825   5.599  16.169  0.00  0.00    +0.000 C 
ENDROOT
BRANCH   4   7
ATOM      7  C   UNL     1       3.354   4.047  18.951  0.00  0.00    +0.000 A 
ATOM      8  N   UNL     1       2.890   2.801  19.227  0.00  0.00    +0.000 NA
ATOM      9  C   UNL     1       1.882   2.641  20.096  0.00  0.00    +0.000 A 
ATOM     10  N   UNL     1       1.228   3.592  20.762  0.00  0.00    +0.000 NA
ATOM     11  C   UNL     1       1.637   4.848  20.467  0.00  0.00    +0.000 A 
ATOM     12  C   UNL     1       1.076   6.034  21.029  0.00  0.00    +0.000 A 
ATOM     13  C   UNL     1       1.648   7.186  20.534  0.00  0.00    +0.000 A 
ATOM     14  S   UNL     1       2.830   6.820  19.369  0.00  0.00    +0.000 S 
ATOM     15  C   UNL     1       2.668   5.115  19.570  0.00  0.00    +0.000 A 
BRANCH  13  16
ATOM     16  C   UNL     1       1.329   8.554  20.886  0.00  0.00    +0.000 C 
ATOM     17  N   UNL     1       1.696   8.977  22.138  0.00  0.00    +0.000 N 
ATOM     18  O   UNL     1       0.747   9.338  20.142  0.00  0.00    +0.000 OA
ATOM     19  H   UNL     1       2.173   8.370  22.787  0.00  0.00    +0.000 HD
ATOM     20  H   UNL     1       1.485   9.925  22.399  0.00  0.00    +0.000 HD
ENDBRANCH  13  16
ENDBRANCH   4   7
BRANCH   1  21
ATOM     21  C   UNL     1       7.235   4.773  15.708  0.00  0.00    +0.000 C 
BRANCH  21  22
ATOM     22  C   UNL     1       6.960   4.795  14.202  0.00  0.00    +0.000 C 
BRANCH  22  23
ATOM     23  N   UNL     1       6.472   3.470  13.740  0.00  0.00    +0.000 NA
ATOM     24  H   UNL     1       7.052   2.715  14.107  0.00  0.00    +0.000 HD
BRANCH  23  26
ATOM     25  C   UNL     1       4.677   3.473  11.739  0.00  0.00    +0.000 C 
ATOM     26  S   UNL     1       6.425   3.343  12.047  0.00  0.00    +0.000 S 
ATOM     27  O   UNL     1       6.841   1.995  11.736  0.00  0.00    +0.000 OA
ATOM     28  O   UNL     1       7.093   4.499  11.497  0.00  0.00    +0.000 OA
ENDBRANCH  23  26
ENDBRANCH  22  23
ENDBRANCH  21  22
ENDBRANCH   1  21
TORSDOF 6
ENDMDL
MODEL 3
REMARK VINA RESULT:      -7.2      3.569      5.273
REMARK  Name = 
REMARK  7 active torsions:
REMARK  status: ('A' for Active; 'I' for Inactive)
REMARK    1  A    between atoms: C_1  and  S_2
REMARK    2  A    between atoms: S_2  and  N_5
REMARK    3  A    between atoms: N_5  and  C_6
REMARK    4  A    between atoms: C_6  and  C_7
REMARK    5  A    between atoms: C_7  and  C_8
REMARK    6  A    between atoms: N_11  and  C_12
REMARK    7  A    between atoms: C_18  and  C_19
REMARK                            x       y       z     vdW  Elec       q    Type
REMARK                         _______ _______ _______ _____ _____    ______ ____
ROOT
ATOM      1  C   UNL     1       6.236   5.647  16.275  0.00  0.00    +0.000 C 
ATOM      2  C   UNL     1       6.561   5.768  17.778  0.00  0.00    +0.000 C 
ATOM      3  C   UNL     1       6.147   4.515  18.550  0.00  0.00    +0.000 C 
ATOM      4  N   UNL     1       4.733   4.277  18.304  0.00  0.00    +0.000 N 
ATOM      5  C   UNL     1       4.365   4.010  16.919  0.00  0.00    +0.000 C 
ATOM      6  C   UNL     1       4.758   5.238  16.086  0.00  0.00    +0.000 C 
ENDROOT
BRANCH   4   7
ATOM      7  C   UNL     1       3.777   4.210  19.295  0.00  0.00    +0.000 A 
ATOM      8  N   UNL     1       3.540   3.009  19.882  0.00  0.00    +0.000 NA
ATOM      9  C   UNL     1       2.638   2.913  20.869  0.00  0.00    +0.000 A 
ATOM     10  N   UNL     1       1.890   3.891  21.380  0.00  0.00    +0.000 NA
ATOM     11  C   UNL     1       2.070   5.090  20.779  0.00  0.00    +0.000 A 
ATOM     12  C   UNL     1       1.370   6.284  21.129  0.00  0.00    +0.000 A 
ATOM     13  C   UNL     1       1.712   7.359  20.338  0.00  0.00    +0.000 A 
ATOM     14  S   UNL     1       2.848   6.904  19.160  0.00  0.00    +0.000 S 
ATOM     15  C   UNL     1       2.977   5.286  19.740  0.00  0.00    +0.000 A 
BRANCH  13  16
ATOM     16  C   UNL     1       1.205   8.714  20.420  0.00  0.00    +0.000 C 
ATOM     17  N   UNL     1       0.960   9.212  21.673  0.00  0.00    +0.000 N 
ATOM     18  O   UNL     1       0.975   9.421  19.443  0.00  0.00    +0.000 OA
ATOM     19  H   UNL     1       1.128   8.670  22.505  0.00  0.00    +0.000 HD
ATOM     20  H   UNL     1       0.610  10.153  21.748  0.00  0.00    +0.000 HD
ENDBRANCH  13  16
ENDBRANCH   4   7
BRANCH   1  21
ATOM     21  C   UNL     1       7.238   4.705  15.569  0.00  0.00    +0.000 C 
BRANCH  21  22
ATOM     22  C   UNL     1       7.083   4.617  14.049  0.00  0.00    +0.000 C 
BRANCH  22  23
ATOM     23  N   UNL     1       6.352   3.382  13.667  0.00  0.00    +0.000 NA
ATOM     24  H   UNL     1       6.878   2.547  13.924  0.00  0.00    +0.000 HD
BRANCH  23  26
ATOM     25  C   UNL     1       6.362   1.608  11.648  0.00  0.00    +0.000 C 
ATOM     26  S   UNL     1       6.003   3.313  12.007  0.00  0.00    +0.000 S 
ATOM     27  O   UNL     1       6.998   4.134  11.355  0.00  0.00    +0.000 OA
ATOM     28  O   UNL     1       4.587   3.546  11.841  0.00  0.00    +0.000 OA
ENDBRANCH  23  26
ENDBRANCH  22  23
ENDBRANCH  21  22
ENDBRANCH   1  21
TORSDOF 6
ENDMDL
MODEL 4
REMARK VINA RESULT:      -7.2      2.812      3.683
REMARK  Name = 
REMARK  7 active torsions:
REMARK  status: ('A' for Active; 'I' for Inactive)
REMARK    1  A    between atoms: C_1  and  S_2
REMARK    2  A    between atoms: S_2  and  N_5
REMARK    3  A    between atoms: N_5  and  C_6
REMARK    4  A    between atoms: C_6  and  C_7
REMARK    5  A    between atoms: C_7  and  C_8
REMARK    6  A    between atoms: N_11  and  C_12
REMARK    7  A    between atoms: C_18  and  C_19
REMARK                            x       y       z     vdW  Elec       q    Type
REMARK                         _______ _______ _______ _____ _____    ______ ____
ROOT
ATOM      1  C   UNL     1       4.036   5.597  18.509  0.00  0.00    +0.000 C 
ATOM      2  C   UNL     1       3.438   5.380  19.914  0.00  0.00    +0.000 C 
ATOM      3  C   UNL     1       1.995   5.877  19.999  0.00  0.00    +0.000 C 
ATOM      4  N   UNL     1       1.971   7.274  19.595  0.00  0.00    +0.000 N 
ATOM      5  C   UNL     1       2.388   7.546  18.224  0.00  0.00    +0.000 C 
ATOM      6  C   UNL     1       3.838   7.066  18.073  0.00  0.00    +0.000 C 
ENDROOT
BRANCH   4   7
ATOM      7  C   UNL     1       1.510   8.301  20.391  0.00  0.00    +0.000 A 
ATOM      8  N   UNL     1       1.785   8.260  21.719  0.00  0.00    +0.000 NA
ATOM      9  C   UNL     1       1.377   9.257  22.517  0.00  0.00    +0.000 A 
ATOM     10  N   UNL     1       0.689  10.344  22.168  0.00  0.00    +0.000 NA
ATOM     11  C   UNL     1       0.357  10.384  20.856  0.00  0.00    +0.000 A 
ATOM     12  C   UNL     1      -0.398  11.431  20.245  0.00  0.00    +0.000 A 
ATOM     13  C   UNL     1      -0.630  11.213  18.905  0.00  0.00    +0.000 A 
ATOM     14  S   UNL     1       0.034   9.730  18.410  0.00  0.00    +0.000 S 
ATOM     15  C   UNL     1       0.728   9.392  19.952  0.00  0.00    +0.000 A 
BRANCH  13  16
ATOM     16  C   UNL     1      -1.350  12.067  17.981  0.00  0.00    +0.000 C 
ATOM     17  N   UNL     1      -0.795  13.288  17.701  0.00  0.00    +0.000 N 
ATOM     18  O   UNL     1      -2.418  11.764  17.457  0.00  0.00    +0.000 OA
ATOM     19  H   UNL     1       0.078  13.584  18.109  0.00  0.00    +0.000 HD
ATOM     20  H   UNL     1      -1.280  13.893  17.059  0.00  0.00    +0.000 HD
ENDBRANCH  13  16
ENDBRANCH   4   7
BRANCH   1  21
ATOM     21  C   UNL     1       3.469   4.567  17.504  0.00  0.00    +0.000 C 
BRANCH  21  22
ATOM     22  C   UNL     1       4.520   3.836  16.664  0.00  0.00    +0.000 C 
BRANCH  22  23
ATOM     23  N   UNL     1       5.836   4.516  16.764  0.00  0.00    +0.000 NA
ATOM     24  H   UNL     1       5.839   5.204  17.517  0.00  0.00    +0.000 HD
BRANCH  23  26
ATOM     25  C   UNL     1       6.153   3.950  14.156  0.00  0.00    +0.000 C 
ATOM     26  S   UNL     1       6.287   5.288  15.321  0.00  0.00    +0.000 S 
ATOM     27  O   UNL     1       7.686   5.624  15.467  0.00  0.00    +0.000 OA
ATOM     28  O   UNL     1       5.286   6.284  15.019  0.00  0.00    +0.000 OA
ENDBRANCH  23  26
ENDBRANCH  22  23
ENDBRANCH  21  22
ENDBRANCH   1  21
TORSDOF 6
ENDMDL
MODEL 5
REMARK VINA RESULT:      -7.1      2.389      8.262
REMARK  Name = 
REMARK  7 active torsions:
REMARK  status: ('A' for Active; 'I' for Inactive)
REMARK    1  A    between atoms: C_1  and  S_2
REMARK    2  A    between atoms: S_2  and  N_5
REMARK    3  A    between atoms: N_5  and  C_6
REMARK    4  A    between atoms: C_6  and  C_7
REMARK    5  A    between atoms: C_7  and  C_8
REMARK    6  A    between atoms: N_11  and  C_12
REMARK    7  A    between atoms: C_18  and  C_19
REMARK                            x       y       z     vdW  Elec       q    Type
REMARK                         _______ _______ _______ _____ _____    ______ ____
ROOT
ATOM      1  C   UNL     1       0.560   9.873  19.137  0.00  0.00    +0.000 C 
ATOM      2  C   UNL     1       0.590   8.797  20.242  0.00  0.00    +0.000 C 
ATOM      3  C   UNL     1       1.951   8.106  20.323  0.00  0.00    +0.000 C 
ATOM      4  N   UNL     1       2.263   7.563  19.010  0.00  0.00    +0.000 N 
ATOM      5  C   UNL     1       2.394   8.539  17.934  0.00  0.00    +0.000 C 
ATOM      6  C   UNL     1       1.053   9.272  17.802  0.00  0.00    +0.000 C 
ENDROOT
BRANCH   4   7
ATOM      7  C   UNL     1       2.515   6.230  18.764  0.00  0.00    +0.000 A 
ATOM      8  N   UNL     1       1.759   5.303  19.406  0.00  0.00    +0.000 NA
ATOM      9  C   UNL     1       1.957   3.999  19.169  0.00  0.00    +0.000 A 
ATOM     10  N   UNL     1       2.852   3.452  18.347  0.00  0.00    +0.000 NA
ATOM     11  C   UNL     1       3.653   4.352  17.732  0.00  0.00    +0.000 A 
ATOM     12  C   UNL     1       4.703   4.014  16.825  0.00  0.00    +0.000 A 
ATOM     13  C   UNL     1       5.392   5.116  16.367  0.00  0.00    +0.000 A 
ATOM     14  S   UNL     1       4.786   6.541  17.066  0.00  0.00    +0.000 S 
ATOM     15  C   UNL     1       3.531   5.727  17.922  0.00  0.00    +0.000 A 
BRANCH  13  16
ATOM     16  C   UNL     1       6.503   5.141  15.437  0.00  0.00    +0.000 C 
ATOM     17  N   UNL     1       6.405   4.343  14.328  0.00  0.00    +0.000 N 
ATOM     18  O   UNL     1       7.516   5.817  15.595  0.00  0.00    +0.000 OA
ATOM     19  H   UNL     1       5.595   3.767  14.155  0.00  0.00    +0.000 HD
ATOM     20  H   UNL     1       7.166   4.350  13.669  0.00  0.00    +0.000 HD
ENDBRANCH  13  16
ENDBRANCH   4   7
BRANCH   1  21
ATOM     21  C   UNL     1       1.337  11.136  19.576  0.00  0.00    +0.000 C 
BRANCH  21  22
ATOM     22  C   UNL     1       0.479  12.246  20.187  0.00  0.00    +0.000 C 
BRANCH  22  23
ATOM     23  N   UNL     1       0.545  12.204  21.670  0.00  0.00    +0.000 NA
ATOM     24  H   UNL     1       1.115  11.422  21.991  0.00  0.00    +0.000 HD
BRANCH  23  26
ATOM     25  C   UNL     1      -0.911  10.466  23.113  0.00  0.00    +0.000 C 
ATOM     26  S   UNL     1      -0.988  12.091  22.392  0.00  0.00    +0.000 S 
ATOM     27  O   UNL     1      -1.940  12.062  21.306  0.00  0.00    +0.000 OA
ATOM     28  O   UNL     1      -1.055  13.077  23.446  0.00  0.00    +0.000 OA
ENDBRANCH  23  26
ENDBRANCH  22  23
ENDBRANCH  21  22
ENDBRANCH   1  21
TORSDOF 6
ENDMDL
MODEL 6
REMARK VINA RESULT:      -6.9      2.338      8.221
REMARK  Name = 
REMARK  7 active torsions:
REMARK  status: ('A' for Active; 'I' for Inactive)
REMARK    1  A    between atoms: C_1  and  S_2
REMARK    2  A    between atoms: S_2  and  N_5
REMARK    3  A    between atoms: N_5  and  C_6
REMARK    4  A    between atoms: C_6  and  C_7
REMARK    5  A    between atoms: C_7  and  C_8
REMARK    6  A    between atoms: N_11  and  C_12
REMARK    7  A    between atoms: C_18  and  C_19
REMARK                            x       y       z     vdW  Elec       q    Type
REMARK                         _______ _______ _______ _____ _____    ______ ____
ROOT
ATOM      1  C   UNL     1       0.387   9.958  19.113  0.00  0.00    +0.000 C 
ATOM      2  C   UNL     1       0.401   8.994  20.318  0.00  0.00    +0.000 C 
ATOM      3  C   UNL     1       1.778   8.360  20.521  0.00  0.00    +0.000 C 
ATOM      4  N   UNL     1       2.164   7.706  19.281  0.00  0.00    +0.000 N 
ATOM      5  C   UNL     1       2.313   8.578  18.122  0.00  0.00    +0.000 C 
ATOM      6  C   UNL     1       0.957   9.248  17.864  0.00  0.00    +0.000 C 
ENDROOT
BRANCH   4   7
ATOM      7  C   UNL     1       2.466   6.365  19.177  0.00  0.00    +0.000 A 
ATOM      8  N   UNL     1       1.729   5.480  19.896  0.00  0.00    +0.000 NA
ATOM      9  C   UNL     1       1.977   4.167  19.796  0.00  0.00    +0.000 A 
ATOM     10  N   UNL     1       2.908   3.572  19.050  0.00  0.00    +0.000 NA
ATOM     11  C   UNL     1       3.691   4.435  18.362  0.00  0.00    +0.000 A 
ATOM     12  C   UNL     1       4.772   4.046  17.514  0.00  0.00    +0.000 A 
ATOM     13  C   UNL     1       5.433   5.120  16.959  0.00  0.00    +0.000 A 
ATOM     14  S   UNL     1       4.763   6.586  17.498  0.00  0.00    +0.000 S 
ATOM     15  C   UNL     1       3.517   5.816  18.409  0.00  0.00    +0.000 A 
BRANCH  13  16
ATOM     16  C   UNL     1       6.563   5.092  16.053  0.00  0.00    +0.000 C 
ATOM     17  N   UNL     1       6.345   5.529  14.772  0.00  0.00    +0.000 N 
ATOM     18  O   UNL     1       7.682   4.691  16.362  0.00  0.00    +0.000 OA
ATOM     19  H   UNL     1       5.443   5.863  14.469  0.00  0.00    +0.000 HD
ATOM     20  H   UNL     1       7.119   5.519  14.129  0.00  0.00    +0.000 HD
ENDBRANCH  13  16
ENDBRANCH   4   7
BRANCH   1  21
ATOM     21  C   UNL     1       1.106  11.283  19.459  0.00  0.00    +0.000 C 
BRANCH  21  22
ATOM     22  C   UNL     1       1.035  11.692  20.932  0.00  0.00    +0.000 C 
BRANCH  22  23
ATOM     23  N   UNL     1      -0.076  12.653  21.155  0.00  0.00    +0.000 NA
ATOM     24  H   UNL     1       0.259  13.616  21.135  0.00  0.00    +0.000 HD
BRANCH  23  26
ATOM     25  C   UNL     1      -2.581  12.388  22.094  0.00  0.00    +0.000 C 
ATOM     26  S   UNL     1      -0.883  12.391  22.627  0.00  0.00    +0.000 S 
ATOM     27  O   UNL     1      -0.659  13.577  23.422  0.00  0.00    +0.000 OA
ATOM     28  O   UNL     1      -0.530  11.072  23.098  0.00  0.00    +0.000 OA
ENDBRANCH  23  26
ENDBRANCH  22  23
ENDBRANCH  21  22
ENDBRANCH   1  21
TORSDOF 6
ENDMDL
MODEL 7
REMARK VINA RESULT:      -6.9      2.915      8.275
REMARK  Name = 
REMARK  7 active torsions:
REMARK  status: ('A' for Active; 'I' for Inactive)
REMARK    1  A    between atoms: C_1  and  S_2
REMARK    2  A    between atoms: S_2  and  N_5
REMARK    3  A    between atoms: N_5  and  C_6
REMARK    4  A    between atoms: C_6  and  C_7
REMARK    5  A    between atoms: C_7  and  C_8
REMARK    6  A    between atoms: N_11  and  C_12
REMARK    7  A    between atoms: C_18  and  C_19
REMARK                            x       y       z     vdW  Elec       q    Type
REMARK                         _______ _______ _______ _____ _____    ______ ____
ROOT
ATOM      1  C   UNL     1       0.714   9.739  19.254  0.00  0.00    +0.000 C 
ATOM      2  C   UNL     1       0.806   8.548  20.230  0.00  0.00    +0.000 C 
ATOM      3  C   UNL     1       2.133   7.801  20.089  0.00  0.00    +0.000 C 
ATOM      4  N   UNL     1       2.280   7.394  18.701  0.00  0.00    +0.000 N 
ATOM      5  C   UNL     1       2.346   8.476  17.725  0.00  0.00    +0.000 C 
ATOM      6  C   UNL     1       1.036   9.269  17.817  0.00  0.00    +0.000 C 
ENDROOT
BRANCH   4   7
ATOM      7  C   UNL     1       2.439   6.087  18.291  0.00  0.00    +0.000 A 
ATOM      8  N   UNL     1       1.394   5.234  18.440  0.00  0.00    +0.000 NA
ATOM      9  C   UNL     1       1.505   3.964  18.025  0.00  0.00    +0.000 A 
ATOM     10  N   UNL     1       2.564   3.385  17.460  0.00  0.00    +0.000 NA
ATOM     11  C   UNL     1       3.638   4.201  17.347  0.00  0.00    +0.000 A 
ATOM     12  C   UNL     1       4.897   3.809  16.798  0.00  0.00    +0.000 A 
ATOM     13  C   UNL     1       5.835   4.818  16.831  0.00  0.00    +0.000 A 
ATOM     14  S   UNL     1       5.194   6.215  17.557  0.00  0.00    +0.000 S 
ATOM     15  C   UNL     1       3.623   5.532  17.757  0.00  0.00    +0.000 A 
BRANCH  13  16
ATOM     16  C   UNL     1       7.202   4.771  16.356  0.00  0.00    +0.000 C 
ATOM     17  N   UNL     1       7.462   5.360  15.146  0.00  0.00    +0.000 N 
ATOM     18  O   UNL     1       8.122   4.229  16.963  0.00  0.00    +0.000 OA
ATOM     19  H   UNL     1       6.740   5.814  14.608  0.00  0.00    +0.000 HD
ATOM     20  H   UNL     1       8.407   5.339  14.802  0.00  0.00    +0.000 HD
ENDBRANCH  13  16
ENDBRANCH   4   7
BRANCH   1  21
ATOM     21  C   UNL     1       1.594  10.916  19.736  0.00  0.00    +0.000 C 
BRANCH  21  22
ATOM     22  C   UNL     1       0.888  11.921  20.649  0.00  0.00    +0.000 C 
BRANCH  22  23
ATOM     23  N   UNL     1      -0.585  11.739  20.588  0.00  0.00    +0.000 NA
ATOM     24  H   UNL     1      -0.828  10.842  20.167  0.00  0.00    +0.000 HD
BRANCH  23  26
ATOM     25  C   UNL     1      -3.072  12.592  20.032  0.00  0.00    +0.000 C 
ATOM     26  S   UNL     1      -1.363  12.975  19.722  0.00  0.00    +0.000 S 
ATOM     27  O   UNL     1      -1.087  12.719  18.326  0.00  0.00    +0.000 OA
ATOM     28  O   UNL     1      -1.035  14.233  20.351  0.00  0.00    +0.000 OA
ENDBRANCH  23  26
ENDBRANCH  22  23
ENDBRANCH  21  22
ENDBRANCH   1  21
TORSDOF 6
ENDMDL
MODEL 8
REMARK VINA RESULT:      -6.9      3.228      4.188
REMARK  Name = 
REMARK  7 active torsions:
REMARK  status: ('A' for Active; 'I' for Inactive)
REMARK    1  A    between atoms: C_1  and  S_2
REMARK    2  A    between atoms: S_2  and  N_5
REMARK    3  A    between atoms: N_5  and  C_6
REMARK    4  A    between atoms: C_6  and  C_7
REMARK    5  A    between atoms: C_7  and  C_8
REMARK    6  A    between atoms: N_11  and  C_12
REMARK    7  A    between atoms: C_18  and  C_19
REMARK                            x       y       z     vdW  Elec       q    Type
REMARK                         _______ _______ _______ _____ _____    ______ ____
ROOT
ATOM      1  C   UNL     1       2.295   6.270  18.790  0.00  0.00    +0.000 C 
ATOM      2  C   UNL     1       1.964   7.479  17.891  0.00  0.00    +0.000 C 
ATOM      3  C   UNL     1       2.242   8.806  18.599  0.00  0.00    +0.000 C 
ATOM      4  N   UNL     1       1.495   8.820  19.847  0.00  0.00    +0.000 N 
ATOM      5  C   UNL     1       1.853   7.788  20.814  0.00  0.00    +0.000 C 
ATOM      6  C   UNL     1       1.596   6.425  20.160  0.00  0.00    +0.000 C 
ENDROOT
BRANCH   4   7
ATOM      7  C   UNL     1       0.561   9.778  20.177  0.00  0.00    +0.000 A 
ATOM      8  N   UNL     1       0.572  10.281  21.438  0.00  0.00    +0.000 NA
ATOM      9  C   UNL     1      -0.303  11.235  21.785  0.00  0.00    +0.000 A 
ATOM     10  N   UNL     1      -1.245  11.787  21.021  0.00  0.00    +0.000 NA
ATOM     11  C   UNL     1      -1.312  11.267  19.773  0.00  0.00    +0.000 A 
ATOM     12  C   UNL     1      -2.251  11.673  18.777  0.00  0.00    +0.000 A 
ATOM     13  C   UNL     1      -2.131  10.960  17.603  0.00  0.00    +0.000 A 
ATOM     14  S   UNL     1      -0.909   9.787  17.732  0.00  0.00    +0.000 S 
ATOM     15  C   UNL     1      -0.452  10.267  19.324  0.00  0.00    +0.000 A 
BRANCH  13  16
ATOM     16  C   UNL     1      -2.911  11.113  16.392  0.00  0.00    +0.000 C 
ATOM     17  N   UNL     1      -4.077  11.827  16.488  0.00  0.00    +0.000 N 
ATOM     18  O   UNL     1      -2.595  10.634  15.306  0.00  0.00    +0.000 OA
ATOM     19  H   UNL     1      -4.381  12.237  17.358  0.00  0.00    +0.000 HD
ATOM     20  H   UNL     1      -4.630  11.946  15.656  0.00  0.00    +0.000 HD
ENDBRANCH  13  16
ENDBRANCH   4   7
BRANCH   1  21
ATOM     21  C   UNL     1       3.824   6.061  18.892  0.00  0.00    +0.000 C 
BRANCH  21  22
ATOM     22  C   UNL     1       4.560   6.003  17.551  0.00  0.00    +0.000 C 
BRANCH  22  23
ATOM     23  N   UNL     1       5.571   4.914  17.555  0.00  0.00    +0.000 NA
ATOM     24  H   UNL     1       5.552   4.398  18.434  0.00  0.00    +0.000 HD
BRANCH  23  26
ATOM     25  C   UNL     1       7.636   5.924  18.948  0.00  0.00    +0.000 C 
ATOM     26  S   UNL     1       7.149   5.484  17.294  0.00  0.00    +0.000 S 
ATOM     27  O   UNL     1       7.013   6.699  16.523  0.00  0.00    +0.000 OA
ATOM     28  O   UNL     1       7.952   4.373  16.841  0.00  0.00    +0.000 OA
ENDBRANCH  23  26
ENDBRANCH  22  23
ENDBRANCH  21  22
ENDBRANCH   1  21
TORSDOF 6
ENDMDL
MODEL 9
REMARK VINA RESULT:      -6.9      3.363      5.042
REMARK  Name = 
REMARK  7 active torsions:
REMARK  status: ('A' for Active; 'I' for Inactive)
REMARK    1  A    between atoms: C_1  and  S_2
REMARK    2  A    between atoms: S_2  and  N_5
REMARK    3  A    between atoms: N_5  and  C_6
REMARK    4  A    between atoms: C_6  and  C_7
REMARK    5  A    between atoms: C_7  and  C_8
REMARK    6  A    between atoms: N_11  and  C_12
REMARK    7  A    between atoms: C_18  and  C_19
REMARK                            x       y       z     vdW  Elec       q    Type
REMARK                         _______ _______ _______ _____ _____    ______ ____
ROOT
ATOM      1  C   UNL     1       6.697   5.806  16.470  0.00  0.00    +0.000 C 
ATOM      2  C   UNL     1       6.875   5.592  17.987  0.00  0.00    +0.000 C 
ATOM      3  C   UNL     1       5.865   4.587  18.541  0.00  0.00    +0.000 C 
ATOM      4  N   UNL     1       4.530   5.050  18.198  0.00  0.00    +0.000 N 
ATOM      5  C   UNL     1       4.235   5.141  16.773  0.00  0.00    +0.000 C 
ATOM      6  C   UNL     1       5.221   6.140  16.154  0.00  0.00    +0.000 C 
ENDROOT
BRANCH   4   7
ATOM      7  C   UNL     1       3.542   5.313  19.124  0.00  0.00    +0.000 A 
ATOM      8  N   UNL     1       3.200   4.333  19.998  0.00  0.00    +0.000 NA
ATOM      9  C   UNL     1       2.265   4.565  20.929  0.00  0.00    +0.000 A 
ATOM     10  N   UNL     1       1.576   5.689  21.124  0.00  0.00    +0.000 NA
ATOM     11  C   UNL     1       1.861   6.667  20.233  0.00  0.00    +0.000 A 
ATOM     12  C   UNL     1       1.241   7.952  20.217  0.00  0.00    +0.000 A 
ATOM     13  C   UNL     1       1.684   8.750  19.184  0.00  0.00    +0.000 A 
ATOM     14  S   UNL     1       2.818   7.923  18.227  0.00  0.00    +0.000 S 
ATOM     15  C   UNL     1       2.810   6.517  19.224  0.00  0.00    +0.000 A 
BRANCH  13  16
ATOM     16  C   UNL     1       1.276  10.106  18.875  0.00  0.00    +0.000 C 
ATOM     17  N   UNL     1       1.839  10.689  17.770  0.00  0.00    +0.000 N 
ATOM     18  O   UNL     1       0.476  10.752  19.547  0.00  0.00    +0.000 OA
ATOM     19  H   UNL     1       2.503  10.201  17.190  0.00  0.00    +0.000 HD
ATOM     20  H   UNL     1       1.565  11.629  17.539  0.00  0.00    +0.000 HD
ENDBRANCH  13  16
ENDBRANCH   4   7
BRANCH   1  21
ATOM     21  C   UNL     1       7.245   4.598  15.675  0.00  0.00    +0.000 C 
BRANCH  21  22
ATOM     22  C   UNL     1       7.001   4.652  14.165  0.00  0.00    +0.000 C 
BRANCH  22  23
ATOM     23  N   UNL     1       6.389   3.386  13.687  0.00  0.00    +0.000 NA
ATOM     24  H   UNL     1       6.880   2.575  14.063  0.00  0.00    +0.000 HD
BRANCH  23  26
ATOM     25  C   UNL     1       4.621   3.402  11.662  0.00  0.00    +0.000 C 
ATOM     26  S   UNL     1       6.364   3.268  11.993  0.00  0.00    +0.000 S 
ATOM     27  O   UNL     1       6.784   1.921  11.680  0.00  0.00    +0.000 OA
ATOM     28  O   UNL     1       7.041   4.426  11.458  0.00  0.00    +0.000 OA
ENDBRANCH  23  26
ENDBRANCH  22  23
ENDBRANCH  21  22
ENDBRANCH   1  21
TORSDOF 6
ENDMDL
