MODEL 1
REMARK VINA RESULT:      -7.3      0.000      0.000
REMARK  Name = 
REMARK  15 active torsions:
REMARK  status: ('A' for Active; 'I' for Inactive)
REMARK    1  A    between atoms: C_1  and  C_2
REMARK    2  A    between atoms: C_2  and  C_3
REMARK    3  A    between atoms: C_3  and  C_4
REMARK    4  A    between atoms: C_4  and  C_5
REMARK    5  A    between atoms: C_5  and  N_6
REMARK    6  A    between atoms: C_7  and  C_9
REMARK    7  A    between atoms: C_9  and  N_10
REMARK    8  A    between atoms: C_9  and  C_11
REMARK    9  A    between atoms: C_11  and  C_12
REMARK   10  A    between atoms: C_15  and  N_16
REMARK   11  A    between atoms: N_16  and  C_22
REMARK   12  A    between atoms: C_17  and  C_19
REMARK   13  A    between atoms: C_19  and  O_21
REMARK   14  A    between atoms: C_27  and  C_28
REMARK   15  A    between atoms: C_28  and  O_30
REMARK                            x       y       z     vdW  Elec       q    Type
REMARK                         _______ _______ _______ _____ _____    ______ ____
ROOT
ATOM      1  C   UNL     1       1.526   8.389  19.701  0.00  0.00    +0.000 A 
ATOM      2  C   UNL     1       2.168   8.370  18.455  0.00  0.00    +0.000 A 
ATOM      3  C   UNL     1       2.889   7.253  18.003  0.00  0.00    +0.000 A 
ATOM      4  C   UNL     1       3.061   6.149  18.832  0.00  0.00    +0.000 A 
ATOM      5  C   UNL     1       2.422   6.156  20.086  0.00  0.00    +0.000 A 
ATOM      6  C   UNL     1       1.663   7.258  20.515  0.00  0.00    +0.000 A 
ENDROOT
BRANCH   4   7
ATOM      7  N   UNL     1       3.839   5.017  18.431  0.00  0.00    +0.000 N 
ATOM      8  C   UNL     1       3.379   3.684  18.494  0.00  0.00    +0.000 C 
ATOM      9  O   UNL     1       4.072   2.708  18.751  0.00  0.00    +0.000 OA
BRANCH   7  10
ATOM     10  C   UNL     1       5.258   5.224  18.366  0.00  0.00    +0.000 A 
ATOM     11  C   UNL     1       5.999   5.278  19.566  0.00  0.00    +0.000 A 
ATOM     12  C   UNL     1       7.383   5.478  19.544  0.00  0.00    +0.000 A 
ATOM     13  C   UNL     1       8.049   5.618  18.334  0.00  0.00    +0.000 A 
ATOM     14  C   UNL     1       7.338   5.534  17.138  0.00  0.00    +0.000 A 
ATOM     15  C   UNL     1       5.941   5.348  17.136  0.00  0.00    +0.000 A 
BRANCH  15  16
ATOM     16  C   UNL     1       5.230   5.327  15.826  0.00  0.00    +0.000 C 
ATOM     17  O   UNL     1       4.682   4.344  15.355  0.00  0.00    +0.000 OA
BRANCH  16  18
ATOM     18  O   UNL     1       5.190   6.519  15.182  0.00  0.00    +0.000 OA
ATOM     19  H   UNL     1       5.107   7.319  15.731  0.00  0.00    +0.000 HD
ENDBRANCH  16  18
ENDBRANCH  15  16
ENDBRANCH   7  10
BRANCH   8  20
ATOM     20  C   UNL     1       1.958   3.437  17.948  0.00  0.00    +0.000 C 
ATOM     21  O   UNL     1       1.086   2.854  18.585  0.00  0.00    +0.000 OA
BRANCH  20  22
ATOM     22  O   UNL     1       1.827   3.836  16.675  0.00  0.00    +0.000 OA
ATOM     23  H   UNL     1       2.391   4.629  16.465  0.00  0.00    +0.000 HD
ENDBRANCH  20  22
ENDBRANCH   8  20
ENDBRANCH   4   7
BRANCH   1  24
ATOM     24  C   UNL     1       0.736   9.606  20.141  0.00  0.00    +0.000 C 
BRANCH  24  25
ATOM     25  C   UNL     1       0.479  10.659  19.032  0.00  0.00    +0.000 C 
BRANCH  25  27
ATOM     26  N   UNL     1      -1.156   9.873  17.398  0.00  0.00    +0.000 N 
ATOM     27  C   UNL     1      -0.991  10.602  18.567  0.00  0.00    +0.000 C 
ATOM     28  O   UNL     1      -1.911  11.182  19.129  0.00  0.00    +0.000 OA
ATOM     29  H   UNL     1      -0.384   9.327  17.040  0.00  0.00    +0.000 HD
BRANCH  26  30
ATOM     30  C   UNL     1      -2.445   9.771  16.754  0.00  0.00    +0.000 C 
BRANCH  30  31
ATOM     31  C   UNL     1      -2.664  10.888  15.734  0.00  0.00    +0.000 C 
BRANCH  31  32
ATOM     32  C   UNL     1      -3.766  10.485  14.757  0.00  0.00    +0.000 C 
BRANCH  32  34
ATOM     33  C   UNL     1      -4.254   9.844  12.384  0.00  0.00    +0.000 C 
ATOM     34  C   UNL     1      -3.203   9.863  13.483  0.00  0.00    +0.000 C 
ENDBRANCH  32  34
ENDBRANCH  31  32
ENDBRANCH  30  31
ENDBRANCH  26  30
ENDBRANCH  25  27
BRANCH  25  35
ATOM     35  N   UNL     1       0.752  12.060  19.453  0.00  0.00    +0.000 NA
ATOM     36  H   UNL     1       0.533  12.673  18.666  0.00  0.00    +0.000 HD
ATOM     37  H   UNL     1       1.748  12.182  19.625  0.00  0.00    +0.000 HD
ENDBRANCH  25  35
ENDBRANCH  24  25
ENDBRANCH   1  24
TORSDOF 14
ENDMDL
MODEL 2
REMARK VINA RESULT:      -7.2      1.203      1.735
REMARK  Name = 
REMARK  15 active torsions:
REMARK  status: ('A' for Active; 'I' for Inactive)
REMARK    1  A    between atoms: C_1  and  C_2
REMARK    2  A    between atoms: C_2  and  C_3
REMARK    3  A    between atoms: C_3  and  C_4
REMARK    4  A    between atoms: C_4  and  C_5
REMARK    5  A    between atoms: C_5  and  N_6
REMARK    6  A    between atoms: C_7  and  C_9
REMARK    7  A    between atoms: C_9  and  N_10
REMARK    8  A    between atoms: C_9  and  C_11
REMARK    9  A    between atoms: C_11  and  C_12
REMARK   10  A    between atoms: C_15  and  N_16
REMARK   11  A    between atoms: N_16  and  C_22
REMARK   12  A    between atoms: C_17  and  C_19
REMARK   13  A    between atoms: C_19  and  O_21
REMARK   14  A    between atoms: C_27  and  C_28
REMARK   15  A    between atoms: C_28  and  O_30
REMARK                            x       y       z     vdW  Elec       q    Type
REMARK                         _______ _______ _______ _____ _____    ______ ____
ROOT
ATOM      1  C   UNL     1       1.573   8.546  19.378  0.00  0.00    +0.000 A 
ATOM      2  C   UNL     1       2.182   8.389  18.125  0.00  0.00    +0.000 A 
ATOM      3  C   UNL     1       2.894   7.228  17.780  0.00  0.00    +0.000 A 
ATOM      4  C   UNL     1       3.089   6.222  18.722  0.00  0.00    +0.000 A 
ATOM      5  C   UNL     1       2.484   6.369  19.984  0.00  0.00    +0.000 A 
ATOM      6  C   UNL     1       1.734   7.513  20.308  0.00  0.00    +0.000 A 
ENDROOT
BRANCH   4   7
ATOM      7  N   UNL     1       3.860   5.053  18.429  0.00  0.00    +0.000 N 
ATOM      8  C   UNL     1       3.378   3.735  18.583  0.00  0.00    +0.000 C 
ATOM      9  O   UNL     1       4.050   2.772  18.931  0.00  0.00    +0.000 OA
BRANCH   7  10
ATOM     10  C   UNL     1       5.282   5.235  18.383  0.00  0.00    +0.000 A 
ATOM     11  C   UNL     1       5.999   5.350  19.593  0.00  0.00    +0.000 A 
ATOM     12  C   UNL     1       7.387   5.528  19.589  0.00  0.00    +0.000 A 
ATOM     13  C   UNL     1       8.080   5.587  18.388  0.00  0.00    +0.000 A 
ATOM     14  C   UNL     1       7.393   5.441  17.184  0.00  0.00    +0.000 A 
ATOM     15  C   UNL     1       5.994   5.275  17.163  0.00  0.00    +0.000 A 
BRANCH  15  16
ATOM     16  C   UNL     1       5.310   5.186  15.841  0.00  0.00    +0.000 C 
ATOM     17  O   UNL     1       4.783   4.176  15.404  0.00  0.00    +0.000 OA
BRANCH  16  18
ATOM     18  O   UNL     1       5.269   6.347  15.143  0.00  0.00    +0.000 OA
ATOM     19  H   UNL     1       5.183   6.283  14.175  0.00  0.00    +0.000 HD
ENDBRANCH  16  18
ENDBRANCH  15  16
ENDBRANCH   7  10
BRANCH   8  20
ATOM     20  C   UNL     1       1.966   3.465  18.023  0.00  0.00    +0.000 C 
ATOM     21  O   UNL     1       1.016   3.140  18.728  0.00  0.00    +0.000 OA
BRANCH  20  22
ATOM     22  O   UNL     1       1.931   3.525  16.685  0.00  0.00    +0.000 OA
ATOM     23  H   UNL     1       1.989   4.458  16.344  0.00  0.00    +0.000 HD
ENDBRANCH  20  22
ENDBRANCH   8  20
ENDBRANCH   4   7
BRANCH   1  24
ATOM     24  C   UNL     1       0.792   9.805  19.701  0.00  0.00    +0.000 C 
BRANCH  24  25
ATOM     25  C   UNL     1       0.258  10.581  18.469  0.00  0.00    +0.000 C 
BRANCH  25  27
ATOM     26  N   UNL     1      -1.850   9.928  17.424  0.00  0.00    +0.000 N 
ATOM     27  C   UNL     1      -1.284  10.619  18.486  0.00  0.00    +0.000 C 
ATOM     28  O   UNL     1      -1.946  11.239  19.309  0.00  0.00    +0.000 OA
ATOM     29  H   UNL     1      -1.263   9.347  16.841  0.00  0.00    +0.000 HD
BRANCH  26  30
ATOM     30  C   UNL     1      -3.279   9.916  17.214  0.00  0.00    +0.000 C 
BRANCH  30  31
ATOM     31  C   UNL     1      -3.732  11.052  16.298  0.00  0.00    +0.000 C 
BRANCH  31  32
ATOM     32  C   UNL     1      -4.982  11.712  16.875  0.00  0.00    +0.000 C 
BRANCH  32  34
ATOM     33  C   UNL     1      -5.384  12.132  19.313  0.00  0.00    +0.000 C 
ATOM     34  C   UNL     1      -5.397  11.091  18.205  0.00  0.00    +0.000 C 
ENDBRANCH  32  34
ENDBRANCH  31  32
ENDBRANCH  30  31
ENDBRANCH  26  30
ENDBRANCH  25  27
BRANCH  25  35
ATOM     35  N   UNL     1       0.731  11.989  18.390  0.00  0.00    +0.000 NA
ATOM     36  H   UNL     1       1.490  12.028  17.708  0.00  0.00    +0.000 HD
ATOM     37  H   UNL     1       1.146  12.266  19.277  0.00  0.00    +0.000 HD
ENDBRANCH  25  35
ENDBRANCH  24  25
ENDBRANCH   1  24
TORSDOF 14
ENDMDL
MODEL 3
REMARK VINA RESULT:      -7.1      1.255      2.004
REMARK  Name = 
REMARK  15 active torsions:
REMARK  status: ('A' for Active; 'I' for Inactive)
REMARK    1  A    between atoms: C_1  and  C_2
REMARK    2  A    between atoms: C_2  and  C_3
REMARK    3  A    between atoms: C_3  and  C_4
REMARK    4  A    between atoms: C_4  and  C_5
REMARK    5  A    between atoms: C_5  and  N_6
REMARK    6  A    between atoms: C_7  and  C_9
REMARK    7  A    between atoms: C_9  and  N_10
REMARK    8  A    between atoms: C_9  and  C_11
REMARK    9  A    between atoms: C_11  and  C_12
REMARK   10  A    between atoms: C_15  and  N_16
REMARK   11  A    between atoms: N_16  and  C_22
REMARK   12  A    between atoms: C_17  and  C_19
REMARK   13  A    between atoms: C_19  and  O_21
REMARK   14  A    between atoms: C_27  and  C_28
REMARK   15  A    between atoms: C_28  and  O_30
REMARK                            x       y       z     vdW  Elec       q    Type
REMARK                         _______ _______ _______ _____ _____    ______ ____
ROOT
ATOM      1  C   UNL     1       1.507   8.519  19.540  0.00  0.00    +0.000 A 
ATOM      2  C   UNL     1       1.685   7.449  20.427  0.00  0.00    +0.000 A 
ATOM      3  C   UNL     1       2.494   6.345  20.112  0.00  0.00    +0.000 A 
ATOM      4  C   UNL     1       3.080   6.242  18.854  0.00  0.00    +0.000 A 
ATOM      5  C   UNL     1       2.907   7.310  17.953  0.00  0.00    +0.000 A 
ATOM      6  C   UNL     1       2.134   8.434  18.291  0.00  0.00    +0.000 A 
ENDROOT
BRANCH   4   7
ATOM      7  N   UNL     1       3.860   5.105  18.474  0.00  0.00    +0.000 N 
ATOM      8  C   UNL     1       3.402   3.772  18.561  0.00  0.00    +0.000 C 
ATOM      9  O   UNL     1       4.097   2.802  18.835  0.00  0.00    +0.000 OA
BRANCH   7  10
ATOM     10  C   UNL     1       5.278   5.312  18.404  0.00  0.00    +0.000 A 
ATOM     11  C   UNL     1       6.019   5.396  19.602  0.00  0.00    +0.000 A 
ATOM     12  C   UNL     1       7.403   5.598  19.576  0.00  0.00    +0.000 A 
ATOM     13  C   UNL     1       8.069   5.711  18.364  0.00  0.00    +0.000 A 
ATOM     14  C   UNL     1       7.359   5.598  17.170  0.00  0.00    +0.000 A 
ATOM     15  C   UNL     1       5.962   5.409  17.172  0.00  0.00    +0.000 A 
BRANCH  15  16
ATOM     16  C   UNL     1       5.251   5.357  15.862  0.00  0.00    +0.000 C 
ATOM     17  O   UNL     1       4.754   4.348  15.389  0.00  0.00    +0.000 OA
BRANCH  16  18
ATOM     18  O   UNL     1       5.149   6.547  15.224  0.00  0.00    +0.000 OA
ATOM     19  H   UNL     1       4.276   6.785  14.861  0.00  0.00    +0.000 HD
ENDBRANCH  16  18
ENDBRANCH  15  16
ENDBRANCH   7  10
BRANCH   8  20
ATOM     20  C   UNL     1       1.981   3.513  18.020  0.00  0.00    +0.000 C 
ATOM     21  O   UNL     1       1.033   3.214  18.740  0.00  0.00    +0.000 OA
BRANCH  20  22
ATOM     22  O   UNL     1       1.933   3.550  16.682  0.00  0.00    +0.000 OA
ATOM     23  H   UNL     1       1.435   4.341  16.340  0.00  0.00    +0.000 HD
ENDBRANCH  20  22
ENDBRANCH   8  20
ENDBRANCH   4   7
BRANCH   1  24
ATOM     24  C   UNL     1       0.645   9.705  19.929  0.00  0.00    +0.000 C 
BRANCH  24  25
ATOM     25  C   UNL     1       0.804  10.956  19.028  0.00  0.00    +0.000 C 
BRANCH  25  27
ATOM     26  N   UNL     1      -1.035  10.283  17.570  0.00  0.00    +0.000 N 
ATOM     27  C   UNL     1      -0.540  11.311  18.359  0.00  0.00    +0.000 C 
ATOM     28  O   UNL     1      -1.091  12.400  18.461  0.00  0.00    +0.000 OA
ATOM     29  H   UNL     1      -0.598   9.372  17.610  0.00  0.00    +0.000 HD
BRANCH  26  30
ATOM     30  C   UNL     1      -2.240  10.449  16.792  0.00  0.00    +0.000 C 
BRANCH  30  31
ATOM     31  C   UNL     1      -3.472   9.920  17.525  0.00  0.00    +0.000 C 
BRANCH  31  32
ATOM     32  C   UNL     1      -4.583  10.967  17.489  0.00  0.00    +0.000 C 
BRANCH  32  34
ATOM     33  C   UNL     1      -5.978  12.318  19.073  0.00  0.00    +0.000 C 
ATOM     34  C   UNL     1      -4.570  11.860  18.724  0.00  0.00    +0.000 C 
ENDBRANCH  32  34
ENDBRANCH  31  32
ENDBRANCH  30  31
ENDBRANCH  26  30
ENDBRANCH  25  27
BRANCH  25  35
ATOM     35  N   UNL     1       1.266  12.170  19.754  0.00  0.00    +0.000 NA
ATOM     36  H   UNL     1       0.852  12.986  19.301  0.00  0.00    +0.000 HD
ATOM     37  H   UNL     1       2.272  12.278  19.643  0.00  0.00    +0.000 HD
ENDBRANCH  25  35
ENDBRANCH  24  25
ENDBRANCH   1  24
TORSDOF 14
ENDMDL
MODEL 4
REMARK VINA RESULT:      -7.1      1.142      1.827
REMARK  Name = 
REMARK  15 active torsions:
REMARK  status: ('A' for Active; 'I' for Inactive)
REMARK    1  A    between atoms: C_1  and  C_2
REMARK    2  A    between atoms: C_2  and  C_3
REMARK    3  A    between atoms: C_3  and  C_4
REMARK    4  A    between atoms: C_4  and  C_5
REMARK    5  A    between atoms: C_5  and  N_6
REMARK    6  A    between atoms: C_7  and  C_9
REMARK    7  A    between atoms: C_9  and  N_10
REMARK    8  A    between atoms: C_9  and  C_11
REMARK    9  A    between atoms: C_11  and  C_12
REMARK   10  A    between atoms: C_15  and  N_16
REMARK   11  A    between atoms: N_16  and  C_22
REMARK   12  A    between atoms: C_17  and  C_19
REMARK   13  A    between atoms: C_19  and  O_21
REMARK   14  A    between atoms: C_27  and  C_28
REMARK   15  A    between atoms: C_28  and  O_30
REMARK                            x       y       z     vdW  Elec       q    Type
REMARK                         _______ _______ _______ _____ _____    ______ ____
ROOT
ATOM      1  C   UNL     1       1.351   8.355  19.740  0.00  0.00    +0.000 A 
ATOM      2  C   UNL     1       1.582   7.243  20.561  0.00  0.00    +0.000 A 
ATOM      3  C   UNL     1       2.432   6.193  20.176  0.00  0.00    +0.000 A 
ATOM      4  C   UNL     1       3.009   6.189  18.909  0.00  0.00    +0.000 A 
ATOM      5  C   UNL     1       2.784   7.300  18.075  0.00  0.00    +0.000 A 
ATOM      6  C   UNL     1       1.969   8.370  18.484  0.00  0.00    +0.000 A 
ENDROOT
BRANCH   4   7
ATOM      7  N   UNL     1       3.832   5.110  18.457  0.00  0.00    +0.000 N 
ATOM      8  C   UNL     1       3.429   3.757  18.467  0.00  0.00    +0.000 C 
ATOM      9  O   UNL     1       4.164   2.801  18.678  0.00  0.00    +0.000 OA
BRANCH   7  10
ATOM     10  C   UNL     1       5.239   5.379  18.391  0.00  0.00    +0.000 A 
ATOM     11  C   UNL     1       5.986   5.424  19.588  0.00  0.00    +0.000 A 
ATOM     12  C   UNL     1       7.361   5.683  19.565  0.00  0.00    +0.000 A 
ATOM     13  C   UNL     1       8.011   5.893  18.358  0.00  0.00    +0.000 A 
ATOM     14  C   UNL     1       7.296   5.820  17.163  0.00  0.00    +0.000 A 
ATOM     15  C   UNL     1       5.909   5.574  17.163  0.00  0.00    +0.000 A 
BRANCH  15  16
ATOM     16  C   UNL     1       5.190   5.568  15.856  0.00  0.00    +0.000 C 
ATOM     17  O   UNL     1       4.710   4.573  15.339  0.00  0.00    +0.000 OA
BRANCH  16  18
ATOM     18  O   UNL     1       5.059   6.784  15.274  0.00  0.00    +0.000 OA
ATOM     19  H   UNL     1       5.010   7.558  15.864  0.00  0.00    +0.000 HD
ENDBRANCH  16  18
ENDBRANCH  15  16
ENDBRANCH   7  10
BRANCH   8  20
ATOM     20  C   UNL     1       2.014   3.472  17.920  0.00  0.00    +0.000 C 
ATOM     21  O   UNL     1       1.626   3.870  16.827  0.00  0.00    +0.000 OA
BRANCH  20  22
ATOM     22  O   UNL     1       1.243   2.839  18.814  0.00  0.00    +0.000 OA
ATOM     23  H   UNL     1       0.584   3.447  19.247  0.00  0.00    +0.000 HD
ENDBRANCH  20  22
ENDBRANCH   8  20
ENDBRANCH   4   7
BRANCH   1  24
ATOM     24  C   UNL     1       0.446   9.479  20.205  0.00  0.00    +0.000 C 
BRANCH  24  25
ATOM     25  C   UNL     1       1.057  10.900  20.102  0.00  0.00    +0.000 C 
BRANCH  25  27
ATOM     26  N   UNL     1      -1.221  11.503  19.462  0.00  0.00    +0.000 N 
ATOM     27  C   UNL     1       0.118  11.834  19.310  0.00  0.00    +0.000 C 
ATOM     28  O   UNL     1       0.505  12.736  18.578  0.00  0.00    +0.000 OA
ATOM     29  H   UNL     1      -1.487  10.822  20.161  0.00  0.00    +0.000 HD
BRANCH  26  30
ATOM     30  C   UNL     1      -2.253  12.204  18.735  0.00  0.00    +0.000 C 
BRANCH  30  31
ATOM     31  C   UNL     1      -3.324  11.252  18.203  0.00  0.00    +0.000 C 
BRANCH  31  32
ATOM     32  C   UNL     1      -2.691   9.907  17.853  0.00  0.00    +0.000 C 
BRANCH  32  34
ATOM     33  C   UNL     1      -3.184  10.037  15.400  0.00  0.00    +0.000 C 
ATOM     34  C   UNL     1      -2.093   9.902  16.451  0.00  0.00    +0.000 C 
ENDBRANCH  32  34
ENDBRANCH  31  32
ENDBRANCH  30  31
ENDBRANCH  26  30
ENDBRANCH  25  27
BRANCH  25  35
ATOM     35  N   UNL     1       1.310  11.546  21.419  0.00  0.00    +0.000 NA
ATOM     36  H   UNL     1       1.932  10.939  21.953  0.00  0.00    +0.000 HD
ATOM     37  H   UNL     1       0.446  11.590  21.955  0.00  0.00    +0.000 HD
ENDBRANCH  25  35
ENDBRANCH  24  25
ENDBRANCH   1  24
TORSDOF 14
ENDMDL
MODEL 5
REMARK VINA RESULT:      -7.1      0.670      1.097
REMARK  Name = 
REMARK  15 active torsions:
REMARK  status: ('A' for Active; 'I' for Inactive)
REMARK    1  A    between atoms: C_1  and  C_2
REMARK    2  A    between atoms: C_2  and  C_3
REMARK    3  A    between atoms: C_3  and  C_4
REMARK    4  A    between atoms: C_4  and  C_5
REMARK    5  A    between atoms: C_5  and  N_6
REMARK    6  A    between atoms: C_7  and  C_9
REMARK    7  A    between atoms: C_9  and  N_10
REMARK    8  A    between atoms: C_9  and  C_11
REMARK    9  A    between atoms: C_11  and  C_12
REMARK   10  A    between atoms: C_15  and  N_16
REMARK   11  A    between atoms: N_16  and  C_22
REMARK   12  A    between atoms: C_17  and  C_19
REMARK   13  A    between atoms: C_19  and  O_21
REMARK   14  A    between atoms: C_27  and  C_28
REMARK   15  A    between atoms: C_28  and  O_30
REMARK                            x       y       z     vdW  Elec       q    Type
REMARK                         _______ _______ _______ _____ _____    ______ ____
ROOT
ATOM      1  C   UNL     1       1.796   8.338  19.283  0.00  0.00    +0.000 A 
ATOM      2  C   UNL     1       1.802   7.258  20.177  0.00  0.00    +0.000 A 
ATOM      3  C   UNL     1       2.562   6.101  19.945  0.00  0.00    +0.000 A 
ATOM      4  C   UNL     1       3.274   5.957  18.758  0.00  0.00    +0.000 A 
ATOM      5  C   UNL     1       3.275   7.034  17.851  0.00  0.00    +0.000 A 
ATOM      6  C   UNL     1       2.549   8.209  18.111  0.00  0.00    +0.000 A 
ENDROOT
BRANCH   4   7
ATOM      7  N   UNL     1       4.010   4.768  18.457  0.00  0.00    +0.000 N 
ATOM      8  C   UNL     1       3.483   3.464  18.579  0.00  0.00    +0.000 C 
ATOM      9  O   UNL     1       4.116   2.474  18.921  0.00  0.00    +0.000 OA
BRANCH   7  10
ATOM     10  C   UNL     1       5.439   4.903  18.439  0.00  0.00    +0.000 A 
ATOM     11  C   UNL     1       6.107   5.276  19.624  0.00  0.00    +0.000 A 
ATOM     12  C   UNL     1       7.499   5.419  19.647  0.00  0.00    +0.000 A 
ATOM     13  C   UNL     1       8.243   5.186  18.499  0.00  0.00    +0.000 A 
ATOM     14  C   UNL     1       7.603   4.785  17.327  0.00  0.00    +0.000 A 
ATOM     15  C   UNL     1       6.201   4.649  17.277  0.00  0.00    +0.000 A 
BRANCH  15  16
ATOM     16  C   UNL     1       5.571   4.276  15.978  0.00  0.00    +0.000 C 
ATOM     17  O   UNL     1       5.514   3.138  15.543  0.00  0.00    +0.000 OA
BRANCH  16  18
ATOM     18  O   UNL     1       5.006   5.307  15.304  0.00  0.00    +0.000 OA
ATOM     19  H   UNL     1       5.521   6.131  15.236  0.00  0.00    +0.000 HD
ENDBRANCH  16  18
ENDBRANCH  15  16
ENDBRANCH   7  10
BRANCH   8  20
ATOM     20  C   UNL     1       2.073   3.252  17.989  0.00  0.00    +0.000 C 
ATOM     21  O   UNL     1       1.098   2.957  18.672  0.00  0.00    +0.000 OA
BRANCH  20  22
ATOM     22  O   UNL     1       2.067   3.323  16.651  0.00  0.00    +0.000 OA
ATOM     23  H   UNL     1       1.424   2.685  16.238  0.00  0.00    +0.000 HD
ENDBRANCH  20  22
ENDBRANCH   8  20
ENDBRANCH   4   7
BRANCH   1  24
ATOM     24  C   UNL     1       0.981   9.581  19.585  0.00  0.00    +0.000 C 
BRANCH  24  25
ATOM     25  C   UNL     1       0.462  10.345  18.339  0.00  0.00    +0.000 C 
BRANCH  25  27
ATOM     26  N   UNL     1      -1.543  10.201  16.953  0.00  0.00    +0.000 N 
ATOM     27  C   UNL     1      -1.076  10.260  18.258  0.00  0.00    +0.000 C 
ATOM     28  O   UNL     1      -1.817  10.297  19.233  0.00  0.00    +0.000 OA
ATOM     29  H   UNL     1      -0.885  10.063  16.197  0.00  0.00    +0.000 HD
BRANCH  26  30
ATOM     30  C   UNL     1      -2.957  10.202  16.662  0.00  0.00    +0.000 C 
BRANCH  30  31
ATOM     31  C   UNL     1      -3.278  10.986  15.390  0.00  0.00    +0.000 C 
BRANCH  31  32
ATOM     32  C   UNL     1      -3.095  10.085  14.170  0.00  0.00    +0.000 C 
BRANCH  32  34
ATOM     33  C   UNL     1      -4.121   9.733  11.911  0.00  0.00    +0.000 C 
ATOM     34  C   UNL     1      -4.396   9.894  13.398  0.00  0.00    +0.000 C 
ENDBRANCH  32  34
ENDBRANCH  31  32
ENDBRANCH  30  31
ENDBRANCH  26  30
ENDBRANCH  25  27
BRANCH  25  35
ATOM     35  N   UNL     1       0.824  11.788  18.321  0.00  0.00    +0.000 NA
ATOM     36  H   UNL     1       1.711  11.884  17.827  0.00  0.00    +0.000 HD
ATOM     37  H   UNL     1       1.003  12.112  19.269  0.00  0.00    +0.000 HD
ENDBRANCH  25  35
ENDBRANCH  24  25
ENDBRANCH   1  24
TORSDOF 14
ENDMDL
MODEL 6
REMARK VINA RESULT:      -6.9      2.231      8.882
REMARK  Name = 
REMARK  15 active torsions:
REMARK  status: ('A' for Active; 'I' for Inactive)
REMARK    1  A    between atoms: C_1  and  C_2
REMARK    2  A    between atoms: C_2  and  C_3
REMARK    3  A    between atoms: C_3  and  C_4
REMARK    4  A    between atoms: C_4  and  C_5
REMARK    5  A    between atoms: C_5  and  N_6
REMARK    6  A    between atoms: C_7  and  C_9
REMARK    7  A    between atoms: C_9  and  N_10
REMARK    8  A    between atoms: C_9  and  C_11
REMARK    9  A    between atoms: C_11  and  C_12
REMARK   10  A    between atoms: C_15  and  N_16
REMARK   11  A    between atoms: N_16  and  C_22
REMARK   12  A    between atoms: C_17  and  C_19
REMARK   13  A    between atoms: C_19  and  O_21
REMARK   14  A    between atoms: C_27  and  C_28
REMARK   15  A    between atoms: C_28  and  O_30
REMARK                            x       y       z     vdW  Elec       q    Type
REMARK                         _______ _______ _______ _____ _____    ______ ____
ROOT
ATOM      1  C   UNL     1       2.379   7.539  19.018  0.00  0.00    +0.000 A 
ATOM      2  C   UNL     1       2.373   8.384  17.900  0.00  0.00    +0.000 A 
ATOM      3  C   UNL     1       1.747   9.641  17.918  0.00  0.00    +0.000 A 
ATOM      4  C   UNL     1       1.030  10.050  19.039  0.00  0.00    +0.000 A 
ATOM      5  C   UNL     1       1.028   9.209  20.168  0.00  0.00    +0.000 A 
ATOM      6  C   UNL     1       1.695   7.972  20.159  0.00  0.00    +0.000 A 
ENDROOT
BRANCH   4   7
ATOM      7  N   UNL     1       0.328  11.296  19.074  0.00  0.00    +0.000 N 
ATOM      8  C   UNL     1      -0.710  11.639  18.181  0.00  0.00    +0.000 C 
ATOM      9  O   UNL     1      -0.931  12.764  17.751  0.00  0.00    +0.000 OA
BRANCH   7  10
ATOM     10  C   UNL     1       0.988  12.368  19.762  0.00  0.00    +0.000 A 
ATOM     11  C   UNL     1       2.130  12.957  19.179  0.00  0.00    +0.000 A 
ATOM     12  C   UNL     1       2.801  14.005  19.818  0.00  0.00    +0.000 A 
ATOM     13  C   UNL     1       2.345  14.485  21.038  0.00  0.00    +0.000 A 
ATOM     14  C   UNL     1       1.200  13.937  21.614  0.00  0.00    +0.000 A 
ATOM     15  C   UNL     1       0.516  12.872  20.995  0.00  0.00    +0.000 A 
BRANCH  15  16
ATOM     16  C   UNL     1      -0.667  12.288  21.690  0.00  0.00    +0.000 C 
ATOM     17  O   UNL     1      -1.816  12.382  21.291  0.00  0.00    +0.000 OA
BRANCH  16  18
ATOM     18  O   UNL     1      -0.378  11.586  22.812  0.00  0.00    +0.000 OA
ATOM     19  H   UNL     1       0.454  11.077  22.817  0.00  0.00    +0.000 HD
ENDBRANCH  16  18
ENDBRANCH  15  16
ENDBRANCH   7  10
BRANCH   8  20
ATOM     20  C   UNL     1      -1.782  10.554  17.947  0.00  0.00    +0.000 C 
ATOM     21  O   UNL     1      -1.711   9.725  17.046  0.00  0.00    +0.000 OA
BRANCH  20  22
ATOM     22  O   UNL     1      -2.832  10.693  18.768  0.00  0.00    +0.000 OA
ATOM     23  H   UNL     1      -3.630  10.189  18.454  0.00  0.00    +0.000 HD
ENDBRANCH  20  22
ENDBRANCH   8  20
ENDBRANCH   4   7
BRANCH   1  24
ATOM     24  C   UNL     1       3.089   6.199  18.965  0.00  0.00    +0.000 C 
BRANCH  24  25
ATOM     25  C   UNL     1       2.423   5.138  18.051  0.00  0.00    +0.000 C 
BRANCH  25  27
ATOM     26  N   UNL     1       4.657   4.869  17.105  0.00  0.00    +0.000 N 
ATOM     27  C   UNL     1       3.490   4.202  17.447  0.00  0.00    +0.000 C 
ATOM     28  O   UNL     1       3.315   3.009  17.236  0.00  0.00    +0.000 OA
ATOM     29  H   UNL     1       4.787   5.827  17.402  0.00  0.00    +0.000 HD
BRANCH  26  30
ATOM     30  C   UNL     1       5.746   4.185  16.448  0.00  0.00    +0.000 C 
BRANCH  30  31
ATOM     31  C   UNL     1       7.108   4.689  16.923  0.00  0.00    +0.000 C 
BRANCH  31  32
ATOM     32  C   UNL     1       7.140   6.215  16.871  0.00  0.00    +0.000 C 
BRANCH  32  34
ATOM     33  C   UNL     1       7.783   5.766  19.251  0.00  0.00    +0.000 C 
ATOM     34  C   UNL     1       7.683   6.822  18.160  0.00  0.00    +0.000 C 
ENDBRANCH  32  34
ENDBRANCH  31  32
ENDBRANCH  30  31
ENDBRANCH  26  30
ENDBRANCH  25  27
BRANCH  25  35
ATOM     35  N   UNL     1       1.428   4.279  18.748  0.00  0.00    +0.000 NA
ATOM     36  H   UNL     1       1.938   3.546  19.243  0.00  0.00    +0.000 HD
ATOM     37  H   UNL     1       0.849   3.795  18.066  0.00  0.00    +0.000 HD
ENDBRANCH  25  35
ENDBRANCH  24  25
ENDBRANCH   1  24
TORSDOF 14
ENDMDL
MODEL 7
REMARK VINA RESULT:      -6.9      3.024      8.495
REMARK  Name = 
REMARK  15 active torsions:
REMARK  status: ('A' for Active; 'I' for Inactive)
REMARK    1  A    between atoms: C_1  and  C_2
REMARK    2  A    between atoms: C_2  and  C_3
REMARK    3  A    between atoms: C_3  and  C_4
REMARK    4  A    between atoms: C_4  and  C_5
REMARK    5  A    between atoms: C_5  and  N_6
REMARK    6  A    between atoms: C_7  and  C_9
REMARK    7  A    between atoms: C_9  and  N_10
REMARK    8  A    between atoms: C_9  and  C_11
REMARK    9  A    between atoms: C_11  and  C_12
REMARK   10  A    between atoms: C_15  and  N_16
REMARK   11  A    between atoms: N_16  and  C_22
REMARK   12  A    between atoms: C_17  and  C_19
REMARK   13  A    between atoms: C_19  and  O_21
REMARK   14  A    between atoms: C_27  and  C_28
REMARK   15  A    between atoms: C_28  and  O_30
REMARK                            x       y       z     vdW  Elec       q    Type
REMARK                         _______ _______ _______ _____ _____    ______ ____
ROOT
ATOM      1  C   UNL     1       2.399   7.452  18.592  0.00  0.00    +0.000 A 
ATOM      2  C   UNL     1       2.059   7.352  19.948  0.00  0.00    +0.000 A 
ATOM      3  C   UNL     1       1.407   8.389  20.633  0.00  0.00    +0.000 A 
ATOM      4  C   UNL     1       1.154   9.600  19.994  0.00  0.00    +0.000 A 
ATOM      5  C   UNL     1       1.492   9.713  18.632  0.00  0.00    +0.000 A 
ATOM      6  C   UNL     1       2.104   8.654  17.940  0.00  0.00    +0.000 A 
ENDROOT
BRANCH   4   7
ATOM      7  N   UNL     1       0.547  10.702  20.675  0.00  0.00    +0.000 N 
ATOM      8  C   UNL     1      -0.418  10.560  21.696  0.00  0.00    +0.000 C 
ATOM      9  O   UNL     1      -1.357  11.320  21.892  0.00  0.00    +0.000 OA
BRANCH   7  10
ATOM     10  C   UNL     1       0.620  11.969  20.006  0.00  0.00    +0.000 A 
ATOM     11  C   UNL     1       1.707  12.826  20.277  0.00  0.00    +0.000 A 
ATOM     12  C   UNL     1       1.814  14.070  19.645  0.00  0.00    +0.000 A 
ATOM     13  C   UNL     1       0.849  14.475  18.734  0.00  0.00    +0.000 A 
ATOM     14  C   UNL     1      -0.215  13.627  18.429  0.00  0.00    +0.000 A 
ATOM     15  C   UNL     1      -0.350  12.376  19.064  0.00  0.00    +0.000 A 
BRANCH  15  16
ATOM     16  C   UNL     1      -1.543  11.542  18.740  0.00  0.00    +0.000 C 
ATOM     17  O   UNL     1      -1.531  10.591  17.975  0.00  0.00    +0.000 OA
BRANCH  16  18
ATOM     18  O   UNL     1      -2.674  11.886  19.401  0.00  0.00    +0.000 OA
ATOM     19  H   UNL     1      -2.571  12.268  20.292  0.00  0.00    +0.000 HD
ENDBRANCH  16  18
ENDBRANCH  15  16
ENDBRANCH   7  10
BRANCH   8  20
ATOM     20  C   UNL     1      -0.098   9.513  22.783  0.00  0.00    +0.000 C 
ATOM     21  O   UNL     1       0.850   9.615  23.555  0.00  0.00    +0.000 OA
BRANCH  20  22
ATOM     22  O   UNL     1      -0.905   8.446  22.711  0.00  0.00    +0.000 OA
ATOM     23  H   UNL     1      -0.435   7.597  22.932  0.00  0.00    +0.000 HD
ENDBRANCH  20  22
ENDBRANCH   8  20
ENDBRANCH   4   7
BRANCH   1  24
ATOM     24  C   UNL     1       3.081   6.297  17.882  0.00  0.00    +0.000 C 
BRANCH  24  25
ATOM     25  C   UNL     1       4.466   5.900  18.454  0.00  0.00    +0.000 C 
BRANCH  25  27
ATOM     26  N   UNL     1       3.480   3.695  18.101  0.00  0.00    +0.000 N 
ATOM     27  C   UNL     1       4.532   4.378  18.693  0.00  0.00    +0.000 C 
ATOM     28  O   UNL     1       5.386   3.828  19.378  0.00  0.00    +0.000 OA
ATOM     29  H   UNL     1       2.870   4.184  17.460  0.00  0.00    +0.000 HD
BRANCH  26  30
ATOM     30  C   UNL     1       3.315   2.271  18.279  0.00  0.00    +0.000 C 
BRANCH  30  31
ATOM     31  C   UNL     1       2.079   1.938  19.113  0.00  0.00    +0.000 C 
BRANCH  31  32
ATOM     32  C   UNL     1       1.141   3.143  19.149  0.00  0.00    +0.000 C 
BRANCH  32  34
ATOM     33  C   UNL     1       2.061   3.154  21.480  0.00  0.00    +0.000 C 
ATOM     34  C   UNL     1       0.987   3.709  20.556  0.00  0.00    +0.000 C 
ENDBRANCH  32  34
ENDBRANCH  31  32
ENDBRANCH  30  31
ENDBRANCH  26  30
ENDBRANCH  25  27
BRANCH  25  35
ATOM     35  N   UNL     1       5.609   6.257  17.571  0.00  0.00    +0.000 NA
ATOM     36  H   UNL     1       5.426   7.180  17.175  0.00  0.00    +0.000 HD
ATOM     37  H   UNL     1       5.645   5.621  16.777  0.00  0.00    +0.000 HD
ENDBRANCH  25  35
ENDBRANCH  24  25
ENDBRANCH   1  24
TORSDOF 14
ENDMDL
MODEL 8
REMARK VINA RESULT:      -6.9      1.174      1.672
REMARK  Name = 
REMARK  15 active torsions:
REMARK  status: ('A' for Active; 'I' for Inactive)
REMARK    1  A    between atoms: C_1  and  C_2
REMARK    2  A    between atoms: C_2  and  C_3
REMARK    3  A    between atoms: C_3  and  C_4
REMARK    4  A    between atoms: C_4  and  C_5
REMARK    5  A    between atoms: C_5  and  N_6
REMARK    6  A    between atoms: C_7  and  C_9
REMARK    7  A    between atoms: C_9  and  N_10
REMARK    8  A    between atoms: C_9  and  C_11
REMARK    9  A    between atoms: C_11  and  C_12
REMARK   10  A    between atoms: C_15  and  N_16
REMARK   11  A    between atoms: N_16  and  C_22
REMARK   12  A    between atoms: C_17  and  C_19
REMARK   13  A    between atoms: C_19  and  O_21
REMARK   14  A    between atoms: C_27  and  C_28
REMARK   15  A    between atoms: C_28  and  O_30
REMARK                            x       y       z     vdW  Elec       q    Type
REMARK                         _______ _______ _______ _____ _____    ______ ____
ROOT
ATOM      1  C   UNL     1       1.490   7.557  20.171  0.00  0.00    +0.000 A 
ATOM      2  C   UNL     1       2.194   7.755  18.976  0.00  0.00    +0.000 A 
ATOM      3  C   UNL     1       2.969   6.741  18.389  0.00  0.00    +0.000 A 
ATOM      4  C   UNL     1       3.130   5.520  19.037  0.00  0.00    +0.000 A 
ATOM      5  C   UNL     1       2.429   5.310  20.239  0.00  0.00    +0.000 A 
ATOM      6  C   UNL     1       1.618   6.313  20.798  0.00  0.00    +0.000 A 
ENDROOT
BRANCH   4   7
ATOM      7  N   UNL     1       3.960   4.484  18.502  0.00  0.00    +0.000 N 
ATOM      8  C   UNL     1       3.565   3.133  18.401  0.00  0.00    +0.000 C 
ATOM      9  O   UNL     1       4.305   2.167  18.537  0.00  0.00    +0.000 OA
BRANCH   7  10
ATOM     10  C   UNL     1       5.366   4.766  18.462  0.00  0.00    +0.000 A 
ATOM     11  C   UNL     1       6.005   5.233  19.631  0.00  0.00    +0.000 A 
ATOM     12  C   UNL     1       7.375   5.518  19.633  0.00  0.00    +0.000 A 
ATOM     13  C   UNL     1       8.127   5.338  18.481  0.00  0.00    +0.000 A 
ATOM     14  C   UNL     1       7.520   4.846  17.326  0.00  0.00    +0.000 A 
ATOM     15  C   UNL     1       6.139   4.565  17.297  0.00  0.00    +0.000 A 
BRANCH  15  16
ATOM     16  C   UNL     1       5.537   4.100  16.015  0.00  0.00    +0.000 C 
ATOM     17  O   UNL     1       4.926   4.819  15.240  0.00  0.00    +0.000 OA
BRANCH  16  18
ATOM     18  O   UNL     1       5.752   2.794  15.727  0.00  0.00    +0.000 OA
ATOM     19  H   UNL     1       6.674   2.514  15.587  0.00  0.00    +0.000 HD
ENDBRANCH  16  18
ENDBRANCH  15  16
ENDBRANCH   7  10
BRANCH   8  20
ATOM     20  C   UNL     1       2.154   2.885  17.828  0.00  0.00    +0.000 C 
ATOM     21  O   UNL     1       1.622   3.629  17.010  0.00  0.00    +0.000 OA
BRANCH  20  22
ATOM     22  O   UNL     1       1.550   1.836  18.403  0.00  0.00    +0.000 OA
ATOM     23  H   UNL     1       0.707   2.089  18.868  0.00  0.00    +0.000 HD
ENDBRANCH  20  22
ENDBRANCH   8  20
ENDBRANCH   4   7
BRANCH   1  24
ATOM     24  C   UNL     1       0.644   8.671  20.758  0.00  0.00    +0.000 C 
BRANCH  24  25
ATOM     25  C   UNL     1       1.229  10.097  20.594  0.00  0.00    +0.000 C 
BRANCH  25  27
ATOM     26  N   UNL     1      -0.705  10.400  19.136  0.00  0.00    +0.000 N 
ATOM     27  C   UNL     1       0.603  10.798  19.372  0.00  0.00    +0.000 C 
ATOM     28  O   UNL     1       1.205  11.581  18.647  0.00  0.00    +0.000 OA
ATOM     29  H   UNL     1      -1.184   9.838  19.826  0.00  0.00    +0.000 HD
BRANCH  26  30
ATOM     30  C   UNL     1      -1.439  10.878  17.987  0.00  0.00    +0.000 C 
BRANCH  30  31
ATOM     31  C   UNL     1      -2.945  10.906  18.243  0.00  0.00    +0.000 C 
BRANCH  31  32
ATOM     32  C   UNL     1      -3.695  10.702  16.928  0.00  0.00    +0.000 C 
BRANCH  32  34
ATOM     33  C   UNL     1      -3.087  10.176  14.554  0.00  0.00    +0.000 C 
ATOM     34  C   UNL     1      -2.975   9.727  16.003  0.00  0.00    +0.000 C 
ENDBRANCH  32  34
ENDBRANCH  31  32
ENDBRANCH  30  31
ENDBRANCH  26  30
ENDBRANCH  25  27
BRANCH  25  35
ATOM     35  N   UNL     1       1.005  10.981  21.770  0.00  0.00    +0.000 NA
ATOM     36  H   UNL     1       0.723  10.394  22.556  0.00  0.00    +0.000 HD
ATOM     37  H   UNL     1       0.216  11.599  21.594  0.00  0.00    +0.000 HD
ENDBRANCH  25  35
ENDBRANCH  24  25
ENDBRANCH   1  24
TORSDOF 14
ENDMDL
MODEL 9
REMARK VINA RESULT:      -6.9      2.696      4.230
REMARK  Name = 
REMARK  15 active torsions:
REMARK  status: ('A' for Active; 'I' for Inactive)
REMARK    1  A    between atoms: C_1  and  C_2
REMARK    2  A    between atoms: C_2  and  C_3
REMARK    3  A    between atoms: C_3  and  C_4
REMARK    4  A    between atoms: C_4  and  C_5
REMARK    5  A    between atoms: C_5  and  N_6
REMARK    6  A    between atoms: C_7  and  C_9
REMARK    7  A    between atoms: C_9  and  N_10
REMARK    8  A    between atoms: C_9  and  C_11
REMARK    9  A    between atoms: C_11  and  C_12
REMARK   10  A    between atoms: C_15  and  N_16
REMARK   11  A    between atoms: N_16  and  C_22
REMARK   12  A    between atoms: C_17  and  C_19
REMARK   13  A    between atoms: C_19  and  O_21
REMARK   14  A    between atoms: C_27  and  C_28
REMARK   15  A    between atoms: C_28  and  O_30
REMARK                            x       y       z     vdW  Elec       q    Type
REMARK                         _______ _______ _______ _____ _____    ______ ____
ROOT
ATOM      1  C   UNL     1       1.916   8.698  18.722  0.00  0.00    +0.000 A 
ATOM      2  C   UNL     1       1.858   7.776  19.777  0.00  0.00    +0.000 A 
ATOM      3  C   UNL     1       2.563   6.562  19.748  0.00  0.00    +0.000 A 
ATOM      4  C   UNL     1       3.281   6.197  18.613  0.00  0.00    +0.000 A 
ATOM      5  C   UNL     1       3.345   7.113  17.546  0.00  0.00    +0.000 A 
ATOM      6  C   UNL     1       2.675   8.347  17.600  0.00  0.00    +0.000 A 
ENDROOT
BRANCH   4   7
ATOM      7  N   UNL     1       3.962   4.942  18.520  0.00  0.00    +0.000 N 
ATOM      8  C   UNL     1       3.386   3.706  18.884  0.00  0.00    +0.000 C 
ATOM      9  O   UNL     1       3.987   2.767  19.390  0.00  0.00    +0.000 OA
BRANCH   7  10
ATOM     10  C   UNL     1       5.394   5.010  18.455  0.00  0.00    +0.000 A 
ATOM     11  C   UNL     1       6.105   5.563  19.542  0.00  0.00    +0.000 A 
ATOM     12  C   UNL     1       7.501   5.646  19.516  0.00  0.00    +0.000 A 
ATOM     13  C   UNL     1       8.208   5.176  18.419  0.00  0.00    +0.000 A 
ATOM     14  C   UNL     1       7.525   4.596  17.350  0.00  0.00    +0.000 A 
ATOM     15  C   UNL     1       6.118   4.515  17.348  0.00  0.00    +0.000 A 
BRANCH  15  16
ATOM     16  C   UNL     1       5.443   3.940  16.149  0.00  0.00    +0.000 C 
ATOM     17  O   UNL     1       5.329   4.517  15.080  0.00  0.00    +0.000 OA
BRANCH  16  18
ATOM     18  O   UNL     1       4.985   2.675  16.308  0.00  0.00    +0.000 OA
ATOM     19  H   UNL     1       5.557   1.951  15.996  0.00  0.00    +0.000 HD
ENDBRANCH  16  18
ENDBRANCH  15  16
ENDBRANCH   7  10
BRANCH   8  20
ATOM     20  C   UNL     1       1.955   3.453  18.365  0.00  0.00    +0.000 C 
ATOM     21  O   UNL     1       0.985   3.332  19.106  0.00  0.00    +0.000 OA
BRANCH  20  22
ATOM     22  O   UNL     1       1.921   3.278  17.037  0.00  0.00    +0.000 OA
ATOM     23  H   UNL     1       2.216   4.087  16.539  0.00  0.00    +0.000 HD
ENDBRANCH  20  22
ENDBRANCH   8  20
ENDBRANCH   4   7
BRANCH   1  24
ATOM     24  C   UNL     1       1.159  10.010  18.805  0.00  0.00    +0.000 C 
BRANCH  24  25
ATOM     25  C   UNL     1      -0.144   9.965  19.645  0.00  0.00    +0.000 C 
BRANCH  25  27
ATOM     26  N   UNL     1      -1.085  11.546  21.249  0.00  0.00    +0.000 N 
ATOM     27  C   UNL     1       0.028  10.775  20.946  0.00  0.00    +0.000 C 
ATOM     28  O   UNL     1       1.052  10.787  21.617  0.00  0.00    +0.000 OA
ATOM     29  H   UNL     1      -1.938  11.413  20.723  0.00  0.00    +0.000 HD
BRANCH  26  30
ATOM     30  C   UNL     1      -1.091  12.441  22.382  0.00  0.00    +0.000 C 
BRANCH  30  31
ATOM     31  C   UNL     1      -2.136  12.040  23.422  0.00  0.00    +0.000 C 
BRANCH  31  32
ATOM     32  C   UNL     1      -3.509  12.559  22.999  0.00  0.00    +0.000 C 
BRANCH  32  34
ATOM     33  C   UNL     1      -3.355  14.333  24.763  0.00  0.00    +0.000 C 
ATOM     34  C   UNL     1      -4.235  13.258  24.144  0.00  0.00    +0.000 C 
ENDBRANCH  32  34
ENDBRANCH  31  32
ENDBRANCH  30  31
ENDBRANCH  26  30
ENDBRANCH  25  27
BRANCH  25  35
ATOM     35  N   UNL     1      -1.336  10.512  18.941  0.00  0.00    +0.000 NA
ATOM     36  H   UNL     1      -2.065  10.672  19.637  0.00  0.00    +0.000 HD
ATOM     37  H   UNL     1      -1.714   9.813  18.306  0.00  0.00    +0.000 HD
ENDBRANCH  25  35
ENDBRANCH  24  25
ENDBRANCH   1  24
TORSDOF 14
ENDMDL
