MODEL 1
REMARK VINA RESULT:      -9.7      0.000      0.000
REMARK  Name = 
REMARK  8 active torsions:
REMARK  status: ('A' for Active; 'I' for Inactive)
REMARK    1  A    between atoms: C_1  and  C_2
REMARK    2  A    between atoms: C_2  and  C_3
REMARK    3  A    between atoms: C_2  and  C_4
REMARK    4  A    between atoms: C_2  and  C_5
REMARK    5  A    between atoms: C_8  and  C_9
REMARK    6  A    between atoms: N_11  and  C_12
REMARK    7  A    between atoms: C_14  and  N_15
REMARK    8  A    between atoms: N_15  and  C_16
REMARK                            x       y       z     vdW  Elec       q    Type
REMARK                         _______ _______ _______ _____ _____    ______ ____
ROOT
ATOM      1  C   UNL     1       2.711   5.085  20.071  0.00  0.00    +0.000 A 
ATOM      2  C   UNL     1       4.022   4.983  19.614  0.00  0.00    +0.000 A 
ATOM      3  C   UNL     1       4.537   3.794  19.086  0.00  0.00    +0.000 A 
ATOM      4  C   UNL     1       3.788   2.625  19.223  0.00  0.00    +0.000 A 
ATOM      5  C   UNL     1       2.497   2.684  19.757  0.00  0.00    +0.000 A 
ATOM      6  C   UNL     1       1.960   3.913  20.150  0.00  0.00    +0.000 A 
ATOM      7  F   UNL     1       0.694   3.959  20.589  0.00  0.00    +0.000 F 
ENDROOT
BRANCH   1  10
ATOM      8  C   UNL     1       2.075   7.427  19.565  0.00  0.00    +0.000 C 
ATOM      9  O   UNL     1       2.523   7.485  18.424  0.00  0.00    +0.000 OA
ATOM     10  N   UNL     1       2.129   6.333  20.415  0.00  0.00    +0.000 N 
ATOM     11  H   UNL     1       1.551   6.339  21.248  0.00  0.00    +0.000 HD
BRANCH   8  15
ATOM     12  C   UNL     1      -0.132  10.784  21.098  0.00  0.00    +0.000 A 
ATOM     13  C   UNL     1       0.185   9.669  21.888  0.00  0.00    +0.000 A 
ATOM     14  C   UNL     1       0.917   8.603  21.370  0.00  0.00    +0.000 A 
ATOM     15  C   UNL     1       1.353   8.623  20.043  0.00  0.00    +0.000 A 
ATOM     16  C   UNL     1       1.038   9.704  19.225  0.00  0.00    +0.000 A 
ATOM     17  C   UNL     1       0.295  10.771  19.752  0.00  0.00    +0.000 A 
BRANCH  12  19
ATOM     18  C   UNL     1      -2.107  12.412  20.810  0.00  0.00    +0.000 C 
ATOM     19  C   UNL     1      -0.899  11.985  21.677  0.00  0.00    +0.000 C 
ATOM     20  C   UNL     1       0.026  13.212  21.805  0.00  0.00    +0.000 C 
ATOM     21  C   UNL     1      -1.450  11.618  23.072  0.00  0.00    +0.000 C 
ENDBRANCH  12  19
ENDBRANCH   8  15
ENDBRANCH   1  10
BRANCH   3  22
ATOM     22  N   UNL     1       5.827   3.751  18.495  0.00  0.00    +0.000 N 
ATOM     23  H   UNL     1       6.491   4.118  19.177  0.00  0.00    +0.000 HD
BRANCH  22  24
ATOM     24  C   UNL     1       6.145   4.268  17.209  0.00  0.00    +0.000 A 
ATOM     25  C   UNL     1       7.190   5.168  16.975  0.00  0.00    +0.000 A 
ATOM     26  C   UNL     1       7.622   5.453  15.672  0.00  0.00    +0.000 A 
ATOM     27  C   UNL     1       6.942   4.877  14.572  0.00  0.00    +0.000 A 
ATOM     28  C   UNL     1       5.751   4.186  14.796  0.00  0.00    +0.000 A 
ATOM     29  C   UNL     1       5.362   3.905  16.121  0.00  0.00    +0.000 A 
ATOM     30  C   UNL     1       4.780   3.681  13.716  0.00  0.00    +0.000 C 
ATOM     31  C   UNL     1       4.883   3.264  12.242  0.00  0.00    +0.000 C 
ATOM     32  C   UNL     1       6.063   3.820  11.473  0.00  0.00    +0.000 C 
ATOM     33  C   UNL     1       7.372   3.810  12.247  0.00  0.00    +0.000 C 
ATOM     34  C   UNL     1       7.549   4.982  13.210  0.00  0.00    +0.000 C 
ATOM     35  O   UNL     1       8.264   5.943  12.919  0.00  0.00    +0.000 OA
ENDBRANCH  22  24
ENDBRANCH   3  22
TORSDOF 5
ENDMDL
MODEL 2
REMARK VINA RESULT:      -9.6      0.187      1.143
REMARK  Name = 
REMARK  8 active torsions:
REMARK  status: ('A' for Active; 'I' for Inactive)
REMARK    1  A    between atoms: C_1  and  C_2
REMARK    2  A    between atoms: C_2  and  C_3
REMARK    3  A    between atoms: C_2  and  C_4
REMARK    4  A    between atoms: C_2  and  C_5
REMARK    5  A    between atoms: C_8  and  C_9
REMARK    6  A    between atoms: N_11  and  C_12
REMARK    7  A    between atoms: C_14  and  N_15
REMARK    8  A    between atoms: N_15  and  C_16
REMARK                            x       y       z     vdW  Elec       q    Type
REMARK                         _______ _______ _______ _____ _____    ______ ____
ROOT
ATOM      1  C   UNL     1       2.592   4.954  20.052  0.00  0.00    +0.000 A 
ATOM      2  C   UNL     1       3.914   4.862  19.624  0.00  0.00    +0.000 A 
ATOM      3  C   UNL     1       4.425   3.703  19.029  0.00  0.00    +0.000 A 
ATOM      4  C   UNL     1       3.655   2.541  19.064  0.00  0.00    +0.000 A 
ATOM      5  C   UNL     1       2.351   2.584  19.566  0.00  0.00    +0.000 A 
ATOM      6  C   UNL     1       1.822   3.792  20.029  0.00  0.00    +0.000 A 
ATOM      7  F   UNL     1       0.545   3.829  20.436  0.00  0.00    +0.000 F 
ENDROOT
BRANCH   1  10
ATOM      8  C   UNL     1       2.027   7.342  19.704  0.00  0.00    +0.000 C 
ATOM      9  O   UNL     1       2.529   7.478  18.592  0.00  0.00    +0.000 OA
ATOM     10  N   UNL     1       2.020   6.185  20.467  0.00  0.00    +0.000 N 
ATOM     11  H   UNL     1       1.405   6.139  21.271  0.00  0.00    +0.000 HD
BRANCH   8  15
ATOM     12  C   UNL     1       0.018  10.873  21.113  0.00  0.00    +0.000 A 
ATOM     13  C   UNL     1       0.349  10.684  19.763  0.00  0.00    +0.000 A 
ATOM     14  C   UNL     1       0.983   9.522  19.332  0.00  0.00    +0.000 A 
ATOM     15  C   UNL     1       1.307   8.513  20.242  0.00  0.00    +0.000 A 
ATOM     16  C   UNL     1       1.013   8.676  21.592  0.00  0.00    +0.000 A 
ATOM     17  C   UNL     1       0.379   9.852  22.020  0.00  0.00    +0.000 A 
BRANCH  12  19
ATOM     18  C   UNL     1      -1.307  11.994  23.016  0.00  0.00    +0.000 C 
ATOM     19  C   UNL     1      -0.726  12.133  21.589  0.00  0.00    +0.000 C 
ATOM     20  C   UNL     1      -1.901  12.460  20.647  0.00  0.00    +0.000 C 
ATOM     21  C   UNL     1       0.252  13.327  21.612  0.00  0.00    +0.000 C 
ENDBRANCH  12  19
ENDBRANCH   8  15
ENDBRANCH   1  10
BRANCH   3  22
ATOM     22  N   UNL     1       5.731   3.679  18.470  0.00  0.00    +0.000 N 
ATOM     23  H   UNL     1       6.373   4.045  19.173  0.00  0.00    +0.000 HD
BRANCH  22  24
ATOM     24  C   UNL     1       6.076   4.213  17.199  0.00  0.00    +0.000 A 
ATOM     25  C   UNL     1       7.124   5.120  17.000  0.00  0.00    +0.000 A 
ATOM     26  C   UNL     1       7.584   5.423  15.711  0.00  0.00    +0.000 A 
ATOM     27  C   UNL     1       6.931   4.859  14.589  0.00  0.00    +0.000 A 
ATOM     28  C   UNL     1       5.738   4.162  14.777  0.00  0.00    +0.000 A 
ATOM     29  C   UNL     1       5.320   3.862  16.089  0.00  0.00    +0.000 A 
ATOM     30  C   UNL     1       4.792   3.668  13.669  0.00  0.00    +0.000 C 
ATOM     31  C   UNL     1       4.931   3.270  12.192  0.00  0.00    +0.000 C 
ATOM     32  C   UNL     1       6.126   3.840  11.457  0.00  0.00    +0.000 C 
ATOM     33  C   UNL     1       7.417   3.823  12.261  0.00  0.00    +0.000 C 
ATOM     34  C   UNL     1       7.569   4.983  13.242  0.00  0.00    +0.000 C 
ATOM     35  O   UNL     1       8.287   5.950  12.980  0.00  0.00    +0.000 OA
ENDBRANCH  22  24
ENDBRANCH   3  22
TORSDOF 5
ENDMDL
MODEL 3
REMARK VINA RESULT:      -8.8      3.968     12.084
REMARK  Name = 
REMARK  8 active torsions:
REMARK  status: ('A' for Active; 'I' for Inactive)
REMARK    1  A    between atoms: C_1  and  C_2
REMARK    2  A    between atoms: C_2  and  C_3
REMARK    3  A    between atoms: C_2  and  C_4
REMARK    4  A    between atoms: C_2  and  C_5
REMARK    5  A    between atoms: C_8  and  C_9
REMARK    6  A    between atoms: N_11  and  C_12
REMARK    7  A    between atoms: C_14  and  N_15
REMARK    8  A    between atoms: N_15  and  C_16
REMARK                            x       y       z     vdW  Elec       q    Type
REMARK                         _______ _______ _______ _____ _____    ______ ____
ROOT
ATOM      1  C   UNL     1       1.010  11.217  18.707  0.00  0.00    +0.000 A 
ATOM      2  C   UNL     1      -0.322  11.477  19.019  0.00  0.00    +0.000 A 
ATOM      3  C   UNL     1      -0.879  12.755  18.903  0.00  0.00    +0.000 A 
ATOM      4  C   UNL     1      -0.026  13.835  18.678  0.00  0.00    +0.000 A 
ATOM      5  C   UNL     1       1.333  13.612  18.443  0.00  0.00    +0.000 A 
ATOM      6  C   UNL     1       1.834  12.308  18.432  0.00  0.00    +0.000 A 
ATOM      7  F   UNL     1       3.126  12.109  18.131  0.00  0.00    +0.000 F 
ENDROOT
BRANCH   1  10
ATOM      8  C   UNL     1       1.527   9.002  19.691  0.00  0.00    +0.000 C 
ATOM      9  O   UNL     1       1.118   9.218  20.827  0.00  0.00    +0.000 OA
ATOM     10  N   UNL     1       1.521   9.895  18.630  0.00  0.00    +0.000 N 
ATOM     11  H   UNL     1       1.696   9.540  17.698  0.00  0.00    +0.000 HD
BRANCH   8  15
ATOM     12  C   UNL     1       2.898   5.050  18.697  0.00  0.00    +0.000 A 
ATOM     13  C   UNL     1       3.018   6.132  17.811  0.00  0.00    +0.000 A 
ATOM     14  C   UNL     1       2.581   7.405  18.167  0.00  0.00    +0.000 A 
ATOM     15  C   UNL     1       2.010   7.633  19.421  0.00  0.00    +0.000 A 
ATOM     16  C   UNL     1       1.858   6.579  20.316  0.00  0.00    +0.000 A 
ATOM     17  C   UNL     1       2.295   5.297  19.949  0.00  0.00    +0.000 A 
BRANCH  12  19
ATOM     18  C   UNL     1       4.277   3.007  19.447  0.00  0.00    +0.000 C 
ATOM     19  C   UNL     1       3.422   3.650  18.329  0.00  0.00    +0.000 C 
ATOM     20  C   UNL     1       4.299   3.712  17.063  0.00  0.00    +0.000 C 
ATOM     21  C   UNL     1       2.227   2.708  18.072  0.00  0.00    +0.000 C 
ENDBRANCH  12  19
ENDBRANCH   8  15
ENDBRANCH   1  10
BRANCH   3  22
ATOM     22  N   UNL     1      -2.271  12.969  19.088  0.00  0.00    +0.000 N 
ATOM     23  H   UNL     1      -2.481  13.917  18.774  0.00  0.00    +0.000 HD
BRANCH  22  24
ATOM     24  C   UNL     1      -2.975  12.710  20.295  0.00  0.00    +0.000 A 
ATOM     25  C   UNL     1      -2.346  12.521  21.531  0.00  0.00    +0.000 A 
ATOM     26  C   UNL     1      -3.083  12.518  22.725  0.00  0.00    +0.000 A 
ATOM     27  C   UNL     1      -4.493  12.635  22.672  0.00  0.00    +0.000 A 
ATOM     28  C   UNL     1      -5.134  12.569  21.436  0.00  0.00    +0.000 A 
ATOM     29  C   UNL     1      -4.358  12.592  20.260  0.00  0.00    +0.000 A 
ATOM     30  C   UNL     1      -6.652  12.468  21.207  0.00  0.00    +0.000 C 
ATOM     31  C   UNL     1      -7.917  12.878  21.976  0.00  0.00    +0.000 C 
ATOM     32  C   UNL     1      -7.761  13.052  23.471  0.00  0.00    +0.000 C 
ATOM     33  C   UNL     1      -6.485  13.769  23.885  0.00  0.00    +0.000 C 
ATOM     34  C   UNL     1      -5.246  12.879  23.941  0.00  0.00    +0.000 C 
ATOM     35  O   UNL     1      -4.809  12.460  25.015  0.00  0.00    +0.000 OA
ENDBRANCH  22  24
ENDBRANCH   3  22
TORSDOF 5
ENDMDL
MODEL 4
REMARK VINA RESULT:      -8.8      4.451      7.219
REMARK  Name = 
REMARK  8 active torsions:
REMARK  status: ('A' for Active; 'I' for Inactive)
REMARK    1  A    between atoms: C_1  and  C_2
REMARK    2  A    between atoms: C_2  and  C_3
REMARK    3  A    between atoms: C_2  and  C_4
REMARK    4  A    between atoms: C_2  and  C_5
REMARK    5  A    between atoms: C_8  and  C_9
REMARK    6  A    between atoms: N_11  and  C_12
REMARK    7  A    between atoms: C_14  and  N_15
REMARK    8  A    between atoms: N_15  and  C_16
REMARK                            x       y       z     vdW  Elec       q    Type
REMARK                         _______ _______ _______ _____ _____    ______ ____
ROOT
ATOM      1  C   UNL     1      -0.015  11.714  19.197  0.00  0.00    +0.000 A 
ATOM      2  C   UNL     1       0.215  10.493  18.569  0.00  0.00    +0.000 A 
ATOM      3  C   UNL     1       1.475  10.133  18.078  0.00  0.00    +0.000 A 
ATOM      4  C   UNL     1       2.472  11.108  18.023  0.00  0.00    +0.000 A 
ATOM      5  C   UNL     1       2.240  12.372  18.573  0.00  0.00    +0.000 A 
ATOM      6  C   UNL     1       1.013  12.655  19.178  0.00  0.00    +0.000 A 
ATOM      7  F   UNL     1       0.837  13.848  19.766  0.00  0.00    +0.000 F 
ENDROOT
BRANCH   1  10
ATOM      8  C   UNL     1      -1.375  12.002  21.249  0.00  0.00    +0.000 C 
ATOM      9  O   UNL     1      -0.499  11.757  22.073  0.00  0.00    +0.000 OA
ATOM     10  N   UNL     1      -1.233  11.996  19.870  0.00  0.00    +0.000 N 
ATOM     11  H   UNL     1      -1.966  12.409  19.306  0.00  0.00    +0.000 HD
BRANCH   8  15
ATOM     12  C   UNL     1      -5.205  13.333  22.682  0.00  0.00    +0.000 A 
ATOM     13  C   UNL     1      -4.823  13.452  21.338  0.00  0.00    +0.000 A 
ATOM     14  C   UNL     1      -3.583  12.996  20.898  0.00  0.00    +0.000 A 
ATOM     15  C   UNL     1      -2.687  12.407  21.793  0.00  0.00    +0.000 A 
ATOM     16  C   UNL     1      -3.025  12.292  23.138  0.00  0.00    +0.000 A 
ATOM     17  C   UNL     1      -4.274  12.758  23.575  0.00  0.00    +0.000 A 
BRANCH  12  19
ATOM     18  C   UNL     1      -6.594  15.232  23.730  0.00  0.00    +0.000 C 
ATOM     19  C   UNL     1      -6.592  13.791  23.166  0.00  0.00    +0.000 C 
ATOM     20  C   UNL     1      -7.113  12.864  24.282  0.00  0.00    +0.000 C 
ATOM     21  C   UNL     1      -7.581  13.765  21.982  0.00  0.00    +0.000 C 
ENDBRANCH  12  19
ENDBRANCH   8  15
ENDBRANCH   1  10
BRANCH   3  22
ATOM     22  N   UNL     1       1.721   8.830  17.571  0.00  0.00    +0.000 N 
ATOM     23  H   UNL     1       0.974   8.609  16.913  0.00  0.00    +0.000 HD
BRANCH  22  24
ATOM     24  C   UNL     1       1.990   7.687  18.374  0.00  0.00    +0.000 A 
ATOM     25  C   UNL     1       1.963   7.703  19.773  0.00  0.00    +0.000 A 
ATOM     26  C   UNL     1       1.986   6.510  20.511  0.00  0.00    +0.000 A 
ATOM     27  C   UNL     1       2.111   5.275  19.831  0.00  0.00    +0.000 A 
ATOM     28  C   UNL     1       2.391   5.276  18.465  0.00  0.00    +0.000 A 
ATOM     29  C   UNL     1       2.340   6.494  17.758  0.00  0.00    +0.000 A 
ATOM     30  C   UNL     1       2.763   4.050  17.615  0.00  0.00    +0.000 C 
ATOM     31  C   UNL     1       2.507   2.537  17.682  0.00  0.00    +0.000 C 
ATOM     32  C   UNL     1       2.180   1.976  19.050  0.00  0.00    +0.000 C 
ATOM     33  C   UNL     1       1.227   2.837  19.865  0.00  0.00    +0.000 C 
ATOM     34  C   UNL     1       1.888   4.006  20.590  0.00  0.00    +0.000 C 
ATOM     35  O   UNL     1       2.134   3.951  21.797  0.00  0.00    +0.000 OA
ENDBRANCH  22  24
ENDBRANCH   3  22
TORSDOF 5
ENDMDL
MODEL 5
REMARK VINA RESULT:      -8.7      4.167     12.584
REMARK  Name = 
REMARK  8 active torsions:
REMARK  status: ('A' for Active; 'I' for Inactive)
REMARK    1  A    between atoms: C_1  and  C_2
REMARK    2  A    between atoms: C_2  and  C_3
REMARK    3  A    between atoms: C_2  and  C_4
REMARK    4  A    between atoms: C_2  and  C_5
REMARK    5  A    between atoms: C_8  and  C_9
REMARK    6  A    between atoms: N_11  and  C_12
REMARK    7  A    between atoms: C_14  and  N_15
REMARK    8  A    between atoms: N_15  and  C_16
REMARK                            x       y       z     vdW  Elec       q    Type
REMARK                         _______ _______ _______ _____ _____    ______ ____
ROOT
ATOM      1  C   UNL     1      -0.147  10.296  19.765  0.00  0.00    +0.000 A 
ATOM      2  C   UNL     1      -0.049  10.945  20.992  0.00  0.00    +0.000 A 
ATOM      3  C   UNL     1      -0.978  11.909  21.402  0.00  0.00    +0.000 A 
ATOM      4  C   UNL     1      -1.896  12.388  20.468  0.00  0.00    +0.000 A 
ATOM      5  C   UNL     1      -1.961  11.811  19.196  0.00  0.00    +0.000 A 
ATOM      6  C   UNL     1      -1.108  10.755  18.865  0.00  0.00    +0.000 A 
ATOM      7  F   UNL     1      -1.237  10.166  17.667  0.00  0.00    +0.000 F 
ENDROOT
BRANCH   1  10
ATOM      8  C   UNL     1       1.702   9.223  18.510  0.00  0.00    +0.000 C 
ATOM      9  O   UNL     1       2.045  10.195  17.844  0.00  0.00    +0.000 OA
ATOM     10  N   UNL     1       0.670   9.183  19.435  0.00  0.00    +0.000 N 
ATOM     11  H   UNL     1       0.614   8.390  20.063  0.00  0.00    +0.000 HD
BRANCH   8  15
ATOM     12  C   UNL     1       4.063   5.639  18.256  0.00  0.00    +0.000 A 
ATOM     13  C   UNL     1       3.098   5.834  19.256  0.00  0.00    +0.000 A 
ATOM     14  C   UNL     1       2.336   6.998  19.303  0.00  0.00    +0.000 A 
ATOM     15  C   UNL     1       2.516   8.002  18.349  0.00  0.00    +0.000 A 
ATOM     16  C   UNL     1       3.478   7.850  17.356  0.00  0.00    +0.000 A 
ATOM     17  C   UNL     1       4.247   6.677  17.318  0.00  0.00    +0.000 A 
BRANCH  12  19
ATOM     18  C   UNL     1       4.658   3.568  16.843  0.00  0.00    +0.000 C 
ATOM     19  C   UNL     1       4.876   4.335  18.169  0.00  0.00    +0.000 C 
ATOM     20  C   UNL     1       4.497   3.379  19.317  0.00  0.00    +0.000 C 
ATOM     21  C   UNL     1       6.381   4.664  18.260  0.00  0.00    +0.000 C 
ENDBRANCH  12  19
ENDBRANCH   8  15
ENDBRANCH   1  10
BRANCH   3  22
ATOM     22  N   UNL     1      -0.942  12.453  22.713  0.00  0.00    +0.000 N 
ATOM     23  H   UNL     1      -0.682  11.701  23.352  0.00  0.00    +0.000 HD
BRANCH  22  24
ATOM     24  C   UNL     1      -1.986  13.221  23.298  0.00  0.00    +0.000 A 
ATOM     25  C   UNL     1      -1.839  14.560  23.680  0.00  0.00    +0.000 A 
ATOM     26  C   UNL     1      -2.952  15.343  24.016  0.00  0.00    +0.000 A 
ATOM     27  C   UNL     1      -4.238  14.750  24.040  0.00  0.00    +0.000 A 
ATOM     28  C   UNL     1      -4.350  13.366  23.907  0.00  0.00    +0.000 A 
ATOM     29  C   UNL     1      -3.210  12.618  23.551  0.00  0.00    +0.000 A 
ATOM     30  C   UNL     1      -5.629  12.537  24.116  0.00  0.00    +0.000 C 
ATOM     31  C   UNL     1      -7.140  12.789  24.017  0.00  0.00    +0.000 C 
ATOM     32  C   UNL     1      -7.586  14.229  24.152  0.00  0.00    +0.000 C 
ATOM     33  C   UNL     1      -6.708  15.225  23.410  0.00  0.00    +0.000 C 
ATOM     34  C   UNL     1      -5.439  15.632  24.155  0.00  0.00    +0.000 C 
ATOM     35  O   UNL     1      -5.365  16.712  24.746  0.00  0.00    +0.000 OA
ENDBRANCH  22  24
ENDBRANCH   3  22
TORSDOF 5
ENDMDL
MODEL 6
REMARK VINA RESULT:      -8.6      4.240     12.046
REMARK  Name = 
REMARK  8 active torsions:
REMARK  status: ('A' for Active; 'I' for Inactive)
REMARK    1  A    between atoms: C_1  and  C_2
REMARK    2  A    between atoms: C_2  and  C_3
REMARK    3  A    between atoms: C_2  and  C_4
REMARK    4  A    between atoms: C_2  and  C_5
REMARK    5  A    between atoms: C_8  and  C_9
REMARK    6  A    between atoms: N_11  and  C_12
REMARK    7  A    between atoms: C_14  and  N_15
REMARK    8  A    between atoms: N_15  and  C_16
REMARK                            x       y       z     vdW  Elec       q    Type
REMARK                         _______ _______ _______ _____ _____    ______ ____
ROOT
ATOM      1  C   UNL     1       1.116  12.024  18.862  0.00  0.00    +0.000 A 
ATOM      2  C   UNL     1      -0.135  12.399  19.344  0.00  0.00    +0.000 A 
ATOM      3  C   UNL     1      -0.572  13.729  19.329  0.00  0.00    +0.000 A 
ATOM      4  C   UNL     1       0.352  14.729  19.025  0.00  0.00    +0.000 A 
ATOM      5  C   UNL     1       1.644  14.384  18.618  0.00  0.00    +0.000 A 
ATOM      6  C   UNL     1       2.006  13.039  18.513  0.00  0.00    +0.000 A 
ATOM      7  F   UNL     1       3.225  12.727  18.049  0.00  0.00    +0.000 F 
ENDROOT
BRANCH   1  10
ATOM      8  C   UNL     1       1.449   9.717  19.705  0.00  0.00    +0.000 C 
ATOM      9  O   UNL     1       1.128   9.912  20.874  0.00  0.00    +0.000 OA
ATOM     10  N   UNL     1       1.479  10.662  18.692  0.00  0.00    +0.000 N 
ATOM     11  H   UNL     1       1.563  10.342  17.734  0.00  0.00    +0.000 HD
BRANCH   8  15
ATOM     12  C   UNL     1       2.447   5.623  18.848  0.00  0.00    +0.000 A 
ATOM     13  C   UNL     1       2.055   6.050  20.126  0.00  0.00    +0.000 A 
ATOM     14  C   UNL     1       1.720   7.379  20.370  0.00  0.00    +0.000 A 
ATOM     15  C   UNL     1       1.768   8.322  19.342  0.00  0.00    +0.000 A 
ATOM     16  C   UNL     1       2.172   7.938  18.067  0.00  0.00    +0.000 A 
ATOM     17  C   UNL     1       2.514   6.598  17.829  0.00  0.00    +0.000 A 
BRANCH  12  19
ATOM     18  C   UNL     1       1.517   3.295  18.254  0.00  0.00    +0.000 C 
ATOM     19  C   UNL     1       2.772   4.147  18.559  0.00  0.00    +0.000 C 
ATOM     20  C   UNL     1       3.480   3.500  19.766  0.00  0.00    +0.000 C 
ATOM     21  C   UNL     1       3.693   4.058  17.324  0.00  0.00    +0.000 C 
ENDBRANCH  12  19
ENDBRANCH   8  15
ENDBRANCH   1  10
BRANCH   3  22
ATOM     22  N   UNL     1      -1.902  14.070  19.690  0.00  0.00    +0.000 N 
ATOM     23  H   UNL     1      -1.951  15.086  19.761  0.00  0.00    +0.000 HD
BRANCH  22  24
ATOM     24  C   UNL     1      -2.619  13.491  20.773  0.00  0.00    +0.000 A 
ATOM     25  C   UNL     1      -2.070  13.292  22.045  0.00  0.00    +0.000 A 
ATOM     26  C   UNL     1      -2.880  12.954  23.139  0.00  0.00    +0.000 A 
ATOM     27  C   UNL     1      -4.265  12.740  22.937  0.00  0.00    +0.000 A 
ATOM     28  C   UNL     1      -4.762  12.690  21.636  0.00  0.00    +0.000 A 
ATOM     29  C   UNL     1      -3.920  13.054  20.566  0.00  0.00    +0.000 A 
ATOM     30  C   UNL     1      -6.182  12.263  21.224  0.00  0.00    +0.000 C 
ATOM     31  C   UNL     1      -7.569  12.253  21.882  0.00  0.00    +0.000 C 
ATOM     32  C   UNL     1      -7.589  12.257  23.396  0.00  0.00    +0.000 C 
ATOM     33  C   UNL     1      -6.573  13.194  24.030  0.00  0.00    +0.000 C 
ATOM     34  C   UNL     1      -5.160  12.625  24.130  0.00  0.00    +0.000 C 
ATOM     35  O   UNL     1      -4.725  12.181  25.195  0.00  0.00    +0.000 OA
ENDBRANCH  22  24
ENDBRANCH   3  22
TORSDOF 5
ENDMDL
MODEL 7
REMARK VINA RESULT:      -8.5      4.459      7.230
REMARK  Name = 
REMARK  8 active torsions:
REMARK  status: ('A' for Active; 'I' for Inactive)
REMARK    1  A    between atoms: C_1  and  C_2
REMARK    2  A    between atoms: C_2  and  C_3
REMARK    3  A    between atoms: C_2  and  C_4
REMARK    4  A    between atoms: C_2  and  C_5
REMARK    5  A    between atoms: C_8  and  C_9
REMARK    6  A    between atoms: N_11  and  C_12
REMARK    7  A    between atoms: C_14  and  N_15
REMARK    8  A    between atoms: N_15  and  C_16
REMARK                            x       y       z     vdW  Elec       q    Type
REMARK                         _______ _______ _______ _____ _____    ______ ____
ROOT
ATOM      1  C   UNL     1       0.093  11.529  19.132  0.00  0.00    +0.000 A 
ATOM      2  C   UNL     1       0.296  10.277  18.558  0.00  0.00    +0.000 A 
ATOM      3  C   UNL     1       1.535   9.889  18.034  0.00  0.00    +0.000 A 
ATOM      4  C   UNL     1       2.527  10.858  17.886  0.00  0.00    +0.000 A 
ATOM      5  C   UNL     1       2.319  12.150  18.378  0.00  0.00    +0.000 A 
ATOM      6  C   UNL     1       1.119  12.466  19.019  0.00  0.00    +0.000 A 
ATOM      7  F   UNL     1       0.968  13.688  19.551  0.00  0.00    +0.000 F 
ENDROOT
BRANCH   1  10
ATOM      8  C   UNL     1      -2.320  12.085  19.235  0.00  0.00    +0.000 C 
ATOM      9  O   UNL     1      -2.553  12.071  18.031  0.00  0.00    +0.000 OA
ATOM     10  N   UNL     1      -1.095  11.848  19.840  0.00  0.00    +0.000 N 
ATOM     11  H   UNL     1      -1.072  11.689  20.840  0.00  0.00    +0.000 HD
BRANCH   8  15
ATOM     12  C   UNL     1      -5.808  12.821  21.641  0.00  0.00    +0.000 A 
ATOM     13  C   UNL     1      -5.889  12.483  20.282  0.00  0.00    +0.000 A 
ATOM     14  C   UNL     1      -4.744  12.233  19.531  0.00  0.00    +0.000 A 
ATOM     15  C   UNL     1      -3.480  12.314  20.120  0.00  0.00    +0.000 A 
ATOM     16  C   UNL     1      -3.361  12.666  21.461  0.00  0.00    +0.000 A 
ATOM     17  C   UNL     1      -4.519  12.922  22.210  0.00  0.00    +0.000 A 
BRANCH  12  19
ATOM     18  C   UNL     1      -6.760  13.485  23.940  0.00  0.00    +0.000 C 
ATOM     19  C   UNL     1      -7.071  13.052  22.488  0.00  0.00    +0.000 C 
ATOM     20  C   UNL     1      -7.917  11.765  22.568  0.00  0.00    +0.000 C 
ATOM     21  C   UNL     1      -7.917  14.175  21.851  0.00  0.00    +0.000 C 
ENDBRANCH  12  19
ENDBRANCH   8  15
ENDBRANCH   1  10
BRANCH   3  22
ATOM     22  N   UNL     1       1.759   8.561  17.586  0.00  0.00    +0.000 N 
ATOM     23  H   UNL     1       0.985   8.308  16.971  0.00  0.00    +0.000 HD
BRANCH  22  24
ATOM     24  C   UNL     1       2.060   7.461  18.435  0.00  0.00    +0.000 A 
ATOM     25  C   UNL     1       1.942   7.506  19.829  0.00  0.00    +0.000 A 
ATOM     26  C   UNL     1       2.007   6.336  20.599  0.00  0.00    +0.000 A 
ATOM     27  C   UNL     1       2.269   5.099  19.963  0.00  0.00    +0.000 A 
ATOM     28  C   UNL     1       2.635   5.091  18.618  0.00  0.00    +0.000 A 
ATOM     29  C   UNL     1       2.538   6.285  17.875  0.00  0.00    +0.000 A 
ATOM     30  C   UNL     1       3.153   3.878  17.827  0.00  0.00    +0.000 C 
ATOM     31  C   UNL     1       3.008   2.352  17.919  0.00  0.00    +0.000 C 
ATOM     32  C   UNL     1       2.636   1.799  19.279  0.00  0.00    +0.000 C 
ATOM     33  C   UNL     1       1.570   2.601  20.008  0.00  0.00    +0.000 C 
ATOM     34  C   UNL     1       2.093   3.834  20.741  0.00  0.00    +0.000 C 
ATOM     35  O   UNL     1       2.263   3.826  21.962  0.00  0.00    +0.000 OA
ENDBRANCH  22  24
ENDBRANCH   3  22
TORSDOF 5
ENDMDL
MODEL 8
REMARK VINA RESULT:      -8.5      5.314      9.692
REMARK  Name = 
REMARK  8 active torsions:
REMARK  status: ('A' for Active; 'I' for Inactive)
REMARK    1  A    between atoms: C_1  and  C_2
REMARK    2  A    between atoms: C_2  and  C_3
REMARK    3  A    between atoms: C_2  and  C_4
REMARK    4  A    between atoms: C_2  and  C_5
REMARK    5  A    between atoms: C_8  and  C_9
REMARK    6  A    between atoms: N_11  and  C_12
REMARK    7  A    between atoms: C_14  and  N_15
REMARK    8  A    between atoms: N_15  and  C_16
REMARK                            x       y       z     vdW  Elec       q    Type
REMARK                         _______ _______ _______ _____ _____    ______ ____
ROOT
ATOM      1  C   UNL     1       1.068  10.910  18.949  0.00  0.00    +0.000 A 
ATOM      2  C   UNL     1       2.053  11.675  18.330  0.00  0.00    +0.000 A 
ATOM      3  C   UNL     1       1.952  13.065  18.210  0.00  0.00    +0.000 A 
ATOM      4  C   UNL     1       0.737  13.674  18.523  0.00  0.00    +0.000 A 
ATOM      5  C   UNL     1      -0.302  12.915  19.070  0.00  0.00    +0.000 A 
ATOM      6  C   UNL     1      -0.119  11.550  19.303  0.00  0.00    +0.000 A 
ATOM      7  F   UNL     1      -1.100  10.854  19.897  0.00  0.00    +0.000 F 
ENDROOT
BRANCH   1  10
ATOM      8  C   UNL     1       1.889   8.637  18.403  0.00  0.00    +0.000 C 
ATOM      9  O   UNL     1       2.350   8.881  17.292  0.00  0.00    +0.000 OA
ATOM     10  N   UNL     1       1.259   9.536  19.249  0.00  0.00    +0.000 N 
ATOM     11  H   UNL     1       1.105   9.267  20.214  0.00  0.00    +0.000 HD
BRANCH   8  15
ATOM     12  C   UNL     1       2.419   4.561  19.667  0.00  0.00    +0.000 A 
ATOM     13  C   UNL     1       2.603   4.965  18.336  0.00  0.00    +0.000 A 
ATOM     14  C   UNL     1       2.442   6.296  17.959  0.00  0.00    +0.000 A 
ATOM     15  C   UNL     1       2.091   7.262  18.904  0.00  0.00    +0.000 A 
ATOM     16  C   UNL     1       1.880   6.893  20.229  0.00  0.00    +0.000 A 
ATOM     17  C   UNL     1       2.039   5.549  20.601  0.00  0.00    +0.000 A 
BRANCH  12  19
ATOM     18  C   UNL     1       4.110   2.639  19.950  0.00  0.00    +0.000 C 
ATOM     19  C   UNL     1       2.641   3.101  20.100  0.00  0.00    +0.000 C 
ATOM     20  C   UNL     1       1.773   2.145  19.259  0.00  0.00    +0.000 C 
ATOM     21  C   UNL     1       2.267   2.947  21.590  0.00  0.00    +0.000 C 
ENDBRANCH  12  19
ENDBRANCH   8  15
ENDBRANCH   1  10
BRANCH   3  22
ATOM     22  N   UNL     1       3.031  13.840  17.706  0.00  0.00    +0.000 N 
ATOM     23  H   UNL     1       3.447  13.321  16.932  0.00  0.00    +0.000 HD
BRANCH  22  24
ATOM     24  C   UNL     1       4.066  14.399  18.503  0.00  0.00    +0.000 A 
ATOM     25  C   UNL     1       3.924  14.682  19.867  0.00  0.00    +0.000 A 
ATOM     26  C   UNL     1       5.037  14.995  20.661  0.00  0.00    +0.000 A 
ATOM     27  C   UNL     1       6.314  15.097  20.059  0.00  0.00    +0.000 A 
ATOM     28  C   UNL     1       6.414  15.064  18.668  0.00  0.00    +0.000 A 
ATOM     29  C   UNL     1       5.276  14.728  17.908  0.00  0.00    +0.000 A 
ATOM     30  C   UNL     1       7.677  15.367  17.843  0.00  0.00    +0.000 C 
ATOM     31  C   UNL     1       9.193  15.294  18.073  0.00  0.00    +0.000 C 
ATOM     32  C   UNL     1       9.652  15.340  19.515  0.00  0.00    +0.000 C 
ATOM     33  C   UNL     1       8.807  14.505  20.465  0.00  0.00    +0.000 C 
ATOM     34  C   UNL     1       7.522  15.184  20.935  0.00  0.00    +0.000 C 
ATOM     35  O   UNL     1       7.444  15.695  22.055  0.00  0.00    +0.000 OA
ENDBRANCH  22  24
ENDBRANCH   3  22
TORSDOF 5
ENDMDL
MODEL 9
REMARK VINA RESULT:      -8.4      4.017     12.015
REMARK  Name = 
REMARK  8 active torsions:
REMARK  status: ('A' for Active; 'I' for Inactive)
REMARK    1  A    between atoms: C_1  and  C_2
REMARK    2  A    between atoms: C_2  and  C_3
REMARK    3  A    between atoms: C_2  and  C_4
REMARK    4  A    between atoms: C_2  and  C_5
REMARK    5  A    between atoms: C_8  and  C_9
REMARK    6  A    between atoms: N_11  and  C_12
REMARK    7  A    between atoms: C_14  and  N_15
REMARK    8  A    between atoms: N_15  and  C_16
REMARK                            x       y       z     vdW  Elec       q    Type
REMARK                         _______ _______ _______ _____ _____    ______ ____
ROOT
ATOM      1  C   UNL     1       0.669  10.608  18.574  0.00  0.00    +0.000 A 
ATOM      2  C   UNL     1      -0.694  10.838  18.742  0.00  0.00    +0.000 A 
ATOM      3  C   UNL     1      -1.265  12.103  18.560  0.00  0.00    +0.000 A 
ATOM      4  C   UNL     1      -0.417  13.202  18.421  0.00  0.00    +0.000 A 
ATOM      5  C   UNL     1       0.965  13.010  18.333  0.00  0.00    +0.000 A 
ATOM      6  C   UNL     1       1.493  11.717  18.383  0.00  0.00    +0.000 A 
ATOM      7  F   UNL     1       2.813  11.547  18.222  0.00  0.00    +0.000 F 
ENDROOT
BRANCH   1  10
ATOM      8  C   UNL     1       1.547   8.582  19.700  0.00  0.00    +0.000 C 
ATOM      9  O   UNL     1       1.436   8.967  20.860  0.00  0.00    +0.000 OA
ATOM     10  N   UNL     1       1.215   9.299  18.560  0.00  0.00    +0.000 N 
ATOM     11  H   UNL     1       1.161   8.805  17.677  0.00  0.00    +0.000 HD
BRANCH   8  15
ATOM     12  C   UNL     1       2.883   4.564  18.953  0.00  0.00    +0.000 A 
ATOM     13  C   UNL     1       3.005   5.586  18.000  0.00  0.00    +0.000 A 
ATOM     14  C   UNL     1       2.580   6.883  18.276  0.00  0.00    +0.000 A 
ATOM     15  C   UNL     1       2.018   7.195  19.516  0.00  0.00    +0.000 A 
ATOM     16  C   UNL     1       1.863   6.201  20.477  0.00  0.00    +0.000 A 
ATOM     17  C   UNL     1       2.289   4.896  20.190  0.00  0.00    +0.000 A 
BRANCH  12  19
ATOM     18  C   UNL     1       2.257   2.098  18.549  0.00  0.00    +0.000 C 
ATOM     19  C   UNL     1       3.394   3.140  18.673  0.00  0.00    +0.000 C 
ATOM     20  C   UNL     1       4.328   2.664  19.803  0.00  0.00    +0.000 C 
ATOM     21  C   UNL     1       4.169   3.128  17.338  0.00  0.00    +0.000 C 
ENDBRANCH  12  19
ENDBRANCH   8  15
ENDBRANCH   1  10
BRANCH   3  22
ATOM     22  N   UNL     1      -2.672  12.285  18.594  0.00  0.00    +0.000 N 
ATOM     23  H   UNL     1      -2.922  12.907  17.825  0.00  0.00    +0.000 HD
BRANCH  22  24
ATOM     24  C   UNL     1      -3.411  12.655  19.751  0.00  0.00    +0.000 A 
ATOM     25  C   UNL     1      -4.760  12.331  19.943  0.00  0.00    +0.000 A 
ATOM     26  C   UNL     1      -5.373  12.495  21.193  0.00  0.00    +0.000 A 
ATOM     27  C   UNL     1      -4.636  13.065  22.259  0.00  0.00    +0.000 A 
ATOM     28  C   UNL     1      -3.382  13.617  22.000  0.00  0.00    +0.000 A 
ATOM     29  C   UNL     1      -2.794  13.414  20.735  0.00  0.00    +0.000 A 
ATOM     30  C   UNL     1      -2.541  14.455  22.977  0.00  0.00    +0.000 C 
ATOM     31  C   UNL     1      -2.410  14.576  24.502  0.00  0.00    +0.000 C 
ATOM     32  C   UNL     1      -3.605  14.119  25.312  0.00  0.00    +0.000 C 
ATOM     33  C   UNL     1      -4.241  12.831  24.812  0.00  0.00    +0.000 C 
ATOM     34  C   UNL     1      -5.204  13.012  23.641  0.00  0.00    +0.000 C 
ATOM     35  O   UNL     1      -6.425  13.003  23.813  0.00  0.00    +0.000 OA
ENDBRANCH  22  24
ENDBRANCH   3  22
TORSDOF 5
ENDMDL
