MODEL 1
REMARK VINA RESULT:      -7.7      0.000      0.000
REMARK  Name = 
REMARK  6 active torsions:
REMARK  status: ('A' for Active; 'I' for Inactive)
REMARK    1  A    between atoms: C_1  and  C_2
REMARK    2  A    between atoms: C_2  and  C_3
REMARK    3  A    between atoms: C_9  and  O_10
REMARK    4  A    between atoms: O_10  and  C_11
REMARK    5  A    between atoms: C_14  and  C_15
REMARK    6  A    between atoms: N_17  and  O_18
REMARK                            x       y       z     vdW  Elec       q    Type
REMARK                         _______ _______ _______ _____ _____    ______ ____
ROOT
ATOM      1  C   UNL     1       2.126   7.724  19.535  0.00  0.00    +0.000 A 
ATOM      2  C   UNL     1       2.147   8.161  18.218  0.00  0.00    +0.000 A 
ATOM      3  C   UNL     1       1.411   9.296  17.884  0.00  0.00    +0.000 A 
ATOM      4  C   UNL     1       0.692   9.965  18.879  0.00  0.00    +0.000 A 
ATOM      5  C   UNL     1       0.683   9.404  20.153  0.00  0.00    +0.000 A 
ATOM      6  N   UNL     1       1.351   8.276  20.496  0.00  0.00    +0.000 NA
ENDROOT
BRANCH   4   7
ATOM      7  C   UNL     1      -0.026  11.248  18.624  0.00  0.00    +0.000 C 
ATOM      8  N   UNL     1       0.676  12.369  18.246  0.00  0.00    +0.000 N 
ATOM      9  N   UNL     1      -1.320  11.279  18.788  0.00  0.00    +0.000 NA
ATOM     10  H   UNL     1       1.534  12.543  18.754  0.00  0.00    +0.000 HD
ATOM     11  H   UNL     1       0.054  13.175  18.284  0.00  0.00    +0.000 HD
BRANCH   9  12
ATOM     12  O   UNL     1      -1.829  12.567  18.558  0.00  0.00    +0.000 OA
ATOM     13  H   UNL     1      -1.489  13.058  19.330  0.00  0.00    +0.000 HD
ENDBRANCH   9  12
ENDBRANCH   4   7
BRANCH   1  14
ATOM     14  O   UNL     1       2.942   6.645  19.843  0.00  0.00    +0.000 OA
BRANCH  14  23
ATOM     15  C   UNL     1       6.825   4.574  17.322  0.00  0.00    +0.000 C 
ATOM     16  C   UNL     1       5.524   5.064  16.672  0.00  0.00    +0.000 C 
ATOM     17  C   UNL     1       5.848   5.962  15.477  0.00  0.00    +0.000 C 
ATOM     18  C   UNL     1       4.612   3.884  16.271  0.00  0.00    +0.000 C 
ATOM     19  C   UNL     1       3.537   4.018  17.282  0.00  0.00    +0.000 A 
ATOM     20  C   UNL     1       2.444   3.195  17.498  0.00  0.00    +0.000 A 
ATOM     21  C   UNL     1       1.532   3.554  18.492  0.00  0.00    +0.000 A 
ATOM     22  C   UNL     1       1.736   4.709  19.263  0.00  0.00    +0.000 A 
ATOM     23  C   UNL     1       2.857   5.522  19.054  0.00  0.00    +0.000 A 
ATOM     24  C   UNL     1       3.728   5.171  18.033  0.00  0.00    +0.000 A 
ATOM     25  O   UNL     1       4.818   5.897  17.627  0.00  0.00    +0.000 OA
ENDBRANCH  14  23
ENDBRANCH   1  14
TORSDOF 4
ENDMDL
MODEL 2
REMARK VINA RESULT:      -7.6      0.769      1.265
REMARK  Name = 
REMARK  6 active torsions:
REMARK  status: ('A' for Active; 'I' for Inactive)
REMARK    1  A    between atoms: C_1  and  C_2
REMARK    2  A    between atoms: C_2  and  C_3
REMARK    3  A    between atoms: C_9  and  O_10
REMARK    4  A    between atoms: O_10  and  C_11
REMARK    5  A    between atoms: C_14  and  C_15
REMARK    6  A    between atoms: N_17  and  O_18
REMARK                            x       y       z     vdW  Elec       q    Type
REMARK                         _______ _______ _______ _____ _____    ______ ____
ROOT
ATOM      1  C   UNL     1       2.097   7.781  19.459  0.00  0.00    +0.000 A 
ATOM      2  C   UNL     1       1.315   8.396  20.428  0.00  0.00    +0.000 A 
ATOM      3  C   UNL     1       0.497   9.457  20.045  0.00  0.00    +0.000 A 
ATOM      4  C   UNL     1       0.474   9.858  18.706  0.00  0.00    +0.000 A 
ATOM      5  C   UNL     1       1.347   9.220  17.829  0.00  0.00    +0.000 A 
ATOM      6  N   UNL     1       2.187   8.217  18.182  0.00  0.00    +0.000 NA
ENDROOT
BRANCH   4   7
ATOM      7  C   UNL     1      -0.457  10.907  18.200  0.00  0.00    +0.000 C 
ATOM      8  N   UNL     1      -1.458  10.576  17.316  0.00  0.00    +0.000 N 
ATOM      9  N   UNL     1      -0.283  12.138  18.600  0.00  0.00    +0.000 NA
ATOM     10  H   UNL     1      -1.192   9.951  16.565  0.00  0.00    +0.000 HD
ATOM     11  H   UNL     1      -1.875  11.432  16.955  0.00  0.00    +0.000 HD
BRANCH   9  12
ATOM     12  O   UNL     1      -1.207  13.003  17.993  0.00  0.00    +0.000 OA
ATOM     13  H   UNL     1      -2.052  12.544  18.159  0.00  0.00    +0.000 HD
ENDBRANCH   9  12
ENDBRANCH   4   7
BRANCH   1  14
ATOM     14  O   UNL     1       2.827   6.673  19.863  0.00  0.00    +0.000 OA
BRANCH  14  23
ATOM     15  C   UNL     1       6.771   4.570  17.468  0.00  0.00    +0.000 C 
ATOM     16  C   UNL     1       5.485   5.046  16.780  0.00  0.00    +0.000 C 
ATOM     17  C   UNL     1       5.834   5.924  15.578  0.00  0.00    +0.000 C 
ATOM     18  C   UNL     1       4.585   3.857  16.378  0.00  0.00    +0.000 C 
ATOM     19  C   UNL     1       3.487   4.005  17.362  0.00  0.00    +0.000 A 
ATOM     20  C   UNL     1       2.391   3.183  17.566  0.00  0.00    +0.000 A 
ATOM     21  C   UNL     1       1.455   3.556  18.533  0.00  0.00    +0.000 A 
ATOM     22  C   UNL     1       1.639   4.725  19.289  0.00  0.00    +0.000 A 
ATOM     23  C   UNL     1       2.762   5.538  19.092  0.00  0.00    +0.000 A 
ATOM     24  C   UNL     1       3.658   5.171  18.097  0.00  0.00    +0.000 A 
ATOM     25  O   UNL     1       4.755   5.893  17.704  0.00  0.00    +0.000 OA
ENDBRANCH  14  23
ENDBRANCH   1  14
TORSDOF 4
ENDMDL
MODEL 3
REMARK VINA RESULT:      -7.6      1.881      2.294
REMARK  Name = 
REMARK  6 active torsions:
REMARK  status: ('A' for Active; 'I' for Inactive)
REMARK    1  A    between atoms: C_1  and  C_2
REMARK    2  A    between atoms: C_2  and  C_3
REMARK    3  A    between atoms: C_9  and  O_10
REMARK    4  A    between atoms: O_10  and  C_11
REMARK    5  A    between atoms: C_14  and  C_15
REMARK    6  A    between atoms: N_17  and  O_18
REMARK                            x       y       z     vdW  Elec       q    Type
REMARK                         _______ _______ _______ _____ _____    ______ ____
ROOT
ATOM      1  C   UNL     1       2.259   8.034  18.879  0.00  0.00    +0.000 A 
ATOM      2  C   UNL     1       1.513   9.159  18.557  0.00  0.00    +0.000 A 
ATOM      3  C   UNL     1       0.740   9.752  19.555  0.00  0.00    +0.000 A 
ATOM      4  C   UNL     1       0.752   9.210  20.843  0.00  0.00    +0.000 A 
ATOM      5  C   UNL     1       1.480   8.040  21.043  0.00  0.00    +0.000 A 
ATOM      6  N   UNL     1       2.202   7.416  20.080  0.00  0.00    +0.000 NA
ENDROOT
BRANCH   4   7
ATOM      7  C   UNL     1       0.043   9.852  21.989  0.00  0.00    +0.000 C 
ATOM      8  N   UNL     1      -0.669   9.082  22.880  0.00  0.00    +0.000 N 
ATOM      9  N   UNL     1       0.101  11.150  22.106  0.00  0.00    +0.000 NA
ATOM     10  H   UNL     1      -1.246   8.358  22.472  0.00  0.00    +0.000 HD
ATOM     11  H   UNL     1      -1.215   9.697  23.481  0.00  0.00    +0.000 HD
BRANCH   9  12
ATOM     12  O   UNL     1      -0.658  11.595  23.200  0.00  0.00    +0.000 OA
ATOM     13  H   UNL     1      -0.969  10.753  23.584  0.00  0.00    +0.000 HD
ENDBRANCH   9  12
ENDBRANCH   4   7
BRANCH   1  14
ATOM     14  O   UNL     1       3.081   7.530  17.882  0.00  0.00    +0.000 OA
BRANCH  14  23
ATOM     15  C   UNL     1       7.292   4.714  17.642  0.00  0.00    +0.000 C 
ATOM     16  C   UNL     1       6.234   4.799  16.534  0.00  0.00    +0.000 C 
ATOM     17  C   UNL     1       6.912   5.071  15.190  0.00  0.00    +0.000 C 
ATOM     18  C   UNL     1       5.360   3.526  16.486  0.00  0.00    +0.000 C 
ATOM     19  C   UNL     1       4.083   4.056  17.018  0.00  0.00    +0.000 A 
ATOM     20  C   UNL     1       2.910   3.374  17.294  0.00  0.00    +0.000 A 
ATOM     21  C   UNL     1       1.811   4.104  17.752  0.00  0.00    +0.000 A 
ATOM     22  C   UNL     1       1.907   5.491  17.946  0.00  0.00    +0.000 A 
ATOM     23  C   UNL     1       3.105   6.170  17.688  0.00  0.00    +0.000 A 
ATOM     24  C   UNL     1       4.171   5.432  17.193  0.00  0.00    +0.000 A 
ATOM     25  O   UNL     1       5.381   5.943  16.798  0.00  0.00    +0.000 OA
ENDBRANCH  14  23
ENDBRANCH   1  14
TORSDOF 4
ENDMDL
MODEL 4
REMARK VINA RESULT:      -7.4      1.325      1.811
REMARK  Name = 
REMARK  6 active torsions:
REMARK  status: ('A' for Active; 'I' for Inactive)
REMARK    1  A    between atoms: C_1  and  C_2
REMARK    2  A    between atoms: C_2  and  C_3
REMARK    3  A    between atoms: C_9  and  O_10
REMARK    4  A    between atoms: O_10  and  C_11
REMARK    5  A    between atoms: C_14  and  C_15
REMARK    6  A    between atoms: N_17  and  O_18
REMARK                            x       y       z     vdW  Elec       q    Type
REMARK                         _______ _______ _______ _____ _____    ______ ____
ROOT
ATOM      1  C   UNL     1       2.395   7.152  19.488  0.00  0.00    +0.000 A 
ATOM      2  C   UNL     1       2.501   7.555  18.164  0.00  0.00    +0.000 A 
ATOM      3  C   UNL     1       1.930   8.771  17.792  0.00  0.00    +0.000 A 
ATOM      4  C   UNL     1       1.286   9.550  18.759  0.00  0.00    +0.000 A 
ATOM      5  C   UNL     1       1.176   9.022  20.042  0.00  0.00    +0.000 A 
ATOM      6  N   UNL     1       1.680   7.823  20.420  0.00  0.00    +0.000 NA
ENDROOT
BRANCH   4   7
ATOM      7  C   UNL     1       0.752  10.911  18.463  0.00  0.00    +0.000 C 
ATOM      8  N   UNL     1      -0.570  11.074  18.115  0.00  0.00    +0.000 N 
ATOM      9  N   UNL     1       1.570  11.927  18.523  0.00  0.00    +0.000 NA
ATOM     10  H   UNL     1      -0.936  10.402  17.453  0.00  0.00    +0.000 HD
ATOM     11  H   UNL     1      -0.708  12.029  17.789  0.00  0.00    +0.000 HD
BRANCH   9  12
ATOM     12  O   UNL     1       0.922  13.121  18.169  0.00  0.00    +0.000 OA
ATOM     13  H   UNL     1       0.091  12.790  17.777  0.00  0.00    +0.000 HD
ENDBRANCH   9  12
ENDBRANCH   4   7
BRANCH   1  14
ATOM     14  O   UNL     1       3.053   5.981  19.834  0.00  0.00    +0.000 OA
BRANCH  14  23
ATOM     15  C   UNL     1       8.051   5.520  19.114  0.00  0.00    +0.000 C 
ATOM     16  C   UNL     1       7.065   6.061  18.070  0.00  0.00    +0.000 C 
ATOM     17  C   UNL     1       7.587   7.381  17.500  0.00  0.00    +0.000 C 
ATOM     18  C   UNL     1       6.793   5.025  16.958  0.00  0.00    +0.000 C 
ATOM     19  C   UNL     1       5.404   4.630  17.292  0.00  0.00    +0.000 A 
ATOM     20  C   UNL     1       4.612   3.662  16.698  0.00  0.00    +0.000 A 
ATOM     21  C   UNL     1       3.305   3.499  17.161  0.00  0.00    +0.000 A 
ATOM     22  C   UNL     1       2.821   4.286  18.219  0.00  0.00    +0.000 A 
ATOM     23  C   UNL     1       3.637   5.246  18.831  0.00  0.00    +0.000 A 
ATOM     24  C   UNL     1       4.918   5.421  18.326  0.00  0.00    +0.000 A 
ATOM     25  O   UNL     1       5.815   6.373  18.737  0.00  0.00    +0.000 OA
ENDBRANCH  14  23
ENDBRANCH   1  14
TORSDOF 4
ENDMDL
MODEL 5
REMARK VINA RESULT:      -7.3      4.236      6.943
REMARK  Name = 
REMARK  6 active torsions:
REMARK  status: ('A' for Active; 'I' for Inactive)
REMARK    1  A    between atoms: C_1  and  C_2
REMARK    2  A    between atoms: C_2  and  C_3
REMARK    3  A    between atoms: C_9  and  O_10
REMARK    4  A    between atoms: O_10  and  C_11
REMARK    5  A    between atoms: C_14  and  C_15
REMARK    6  A    between atoms: N_17  and  O_18
REMARK                            x       y       z     vdW  Elec       q    Type
REMARK                         _______ _______ _______ _____ _____    ______ ____
ROOT
ATOM      1  C   UNL     1       5.560   4.061  18.391  0.00  0.00    +0.000 A 
ATOM      2  C   UNL     1       4.633   3.828  17.384  0.00  0.00    +0.000 A 
ATOM      3  C   UNL     1       5.024   4.031  16.062  0.00  0.00    +0.000 A 
ATOM      4  C   UNL     1       6.332   4.443  15.789  0.00  0.00    +0.000 A 
ATOM      5  C   UNL     1       7.161   4.714  16.874  0.00  0.00    +0.000 A 
ATOM      6  N   UNL     1       6.793   4.571  18.170  0.00  0.00    +0.000 NA
ENDROOT
BRANCH   4   7
ATOM      7  C   UNL     1       6.857   4.570  14.398  0.00  0.00    +0.000 C 
ATOM      8  N   UNL     1       6.436   3.702  13.418  0.00  0.00    +0.000 N 
ATOM      9  N   UNL     1       7.734   5.505  14.149  0.00  0.00    +0.000 NA
ATOM     10  H   UNL     1       6.385   2.728  13.685  0.00  0.00    +0.000 HD
ATOM     11  H   UNL     1       7.019   3.831  12.592  0.00  0.00    +0.000 HD
BRANCH   9  12
ATOM     12  O   UNL     1       8.161   5.455  12.812  0.00  0.00    +0.000 OA
ATOM     13  H   UNL     1       8.849   6.147  12.795  0.00  0.00    +0.000 HD
ENDBRANCH   9  12
ENDBRANCH   4   7
BRANCH   1  14
ATOM     14  O   UNL     1       5.158   3.762  19.684  0.00  0.00    +0.000 OA
BRANCH  14  23
ATOM     15  C   UNL     1       1.784   7.299  18.339  0.00  0.00    +0.000 C 
ATOM     16  C   UNL     1       2.030   6.831  19.779  0.00  0.00    +0.000 C 
ATOM     17  C   UNL     1       2.221   8.043  20.692  0.00  0.00    +0.000 C 
ATOM     18  C   UNL     1       0.893   5.912  20.278  0.00  0.00    +0.000 C 
ATOM     19  C   UNL     1       1.590   4.605  20.294  0.00  0.00    +0.000 A 
ATOM     20  C   UNL     1       1.075   3.352  20.584  0.00  0.00    +0.000 A 
ATOM     21  C   UNL     1       1.946   2.261  20.577  0.00  0.00    +0.000 A 
ATOM     22  C   UNL     1       3.304   2.434  20.262  0.00  0.00    +0.000 A 
ATOM     23  C   UNL     1       3.811   3.700  19.946  0.00  0.00    +0.000 A 
ATOM     24  C   UNL     1       2.937   4.778  20.001  0.00  0.00    +0.000 A 
ATOM     25  O   UNL     1       3.278   6.093  19.816  0.00  0.00    +0.000 OA
ENDBRANCH  14  23
ENDBRANCH   1  14
TORSDOF 4
ENDMDL
MODEL 6
REMARK VINA RESULT:      -7.3      4.421      6.595
REMARK  Name = 
REMARK  6 active torsions:
REMARK  status: ('A' for Active; 'I' for Inactive)
REMARK    1  A    between atoms: C_1  and  C_2
REMARK    2  A    between atoms: C_2  and  C_3
REMARK    3  A    between atoms: C_9  and  O_10
REMARK    4  A    between atoms: O_10  and  C_11
REMARK    5  A    between atoms: C_14  and  C_15
REMARK    6  A    between atoms: N_17  and  O_18
REMARK                            x       y       z     vdW  Elec       q    Type
REMARK                         _______ _______ _______ _____ _____    ______ ____
ROOT
ATOM      1  C   UNL     1       5.416   5.995  17.981  0.00  0.00    +0.000 A 
ATOM      2  C   UNL     1       4.731   6.462  16.868  0.00  0.00    +0.000 A 
ATOM      3  C   UNL     1       5.184   6.088  15.604  0.00  0.00    +0.000 A 
ATOM      4  C   UNL     1       6.296   5.248  15.496  0.00  0.00    +0.000 A 
ATOM      5  C   UNL     1       6.951   4.893  16.672  0.00  0.00    +0.000 A 
ATOM      6  N   UNL     1       6.561   5.280  17.910  0.00  0.00    +0.000 NA
ENDROOT
BRANCH   4   7
ATOM      7  C   UNL     1       6.772   4.714  14.187  0.00  0.00    +0.000 C 
ATOM      8  N   UNL     1       7.812   5.326  13.526  0.00  0.00    +0.000 N 
ATOM      9  N   UNL     1       6.164   3.674  13.683  0.00  0.00    +0.000 NA
ATOM     10  H   UNL     1       7.783   6.337  13.503  0.00  0.00    +0.000 HD
ATOM     11  H   UNL     1       7.882   4.935  12.588  0.00  0.00    +0.000 HD
BRANCH   9  12
ATOM     12  O   UNL     1       6.698   3.333  12.430  0.00  0.00    +0.000 OA
ATOM     13  H   UNL     1       5.897   3.297  11.873  0.00  0.00    +0.000 HD
ENDBRANCH   9  12
ENDBRANCH   4   7
BRANCH   1  14
ATOM     14  O   UNL     1       4.879   6.318  19.219  0.00  0.00    +0.000 OA
BRANCH  14  23
ATOM     15  C   UNL     1       4.643   1.472  20.694  0.00  0.00    +0.000 C 
ATOM     16  C   UNL     1       3.840   2.071  19.531  0.00  0.00    +0.000 C 
ATOM     17  C   UNL     1       3.989   1.188  18.290  0.00  0.00    +0.000 C 
ATOM     18  C   UNL     1       2.358   2.276  19.912  0.00  0.00    +0.000 C 
ATOM     19  C   UNL     1       2.308   3.754  20.013  0.00  0.00    +0.000 A 
ATOM     20  C   UNL     1       1.252   4.560  20.402  0.00  0.00    +0.000 A 
ATOM     21  C   UNL     1       1.431   5.945  20.376  0.00  0.00    +0.000 A 
ATOM     22  C   UNL     1       2.661   6.497  19.984  0.00  0.00    +0.000 A 
ATOM     23  C   UNL     1       3.732   5.673  19.615  0.00  0.00    +0.000 A 
ATOM     24  C   UNL     1       3.519   4.302  19.608  0.00  0.00    +0.000 A 
ATOM     25  O   UNL     1       4.418   3.356  19.187  0.00  0.00    +0.000 OA
ENDBRANCH  14  23
ENDBRANCH   1  14
TORSDOF 4
ENDMDL
MODEL 7
REMARK VINA RESULT:      -7.2      2.198      3.831
REMARK  Name = 
REMARK  6 active torsions:
REMARK  status: ('A' for Active; 'I' for Inactive)
REMARK    1  A    between atoms: C_1  and  C_2
REMARK    2  A    between atoms: C_2  and  C_3
REMARK    3  A    between atoms: C_9  and  O_10
REMARK    4  A    between atoms: O_10  and  C_11
REMARK    5  A    between atoms: C_14  and  C_15
REMARK    6  A    between atoms: N_17  and  O_18
REMARK                            x       y       z     vdW  Elec       q    Type
REMARK                         _______ _______ _______ _____ _____    ______ ____
ROOT
ATOM      1  C   UNL     1       1.826   7.960  19.067  0.00  0.00    +0.000 A 
ATOM      2  C   UNL     1       1.835   7.396  20.335  0.00  0.00    +0.000 A 
ATOM      3  C   UNL     1       1.311   8.135  21.395  0.00  0.00    +0.000 A 
ATOM      4  C   UNL     1       0.782   9.406  21.148  0.00  0.00    +0.000 A 
ATOM      5  C   UNL     1       0.884   9.905  19.853  0.00  0.00    +0.000 A 
ATOM      6  N   UNL     1       1.430   9.228  18.814  0.00  0.00    +0.000 NA
ENDROOT
BRANCH   4   7
ATOM      7  C   UNL     1       0.103  10.209  22.206  0.00  0.00    +0.000 C 
ATOM      8  N   UNL     1      -0.481   9.582  23.283  0.00  0.00    +0.000 N 
ATOM      9  N   UNL     1       0.061  11.506  22.070  0.00  0.00    +0.000 NA
ATOM     10  H   UNL     1      -1.022   8.754  23.069  0.00  0.00    +0.000 HD
ATOM     11  H   UNL     1      -1.033  10.263  23.801  0.00  0.00    +0.000 HD
BRANCH   9  12
ATOM     12  O   UNL     1      -0.656  12.103  23.120  0.00  0.00    +0.000 OA
ATOM     13  H   UNL     1      -0.612  11.414  23.810  0.00  0.00    +0.000 HD
ENDBRANCH   9  12
ENDBRANCH   4   7
BRANCH   1  14
ATOM     14  O   UNL     1       2.273   7.156  18.029  0.00  0.00    +0.000 OA
BRANCH  14  23
ATOM     15  C   UNL     1       1.244   2.233  18.676  0.00  0.00    +0.000 C 
ATOM     16  C   UNL     1       1.928   3.127  19.720  0.00  0.00    +0.000 C 
ATOM     17  C   UNL     1       1.241   2.959  21.076  0.00  0.00    +0.000 C 
ATOM     18  C   UNL     1       3.443   2.839  19.806  0.00  0.00    +0.000 C 
ATOM     19  C   UNL     1       3.987   4.063  19.174  0.00  0.00    +0.000 A 
ATOM     20  C   UNL     1       5.304   4.376  18.884  0.00  0.00    +0.000 A 
ATOM     21  C   UNL     1       5.580   5.624  18.320  0.00  0.00    +0.000 A 
ATOM     22  C   UNL     1       4.540   6.525  18.039  0.00  0.00    +0.000 A 
ATOM     23  C   UNL     1       3.208   6.190  18.314  0.00  0.00    +0.000 A 
ATOM     24  C   UNL     1       2.961   4.963  18.913  0.00  0.00    +0.000 A 
ATOM     25  O   UNL     1       1.736   4.512  19.335  0.00  0.00    +0.000 OA
ENDBRANCH  14  23
ENDBRANCH   1  14
TORSDOF 4
ENDMDL
MODEL 8
REMARK VINA RESULT:      -7.2      1.244      1.724
REMARK  Name = 
REMARK  6 active torsions:
REMARK  status: ('A' for Active; 'I' for Inactive)
REMARK    1  A    between atoms: C_1  and  C_2
REMARK    2  A    between atoms: C_2  and  C_3
REMARK    3  A    between atoms: C_9  and  O_10
REMARK    4  A    between atoms: O_10  and  C_11
REMARK    5  A    between atoms: C_14  and  C_15
REMARK    6  A    between atoms: N_17  and  O_18
REMARK                            x       y       z     vdW  Elec       q    Type
REMARK                         _______ _______ _______ _____ _____    ______ ____
ROOT
ATOM      1  C   UNL     1       2.294   7.399  19.477  0.00  0.00    +0.000 A 
ATOM      2  C   UNL     1       1.574   8.072  20.455  0.00  0.00    +0.000 A 
ATOM      3  C   UNL     1       0.930   9.259  20.107  0.00  0.00    +0.000 A 
ATOM      4  C   UNL     1       1.015   9.724  18.792  0.00  0.00    +0.000 A 
ATOM      5  C   UNL     1       1.818   9.011  17.907  0.00  0.00    +0.000 A 
ATOM      6  N   UNL     1       2.493   7.881  18.230  0.00  0.00    +0.000 NA
ENDROOT
BRANCH   4   7
ATOM      7  C   UNL     1       0.262  10.922  18.316  0.00  0.00    +0.000 C 
ATOM      8  N   UNL     1       0.868  12.157  18.300  0.00  0.00    +0.000 N 
ATOM      9  N   UNL     1      -0.979  10.767  17.942  0.00  0.00    +0.000 NA
ATOM     10  H   UNL     1       1.415  12.389  19.119  0.00  0.00    +0.000 HD
ATOM     11  H   UNL     1       0.162  12.867  18.113  0.00  0.00    +0.000 HD
BRANCH   9  12
ATOM     12  O   UNL     1      -1.554  11.995  17.575  0.00  0.00    +0.000 OA
ATOM     13  H   UNL     1      -2.507  11.787  17.604  0.00  0.00    +0.000 HD
ENDBRANCH   9  12
ENDBRANCH   4   7
BRANCH   1  14
ATOM     14  O   UNL     1       2.843   6.179  19.842  0.00  0.00    +0.000 OA
BRANCH  14  23
ATOM     15  C   UNL     1       7.808   5.469  19.090  0.00  0.00    +0.000 C 
ATOM     16  C   UNL     1       6.836   6.026  18.041  0.00  0.00    +0.000 C 
ATOM     17  C   UNL     1       7.412   7.304  17.429  0.00  0.00    +0.000 C 
ATOM     18  C   UNL     1       6.506   4.973  16.960  0.00  0.00    +0.000 C 
ATOM     19  C   UNL     1       5.104   4.652  17.318  0.00  0.00    +0.000 A 
ATOM     20  C   UNL     1       4.262   3.705  16.758  0.00  0.00    +0.000 A 
ATOM     21  C   UNL     1       2.954   3.615  17.238  0.00  0.00    +0.000 A 
ATOM     22  C   UNL     1       2.517   4.452  18.277  0.00  0.00    +0.000 A 
ATOM     23  C   UNL     1       3.382   5.390  18.854  0.00  0.00    +0.000 A 
ATOM     24  C   UNL     1       4.665   5.492  18.333  0.00  0.00    +0.000 A 
ATOM     25  O   UNL     1       5.609   6.413  18.709  0.00  0.00    +0.000 OA
ENDBRANCH  14  23
ENDBRANCH   1  14
TORSDOF 4
ENDMDL
MODEL 9
REMARK VINA RESULT:      -7.2      2.910      7.573
REMARK  Name = 
REMARK  6 active torsions:
REMARK  status: ('A' for Active; 'I' for Inactive)
REMARK    1  A    between atoms: C_1  and  C_2
REMARK    2  A    between atoms: C_2  and  C_3
REMARK    3  A    between atoms: C_9  and  O_10
REMARK    4  A    between atoms: O_10  and  C_11
REMARK    5  A    between atoms: C_14  and  C_15
REMARK    6  A    between atoms: N_17  and  O_18
REMARK                            x       y       z     vdW  Elec       q    Type
REMARK                         _______ _______ _______ _____ _____    ______ ____
ROOT
ATOM      1  C   UNL     1       2.712   6.887  18.222  0.00  0.00    +0.000 A 
ATOM      2  C   UNL     1       1.769   5.872  18.134  0.00  0.00    +0.000 A 
ATOM      3  C   UNL     1       2.202   4.552  18.244  0.00  0.00    +0.000 A 
ATOM      4  C   UNL     1       3.560   4.291  18.455  0.00  0.00    +0.000 A 
ATOM      5  C   UNL     1       4.430   5.377  18.459  0.00  0.00    +0.000 A 
ATOM      6  N   UNL     1       4.043   6.666  18.307  0.00  0.00    +0.000 NA
ENDROOT
BRANCH   4   7
ATOM      7  C   UNL     1       4.082   2.914  18.696  0.00  0.00    +0.000 C 
ATOM      8  N   UNL     1       5.114   2.712  19.583  0.00  0.00    +0.000 N 
ATOM      9  N   UNL     1       3.552   1.923  18.032  0.00  0.00    +0.000 NA
ATOM     10  H   UNL     1       5.879   3.373  19.526  0.00  0.00    +0.000 HD
ATOM     11  H   UNL     1       5.445   1.753  19.490  0.00  0.00    +0.000 HD
BRANCH   9  12
ATOM     12  O   UNL     1       4.190   0.710  18.337  0.00  0.00    +0.000 OA
ATOM     13  H   UNL     1       4.716   0.552  17.530  0.00  0.00    +0.000 HD
ENDBRANCH   9  12
ENDBRANCH   4   7
BRANCH   1  14
ATOM     14  O   UNL     1       2.228   8.186  18.197  0.00  0.00    +0.000 OA
BRANCH  14  23
ATOM     15  C   UNL     1      -2.131  10.759  17.891  0.00  0.00    +0.000 C 
ATOM     16  C   UNL     1      -0.870  11.261  18.606  0.00  0.00    +0.000 C 
ATOM     17  C   UNL     1      -0.550  12.686  18.153  0.00  0.00    +0.000 C 
ATOM     18  C   UNL     1      -1.013  11.167  20.141  0.00  0.00    +0.000 C 
ATOM     19  C   UNL     1      -0.091  10.044  20.430  0.00  0.00    +0.000 A 
ATOM     20  C   UNL     1       0.166   9.424  21.641  0.00  0.00    +0.000 A 
ATOM     21  C   UNL     1       1.120   8.405  21.675  0.00  0.00    +0.000 A 
ATOM     22  C   UNL     1       1.783   8.011  20.501  0.00  0.00    +0.000 A 
ATOM     23  C   UNL     1       1.500   8.627  19.276  0.00  0.00    +0.000 A 
ATOM     24  C   UNL     1       0.579   9.666  19.273  0.00  0.00    +0.000 A 
ATOM     25  O   UNL     1       0.252  10.441  18.190  0.00  0.00    +0.000 OA
ENDBRANCH  14  23
ENDBRANCH   1  14
TORSDOF 4
ENDMDL
