MODEL 1
REMARK VINA RESULT:      -9.1      0.000      0.000
REMARK  Name = 
REMARK  2 active torsions:
REMARK  status: ('A' for Active; 'I' for Inactive)
REMARK    1  A    between atoms: C_8  and  C_9
REMARK    2  A    between atoms: C_14  and  C_15
REMARK                            x       y       z     vdW  Elec       q    Type
REMARK                         _______ _______ _______ _____ _____    ______ ____
ROOT
ATOM      1  C   UNL     1       2.952   5.090  18.808  0.00  0.00    +0.000 A 
ATOM      2  N   UNL     1       2.915   6.061  17.910  0.00  0.00    +0.000 NA
ATOM      3  C   UNL     1       2.347   7.111  18.589  0.00  0.00    +0.000 A 
ATOM      4  C   UNL     1       2.065   8.421  18.194  0.00  0.00    +0.000 A 
ATOM      5  C   UNL     1       1.463   9.280  19.134  0.00  0.00    +0.000 A 
ATOM      6  C   UNL     1       1.152   8.849  20.439  0.00  0.00    +0.000 A 
ATOM      7  C   UNL     1       1.436   7.528  20.833  0.00  0.00    +0.000 A 
ATOM      8  C   UNL     1       2.026   6.716  19.874  0.00  0.00    +0.000 A 
ATOM      9  O   UNL     1       2.388   5.413  20.016  0.00  0.00    +0.000 OA
ENDROOT
BRANCH   1  17
ATOM     10  C   UNL     1       6.486   4.823  14.958  0.00  0.00    +0.000 A 
ATOM     11  C   UNL     1       7.377   5.340  15.896  0.00  0.00    +0.000 A 
ATOM     12  C   UNL     1       7.143   5.146  17.257  0.00  0.00    +0.000 A 
ATOM     13  C   UNL     1       6.009   4.455  17.681  0.00  0.00    +0.000 A 
ATOM     14  C   UNL     1       5.076   3.991  16.748  0.00  0.00    +0.000 A 
ATOM     15  C   UNL     1       5.341   4.148  15.380  0.00  0.00    +0.000 A 
ATOM     16  C   UNL     1       3.790   3.356  17.199  0.00  0.00    +0.000 C 
ATOM     17  C   UNL     1       3.492   3.699  18.660  0.00  0.00    +0.000 C 
ATOM     18  C   UNL     1       4.779   3.486  19.459  0.00  0.00    +0.000 C 
ATOM     19  O   UNL     1       5.864   4.320  19.036  0.00  0.00    +0.000 OA
ENDBRANCH   1  17
BRANCH   6  20
ATOM     20  C   UNL     1       0.525   9.767  21.373  0.00  0.00    +0.000 A 
ATOM     21  C   UNL     1       0.115   9.592  22.717  0.00  0.00    +0.000 A 
ATOM     22  N   UNL     1      -0.429  10.694  23.240  0.00  0.00    +0.000 NA
ATOM     23  N   UNL     1      -0.373  11.579  22.232  0.00  0.00    +0.000 N 
ATOM     24  C   UNL     1       0.181  11.072  21.095  0.00  0.00    +0.000 A 
ATOM     25  H   UNL     1      -0.734  12.514  22.393  0.00  0.00    +0.000 HD
ENDBRANCH   6  20
TORSDOF 2
ENDMDL
MODEL 2
REMARK VINA RESULT:      -8.5      1.760      2.350
REMARK  Name = 
REMARK  2 active torsions:
REMARK  status: ('A' for Active; 'I' for Inactive)
REMARK    1  A    between atoms: C_8  and  C_9
REMARK    2  A    between atoms: C_14  and  C_15
REMARK                            x       y       z     vdW  Elec       q    Type
REMARK                         _______ _______ _______ _____ _____    ______ ____
ROOT
ATOM      1  C   UNL     1       2.590   5.021  19.078  0.00  0.00    +0.000 A 
ATOM      2  N   UNL     1       2.183   5.398  20.279  0.00  0.00    +0.000 NA
ATOM      3  C   UNL     1       1.891   6.731  20.119  0.00  0.00    +0.000 A 
ATOM      4  C   UNL     1       1.393   7.679  21.016  0.00  0.00    +0.000 A 
ATOM      5  C   UNL     1       1.200   8.994  20.547  0.00  0.00    +0.000 A 
ATOM      6  C   UNL     1       1.492   9.357  19.218  0.00  0.00    +0.000 A 
ATOM      7  C   UNL     1       1.996   8.399  18.318  0.00  0.00    +0.000 A 
ATOM      8  C   UNL     1       2.173   7.118  18.823  0.00  0.00    +0.000 A 
ATOM      9  O   UNL     1       2.646   6.032  18.153  0.00  0.00    +0.000 OA
ENDROOT
BRANCH   1  17
ATOM     10  C   UNL     1       6.511   5.330  15.628  0.00  0.00    +0.000 A 
ATOM     11  C   UNL     1       7.329   5.490  16.745  0.00  0.00    +0.000 A 
ATOM     12  C   UNL     1       6.922   4.988  17.981  0.00  0.00    +0.000 A 
ATOM     13  C   UNL     1       5.691   4.346  18.106  0.00  0.00    +0.000 A 
ATOM     14  C   UNL     1       4.837   4.240  17.003  0.00  0.00    +0.000 A 
ATOM     15  C   UNL     1       5.271   4.704  15.754  0.00  0.00    +0.000 A 
ATOM     16  C   UNL     1       3.456   3.662  17.155  0.00  0.00    +0.000 C 
ATOM     17  C   UNL     1       3.022   3.659  18.622  0.00  0.00    +0.000 C 
ATOM     18  C   UNL     1       4.183   3.107  19.449  0.00  0.00    +0.000 C 
ATOM     19  O   UNL     1       5.378   3.893  19.359  0.00  0.00    +0.000 OA
ENDBRANCH   1  17
BRANCH   6  20
ATOM     20  C   UNL     1       1.285  10.726  18.780  0.00  0.00    +0.000 A 
ATOM     21  C   UNL     1       0.156  11.575  18.882  0.00  0.00    +0.000 A 
ATOM     22  N   UNL     1       0.366  12.782  18.348  0.00  0.00    +0.000 NA
ATOM     23  N   UNL     1       1.630  12.710  17.900  0.00  0.00    +0.000 N 
ATOM     24  C   UNL     1       2.218  11.501  18.127  0.00  0.00    +0.000 A 
ATOM     25  H   UNL     1       2.026  13.527  17.447  0.00  0.00    +0.000 HD
ENDBRANCH   6  20
TORSDOF 2
ENDMDL
MODEL 3
REMARK VINA RESULT:      -8.4      1.830      3.507
REMARK  Name = 
REMARK  2 active torsions:
REMARK  status: ('A' for Active; 'I' for Inactive)
REMARK    1  A    between atoms: C_8  and  C_9
REMARK    2  A    between atoms: C_14  and  C_15
REMARK                            x       y       z     vdW  Elec       q    Type
REMARK                         _______ _______ _______ _____ _____    ______ ____
ROOT
ATOM      1  C   UNL     1       3.398   6.623  18.442  0.00  0.00    +0.000 A 
ATOM      2  N   UNL     1       3.055   7.574  17.589  0.00  0.00    +0.000 NA
ATOM      3  C   UNL     1       2.247   8.400  18.330  0.00  0.00    +0.000 A 
ATOM      4  C   UNL     1       1.595   9.591  18.001  0.00  0.00    +0.000 A 
ATOM      5  C   UNL     1       0.818  10.217  18.996  0.00  0.00    +0.000 A 
ATOM      6  C   UNL     1       0.695   9.673  20.290  0.00  0.00    +0.000 A 
ATOM      7  C   UNL     1       1.351   8.472  20.617  0.00  0.00    +0.000 A 
ATOM      8  C   UNL     1       2.102   7.889  19.606  0.00  0.00    +0.000 A 
ATOM      9  O   UNL     1       2.818   6.735  19.680  0.00  0.00    +0.000 OA
ENDROOT
BRANCH   1  17
ATOM     10  C   UNL     1       1.643   2.389  20.966  0.00  0.00    +0.000 A 
ATOM     11  C   UNL     1       0.772   2.249  19.887  0.00  0.00    +0.000 A 
ATOM     12  C   UNL     1       1.109   2.790  18.647  0.00  0.00    +0.000 A 
ATOM     13  C   UNL     1       2.305   3.489  18.490  0.00  0.00    +0.000 A 
ATOM     14  C   UNL     1       3.153   3.691  19.584  0.00  0.00    +0.000 A 
ATOM     15  C   UNL     1       2.831   3.104  20.816  0.00  0.00    +0.000 A 
ATOM     16  C   UNL     1       4.382   4.549  19.455  0.00  0.00    +0.000 C 
ATOM     17  C   UNL     1       4.297   5.444  18.217  0.00  0.00    +0.000 C 
ATOM     18  C   UNL     1       3.838   4.575  17.046  0.00  0.00    +0.000 C 
ATOM     19  O   UNL     1       2.545   3.987  17.238  0.00  0.00    +0.000 OA
ENDBRANCH   1  17
BRANCH   6  20
ATOM     20  C   UNL     1      -0.123  10.349  21.282  0.00  0.00    +0.000 A 
ATOM     21  C   UNL     1      -0.296  10.106  22.667  0.00  0.00    +0.000 A 
ATOM     22  N   UNL     1      -1.148  10.961  23.239  0.00  0.00    +0.000 NA
ATOM     23  N   UNL     1      -1.527  11.753  22.223  0.00  0.00    +0.000 N 
ATOM     24  C   UNL     1      -0.949  11.423  21.033  0.00  0.00    +0.000 A 
ATOM     25  H   UNL     1      -2.187  12.500  22.416  0.00  0.00    +0.000 HD
ENDBRANCH   6  20
TORSDOF 2
ENDMDL
MODEL 4
REMARK VINA RESULT:      -8.4      2.015      2.744
REMARK  Name = 
REMARK  2 active torsions:
REMARK  status: ('A' for Active; 'I' for Inactive)
REMARK    1  A    between atoms: C_8  and  C_9
REMARK    2  A    between atoms: C_14  and  C_15
REMARK                            x       y       z     vdW  Elec       q    Type
REMARK                         _______ _______ _______ _____ _____    ______ ____
ROOT
ATOM      1  C   UNL     1       2.617   6.103  18.656  0.00  0.00    +0.000 A 
ATOM      2  N   UNL     1       2.312   6.339  19.921  0.00  0.00    +0.000 NA
ATOM      3  C   UNL     1       1.820   7.621  19.904  0.00  0.00    +0.000 A 
ATOM      4  C   UNL     1       1.308   8.426  20.924  0.00  0.00    +0.000 A 
ATOM      5  C   UNL     1       0.877   9.724  20.588  0.00  0.00    +0.000 A 
ATOM      6  C   UNL     1       0.950  10.210  19.268  0.00  0.00    +0.000 A 
ATOM      7  C   UNL     1       1.468   9.397  18.243  0.00  0.00    +0.000 A 
ATOM      8  C   UNL     1       1.883   8.127  18.619  0.00  0.00    +0.000 A 
ATOM      9  O   UNL     1       2.417   7.168  17.816  0.00  0.00    +0.000 OA
ENDROOT
BRANCH   1  17
ATOM     10  C   UNL     1       7.640   6.718  17.324  0.00  0.00    +0.000 A 
ATOM     11  C   UNL     1       7.907   6.480  18.671  0.00  0.00    +0.000 A 
ATOM     12  C   UNL     1       7.003   5.747  19.439  0.00  0.00    +0.000 A 
ATOM     13  C   UNL     1       5.824   5.270  18.869  0.00  0.00    +0.000 A 
ATOM     14  C   UNL     1       5.518   5.562  17.535  0.00  0.00    +0.000 A 
ATOM     15  C   UNL     1       6.452   6.258  16.756  0.00  0.00    +0.000 A 
ATOM     16  C   UNL     1       4.193   5.161  16.946  0.00  0.00    +0.000 C 
ATOM     17  C   UNL     1       3.176   4.852  18.046  0.00  0.00    +0.000 C 
ATOM     18  C   UNL     1       3.863   3.956  19.077  0.00  0.00    +0.000 C 
ATOM     19  O   UNL     1       4.998   4.566  19.703  0.00  0.00    +0.000 OA
ENDBRANCH   1  17
BRANCH   6  20
ATOM     20  C   UNL     1       0.501  11.559  18.968  0.00  0.00    +0.000 A 
ATOM     21  C   UNL     1       1.194  12.793  18.974  0.00  0.00    +0.000 A 
ATOM     22  N   UNL     1       0.416  13.825  18.635  0.00  0.00    +0.000 NA
ATOM     23  N   UNL     1      -0.779  13.256  18.413  0.00  0.00    +0.000 N 
ATOM     24  C   UNL     1      -0.782  11.907  18.606  0.00  0.00    +0.000 A 
ATOM     25  H   UNL     1      -1.552  13.853  18.132  0.00  0.00    +0.000 HD
ENDBRANCH   6  20
TORSDOF 2
ENDMDL
MODEL 5
REMARK VINA RESULT:      -8.1      1.630      2.453
REMARK  Name = 
REMARK  2 active torsions:
REMARK  status: ('A' for Active; 'I' for Inactive)
REMARK    1  A    between atoms: C_8  and  C_9
REMARK    2  A    between atoms: C_14  and  C_15
REMARK                            x       y       z     vdW  Elec       q    Type
REMARK                         _______ _______ _______ _____ _____    ______ ____
ROOT
ATOM      1  C   UNL     1       3.595   5.589  17.915  0.00  0.00    +0.000 A 
ATOM      2  N   UNL     1       2.972   4.834  18.805  0.00  0.00    +0.000 NA
ATOM      3  C   UNL     1       2.288   5.739  19.578  0.00  0.00    +0.000 A 
ATOM      4  C   UNL     1       1.427   5.560  20.664  0.00  0.00    +0.000 A 
ATOM      5  C   UNL     1       0.872   6.708  21.263  0.00  0.00    +0.000 A 
ATOM      6  C   UNL     1       1.163   8.003  20.793  0.00  0.00    +0.000 A 
ATOM      7  C   UNL     1       2.033   8.180  19.701  0.00  0.00    +0.000 A 
ATOM      8  C   UNL     1       2.558   7.023  19.143  0.00  0.00    +0.000 A 
ATOM      9  O   UNL     1       3.416   6.937  18.091  0.00  0.00    +0.000 OA
ENDROOT
BRANCH   1  17
ATOM     10  C   UNL     1       8.120   8.215  17.956  0.00  0.00    +0.000 A 
ATOM     11  C   UNL     1       8.509   7.302  18.935  0.00  0.00    +0.000 A 
ATOM     12  C   UNL     1       7.909   6.044  18.988  0.00  0.00    +0.000 A 
ATOM     13  C   UNL     1       6.908   5.706  18.079  0.00  0.00    +0.000 A 
ATOM     14  C   UNL     1       6.467   6.641  17.137  0.00  0.00    +0.000 A 
ATOM     15  C   UNL     1       7.106   7.886  17.057  0.00  0.00    +0.000 A 
ATOM     16  C   UNL     1       5.304   6.331  16.234  0.00  0.00    +0.000 C 
ATOM     17  C   UNL     1       4.481   5.163  16.783  0.00  0.00    +0.000 C 
ATOM     18  C   UNL     1       5.457   4.058  17.190  0.00  0.00    +0.000 C 
ATOM     19  O   UNL     1       6.377   4.451  18.214  0.00  0.00    +0.000 OA
ENDBRANCH   1  17
BRANCH   6  20
ATOM     20  C   UNL     1       0.574   9.159  21.447  0.00  0.00    +0.000 A 
ATOM     21  C   UNL     1       0.288   9.411  22.811  0.00  0.00    +0.000 A 
ATOM     22  N   UNL     1      -0.263  10.612  23.010  0.00  0.00    +0.000 NA
ATOM     23  N   UNL     1      -0.334  11.132  21.775  0.00  0.00    +0.000 N 
ATOM     24  C   UNL     1       0.145  10.301  20.807  0.00  0.00    +0.000 A 
ATOM     25  H   UNL     1      -0.726  12.063  21.667  0.00  0.00    +0.000 HD
ENDBRANCH   6  20
TORSDOF 2
ENDMDL
MODEL 6
REMARK VINA RESULT:      -7.8      1.017      1.353
REMARK  Name = 
REMARK  2 active torsions:
REMARK  status: ('A' for Active; 'I' for Inactive)
REMARK    1  A    between atoms: C_8  and  C_9
REMARK    2  A    between atoms: C_14  and  C_15
REMARK                            x       y       z     vdW  Elec       q    Type
REMARK                         _______ _______ _______ _____ _____    ______ ____
ROOT
ATOM      1  C   UNL     1       2.678   5.866  18.408  0.00  0.00    +0.000 A 
ATOM      2  N   UNL     1       2.552   6.905  17.600  0.00  0.00    +0.000 NA
ATOM      3  C   UNL     1       1.975   7.867  18.393  0.00  0.00    +0.000 A 
ATOM      4  C   UNL     1       1.616   9.190  18.125  0.00  0.00    +0.000 A 
ATOM      5  C   UNL     1       1.028   9.938  19.164  0.00  0.00    +0.000 A 
ATOM      6  C   UNL     1       0.804   9.385  20.440  0.00  0.00    +0.000 A 
ATOM      7  C   UNL     1       1.165   8.051  20.706  0.00  0.00    +0.000 A 
ATOM      8  C   UNL     1       1.739   7.351  19.654  0.00  0.00    +0.000 A 
ATOM      9  O   UNL     1       2.164   6.059  19.665  0.00  0.00    +0.000 OA
ENDROOT
BRANCH   1  17
ATOM     10  C   UNL     1       7.743   6.249  17.154  0.00  0.00    +0.000 A 
ATOM     11  C   UNL     1       7.959   6.325  18.529  0.00  0.00    +0.000 A 
ATOM     12  C   UNL     1       7.032   5.769  19.409  0.00  0.00    +0.000 A 
ATOM     13  C   UNL     1       5.880   5.156  18.919  0.00  0.00    +0.000 A 
ATOM     14  C   UNL     1       5.624   5.135  17.544  0.00  0.00    +0.000 A 
ATOM     15  C   UNL     1       6.582   5.653  16.661  0.00  0.00    +0.000 A 
ATOM     16  C   UNL     1       4.327   4.590  17.012  0.00  0.00    +0.000 C 
ATOM     17  C   UNL     1       3.270   4.520  18.116  0.00  0.00    +0.000 C 
ATOM     18  C   UNL     1       3.924   3.891  19.347  0.00  0.00    +0.000 C 
ATOM     19  O   UNL     1       5.028   4.645  19.860  0.00  0.00    +0.000 OA
ENDBRANCH   1  17
BRANCH   6  20
ATOM     20  C   UNL     1       0.187  10.192  21.479  0.00  0.00    +0.000 A 
ATOM     21  C   UNL     1      -0.082   9.908  22.840  0.00  0.00    +0.000 A 
ATOM     22  N   UNL     1      -0.671  10.927  23.474  0.00  0.00    +0.000 NA
ATOM     23  N   UNL     1      -0.784  11.865  22.521  0.00  0.00    +0.000 N 
ATOM     24  C   UNL     1      -0.294  11.472  21.311  0.00  0.00    +0.000 A 
ATOM     25  H   UNL     1      -1.209  12.753  22.768  0.00  0.00    +0.000 HD
ENDBRANCH   6  20
TORSDOF 2
ENDMDL
MODEL 7
REMARK VINA RESULT:      -7.5      2.507      4.128
REMARK  Name = 
REMARK  2 active torsions:
REMARK  status: ('A' for Active; 'I' for Inactive)
REMARK    1  A    between atoms: C_8  and  C_9
REMARK    2  A    between atoms: C_14  and  C_15
REMARK                            x       y       z     vdW  Elec       q    Type
REMARK                         _______ _______ _______ _____ _____    ______ ____
ROOT
ATOM      1  C   UNL     1       3.353   6.633  18.750  0.00  0.00    +0.000 A 
ATOM      2  N   UNL     1       2.753   6.721  19.926  0.00  0.00    +0.000 NA
ATOM      3  C   UNL     1       1.988   7.856  19.817  0.00  0.00    +0.000 A 
ATOM      4  C   UNL     1       1.108   8.465  20.715  0.00  0.00    +0.000 A 
ATOM      5  C   UNL     1       0.461   9.648  20.307  0.00  0.00    +0.000 A 
ATOM      6  C   UNL     1       0.682  10.212  19.036  0.00  0.00    +0.000 A 
ATOM      7  C   UNL     1       1.571   9.598  18.135  0.00  0.00    +0.000 A 
ATOM      8  C   UNL     1       2.187   8.436  18.578  0.00  0.00    +0.000 A 
ATOM      9  O   UNL     1       3.081   7.671  17.896  0.00  0.00    +0.000 OA
ENDROOT
BRANCH   1  17
ATOM     10  C   UNL     1       2.076   1.914  20.617  0.00  0.00    +0.000 A 
ATOM     11  C   UNL     1       1.127   1.895  19.596  0.00  0.00    +0.000 A 
ATOM     12  C   UNL     1       1.325   2.662  18.449  0.00  0.00    +0.000 A 
ATOM     13  C   UNL     1       2.459   3.464  18.329  0.00  0.00    +0.000 A 
ATOM     14  C   UNL     1       3.382   3.540  19.378  0.00  0.00    +0.000 A 
ATOM     15  C   UNL     1       3.202   2.731  20.508  0.00  0.00    +0.000 A 
ATOM     16  C   UNL     1       4.542   4.496  19.312  0.00  0.00    +0.000 C 
ATOM     17  C   UNL     1       4.299   5.579  18.259  0.00  0.00    +0.000 C 
ATOM     18  C   UNL     1       3.796   4.889  16.990  0.00  0.00    +0.000 C 
ATOM     19  O   UNL     1       2.562   4.184  17.169  0.00  0.00    +0.000 OA
ENDBRANCH   1  17
BRANCH   6  20
ATOM     20  C   UNL     1      -0.001  11.439  18.660  0.00  0.00    +0.000 A 
ATOM     21  C   UNL     1       0.424  12.789  18.695  0.00  0.00    +0.000 A 
ATOM     22  N   UNL     1      -0.512  13.637  18.259  0.00  0.00    +0.000 NA
ATOM     23  N   UNL     1      -1.541  12.834  17.946  0.00  0.00    +0.000 N 
ATOM     24  C   UNL     1      -1.289  11.514  18.175  0.00  0.00    +0.000 A 
ATOM     25  H   UNL     1      -2.388  13.258  17.582  0.00  0.00    +0.000 HD
ENDBRANCH   6  20
TORSDOF 2
ENDMDL
MODEL 8
REMARK VINA RESULT:      -7.4      2.340      3.796
REMARK  Name = 
REMARK  2 active torsions:
REMARK  status: ('A' for Active; 'I' for Inactive)
REMARK    1  A    between atoms: C_8  and  C_9
REMARK    2  A    between atoms: C_14  and  C_15
REMARK                            x       y       z     vdW  Elec       q    Type
REMARK                         _______ _______ _______ _____ _____    ______ ____
ROOT
ATOM      1  C   UNL     1       3.831   6.773  18.427  0.00  0.00    +0.000 A 
ATOM      2  N   UNL     1       3.293   6.790  19.635  0.00  0.00    +0.000 NA
ATOM      3  C   UNL     1       2.280   7.711  19.527  0.00  0.00    +0.000 A 
ATOM      4  C   UNL     1       1.333   8.153  20.454  0.00  0.00    +0.000 A 
ATOM      5  C   UNL     1       0.408   9.130  20.038  0.00  0.00    +0.000 A 
ATOM      6  C   UNL     1       0.421   9.654  18.731  0.00  0.00    +0.000 A 
ATOM      7  C   UNL     1       1.378   9.208  17.801  0.00  0.00    +0.000 A 
ATOM      8  C   UNL     1       2.271   8.247  18.253  0.00  0.00    +0.000 A 
ATOM      9  O   UNL     1       3.279   7.668  17.547  0.00  0.00    +0.000 OA
ENDROOT
BRANCH   1  17
ATOM     10  C   UNL     1       3.239   1.749  19.765  0.00  0.00    +0.000 A 
ATOM     11  C   UNL     1       2.373   1.680  18.675  0.00  0.00    +0.000 A 
ATOM     12  C   UNL     1       2.514   2.580  17.618  0.00  0.00    +0.000 A 
ATOM     13  C   UNL     1       3.504   3.560  17.660  0.00  0.00    +0.000 A 
ATOM     14  C   UNL     1       4.334   3.676  18.780  0.00  0.00    +0.000 A 
ATOM     15  C   UNL     1       4.219   2.740  19.817  0.00  0.00    +0.000 A 
ATOM     16  C   UNL     1       5.321   4.806  18.890  0.00  0.00    +0.000 C 
ATOM     17  C   UNL     1       4.969   5.937  17.921  0.00  0.00    +0.000 C 
ATOM     18  C   UNL     1       4.669   5.306  16.560  0.00  0.00    +0.000 C 
ATOM     19  O   UNL     1       3.560   4.398  16.579  0.00  0.00    +0.000 OA
ENDBRANCH   1  17
BRANCH   6  20
ATOM     20  C   UNL     1      -0.548  10.666  18.348  0.00  0.00    +0.000 A 
ATOM     21  C   UNL     1      -1.796  10.557  17.687  0.00  0.00    +0.000 A 
ATOM     22  N   UNL     1      -2.395  11.739  17.516  0.00  0.00    +0.000 NA
ATOM     23  N   UNL     1      -1.532  12.610  18.063  0.00  0.00    +0.000 N 
ATOM     24  C   UNL     1      -0.411  12.020  18.566  0.00  0.00    +0.000 A 
ATOM     25  H   UNL     1      -1.774  13.596  18.056  0.00  0.00    +0.000 HD
ENDBRANCH   6  20
TORSDOF 2
ENDMDL
MODEL 9
REMARK VINA RESULT:      -7.4      3.065      7.854
REMARK  Name = 
REMARK  2 active torsions:
REMARK  status: ('A' for Active; 'I' for Inactive)
REMARK    1  A    between atoms: C_8  and  C_9
REMARK    2  A    between atoms: C_14  and  C_15
REMARK                            x       y       z     vdW  Elec       q    Type
REMARK                         _______ _______ _______ _____ _____    ______ ____
ROOT
ATOM      1  C   UNL     1       0.819   9.670  19.679  0.00  0.00    +0.000 A 
ATOM      2  N   UNL     1       1.482   9.659  18.535  0.00  0.00    +0.000 NA
ATOM      3  C   UNL     1       2.130   8.448  18.545  0.00  0.00    +0.000 A 
ATOM      4  C   UNL     1       2.965   7.841  17.604  0.00  0.00    +0.000 A 
ATOM      5  C   UNL     1       3.492   6.571  17.910  0.00  0.00    +0.000 A 
ATOM      6  C   UNL     1       3.194   5.917  19.121  0.00  0.00    +0.000 A 
ATOM      7  C   UNL     1       2.354   6.533  20.068  0.00  0.00    +0.000 A 
ATOM      8  C   UNL     1       1.859   7.784  19.726  0.00  0.00    +0.000 A 
ATOM      9  O   UNL     1       1.038   8.572  20.472  0.00  0.00    +0.000 OA
ENDROOT
BRANCH   1  17
ATOM     10  C   UNL     1       3.271  14.273  20.097  0.00  0.00    +0.000 A 
ATOM     11  C   UNL     1       3.019  14.400  18.732  0.00  0.00    +0.000 A 
ATOM     12  C   UNL     1       1.950  13.716  18.156  0.00  0.00    +0.000 A 
ATOM     13  C   UNL     1       1.145  12.889  18.937  0.00  0.00    +0.000 A 
ATOM     14  C   UNL     1       1.431  12.704  20.294  0.00  0.00    +0.000 A 
ATOM     15  C   UNL     1       2.478  13.432  20.877  0.00  0.00    +0.000 A 
ATOM     16  C   UNL     1       0.647  11.719  21.117  0.00  0.00    +0.000 C 
ATOM     17  C   UNL     1      -0.096  10.726  20.221  0.00  0.00    +0.000 C 
ATOM     18  C   UNL     1      -0.785  11.525  19.114  0.00  0.00    +0.000 C 
ATOM     19  O   UNL     1       0.124  12.255  18.281  0.00  0.00    +0.000 OA
ENDBRANCH   1  17
BRANCH   6  20
ATOM     20  C   UNL     1       3.766   4.611  19.398  0.00  0.00    +0.000 A 
ATOM     21  C   UNL     1       3.231   3.485  20.070  0.00  0.00    +0.000 A 
ATOM     22  N   UNL     1       4.085   2.458  20.118  0.00  0.00    +0.000 NA
ATOM     23  N   UNL     1       5.170   2.924  19.479  0.00  0.00    +0.000 N 
ATOM     24  C   UNL     1       5.032   4.206  19.038  0.00  0.00    +0.000 A 
ATOM     25  H   UNL     1       5.972   2.309  19.383  0.00  0.00    +0.000 HD
ENDBRANCH   6  20
TORSDOF 2
ENDMDL
