MODEL 1
REMARK VINA RESULT:      -8.2      0.000      0.000
REMARK  Name = 
REMARK  6 active torsions:
REMARK  status: ('A' for Active; 'I' for Inactive)
REMARK    1  A    between atoms: N_2  and  C_4
REMARK    2  A    between atoms: C_6  and  C_7
REMARK    3  A    between atoms: C_7  and  N_8
REMARK    4  A    between atoms: N_8  and  C_9
REMARK    5  A    between atoms: C_17  and  O_18
REMARK    6  A    between atoms: C_19  and  O_20
REMARK                            x       y       z     vdW  Elec       q    Type
REMARK                         _______ _______ _______ _____ _____    ______ ____
ROOT
ATOM      1  C   UNL     1       6.939   5.435  17.902  0.00  0.00    +0.000 A 
ATOM      2  C   UNL     1       5.789   4.617  17.996  0.00  0.00    +0.000 A 
ATOM      3  C   UNL     1       5.205   4.044  16.846  0.00  0.00    +0.000 A 
ATOM      4  C   UNL     1       5.807   4.280  15.592  0.00  0.00    +0.000 A 
ATOM      5  N   UNL     1       5.330   3.695  14.459  0.00  0.00    +0.000 NA
ATOM      6  C   UNL     1       5.932   3.880  13.252  0.00  0.00    +0.000 A 
ATOM      7  C   UNL     1       7.064   4.708  13.166  0.00  0.00    +0.000 A 
ATOM      8  N   UNL     1       7.535   5.302  14.291  0.00  0.00    +0.000 NA
ATOM      9  C   UNL     1       6.947   5.103  15.498  0.00  0.00    +0.000 A 
ATOM     10  C   UNL     1       7.496   5.683  16.639  0.00  0.00    +0.000 A 
ENDROOT
BRANCH   1  12
ATOM     11  O   UNL     1       7.437   5.444  20.129  0.00  0.00    +0.000 OA
ATOM     12  N   UNL     1       7.557   5.982  19.070  0.00  0.00    +0.000 N 
ATOM     13  O   UNL     1       8.346   7.030  18.973  0.00  0.00    +0.000 OA
ENDBRANCH   1  12
BRANCH   6  14
ATOM     14  O   UNL     1       5.453   3.259  12.157  0.00  0.00    +0.000 OA
ATOM     15  H   UNL     1       4.511   3.287  11.937  0.00  0.00    +0.000 HD
ENDBRANCH   6  14
BRANCH   7  16
ATOM     16  O   UNL     1       7.705   4.913  11.997  0.00  0.00    +0.000 OA
ATOM     17  H   UNL     1       7.733   5.776  11.561  0.00  0.00    +0.000 HD
ENDBRANCH   7  16
BRANCH   3  18
ATOM     18  C   UNL     1       4.006   3.121  16.984  0.00  0.00    +0.000 C 
BRANCH  18  19
ATOM     19  N   UNL     1       4.020   2.355  18.219  0.00  0.00    +0.000 N 
ATOM     20  H   UNL     1       4.747   1.634  18.353  0.00  0.00    +0.000 HD
BRANCH  19  21
ATOM     21  C   UNL     1       3.050   2.561  19.257  0.00  0.00    +0.000 A 
ATOM     22  C   UNL     1       1.694   2.820  18.967  0.00  0.00    +0.000 A 
ATOM     23  C   UNL     1       0.769   3.024  19.997  0.00  0.00    +0.000 A 
ATOM     24  C   UNL     1       1.179   2.970  21.329  0.00  0.00    +0.000 A 
ATOM     25  C   UNL     1       2.518   2.713  21.634  0.00  0.00    +0.000 A 
ATOM     26  C   UNL     1       3.450   2.511  20.608  0.00  0.00    +0.000 A 
ENDBRANCH  19  21
ENDBRANCH  18  19
ENDBRANCH   3  18
TORSDOF 6
ENDMDL
MODEL 2
REMARK VINA RESULT:      -8.2      0.026      1.009
REMARK  Name = 
REMARK  6 active torsions:
REMARK  status: ('A' for Active; 'I' for Inactive)
REMARK    1  A    between atoms: N_2  and  C_4
REMARK    2  A    between atoms: C_6  and  C_7
REMARK    3  A    between atoms: C_7  and  N_8
REMARK    4  A    between atoms: N_8  and  C_9
REMARK    5  A    between atoms: C_17  and  O_18
REMARK    6  A    between atoms: C_19  and  O_20
REMARK                            x       y       z     vdW  Elec       q    Type
REMARK                         _______ _______ _______ _____ _____    ______ ____
ROOT
ATOM      1  C   UNL     1       6.929   5.440  17.893  0.00  0.00    +0.000 A 
ATOM      2  C   UNL     1       5.767   4.639  17.986  0.00  0.00    +0.000 A 
ATOM      3  C   UNL     1       5.178   4.073  16.836  0.00  0.00    +0.000 A 
ATOM      4  C   UNL     1       5.786   4.297  15.582  0.00  0.00    +0.000 A 
ATOM      5  N   UNL     1       5.303   3.716  14.449  0.00  0.00    +0.000 NA
ATOM      6  C   UNL     1       5.911   3.890  13.244  0.00  0.00    +0.000 A 
ATOM      7  C   UNL     1       7.056   4.700  13.159  0.00  0.00    +0.000 A 
ATOM      8  N   UNL     1       7.533   5.290  14.284  0.00  0.00    +0.000 NA
ATOM      9  C   UNL     1       6.939   5.102  15.490  0.00  0.00    +0.000 A 
ATOM     10  C   UNL     1       7.494   5.677  16.631  0.00  0.00    +0.000 A 
ENDROOT
BRANCH   1  12
ATOM     11  O   UNL     1       7.435   5.437  20.118  0.00  0.00    +0.000 OA
ATOM     12  N   UNL     1       7.553   5.980  19.061  0.00  0.00    +0.000 N 
ATOM     13  O   UNL     1       8.343   7.027  18.967  0.00  0.00    +0.000 OA
ENDBRANCH   1  12
BRANCH   6  14
ATOM     14  O   UNL     1       5.425   3.273  12.149  0.00  0.00    +0.000 OA
ATOM     15  H   UNL     1       4.484   3.313  11.928  0.00  0.00    +0.000 HD
ENDBRANCH   6  14
BRANCH   7  16
ATOM     16  O   UNL     1       7.703   4.893  11.991  0.00  0.00    +0.000 OA
ATOM     17  H   UNL     1       7.385   4.532  11.152  0.00  0.00    +0.000 HD
ENDBRANCH   7  16
BRANCH   3  18
ATOM     18  C   UNL     1       3.964   3.168  16.972  0.00  0.00    +0.000 C 
BRANCH  18  19
ATOM     19  N   UNL     1       3.989   2.367  18.184  0.00  0.00    +0.000 N 
ATOM     20  H   UNL     1       4.699   1.623  18.278  0.00  0.00    +0.000 HD
BRANCH  19  21
ATOM     21  C   UNL     1       3.053   2.569  19.253  0.00  0.00    +0.000 A 
ATOM     22  C   UNL     1       3.449   2.521  20.607  0.00  0.00    +0.000 A 
ATOM     23  C   UNL     1       2.516   2.715  21.631  0.00  0.00    +0.000 A 
ATOM     24  C   UNL     1       1.178   2.963  21.325  0.00  0.00    +0.000 A 
ATOM     25  C   UNL     1       0.769   3.014  19.990  0.00  0.00    +0.000 A 
ATOM     26  C   UNL     1       1.697   2.818  18.959  0.00  0.00    +0.000 A 
ENDBRANCH  19  21
ENDBRANCH  18  19
ENDBRANCH   3  18
TORSDOF 6
ENDMDL
MODEL 3
REMARK VINA RESULT:      -8.1      2.865      4.665
REMARK  Name = 
REMARK  6 active torsions:
REMARK  status: ('A' for Active; 'I' for Inactive)
REMARK    1  A    between atoms: N_2  and  C_4
REMARK    2  A    between atoms: C_6  and  C_7
REMARK    3  A    between atoms: C_7  and  N_8
REMARK    4  A    between atoms: N_8  and  C_9
REMARK    5  A    between atoms: C_17  and  O_18
REMARK    6  A    between atoms: C_19  and  O_20
REMARK                            x       y       z     vdW  Elec       q    Type
REMARK                         _______ _______ _______ _____ _____    ______ ____
ROOT
ATOM      1  C   UNL     1       6.048   5.234  15.934  0.00  0.00    +0.000 A 
ATOM      2  C   UNL     1       6.200   4.423  17.083  0.00  0.00    +0.000 A 
ATOM      3  C   UNL     1       5.456   4.672  18.256  0.00  0.00    +0.000 A 
ATOM      4  C   UNL     1       4.528   5.735  18.257  0.00  0.00    +0.000 A 
ATOM      5  N   UNL     1       3.732   5.976  19.335  0.00  0.00    +0.000 NA
ATOM      6  C   UNL     1       2.803   6.971  19.327  0.00  0.00    +0.000 A 
ATOM      7  C   UNL     1       2.670   7.783  18.187  0.00  0.00    +0.000 A 
ATOM      8  N   UNL     1       3.471   7.552  17.116  0.00  0.00    +0.000 NA
ATOM      9  C   UNL     1       4.384   6.549  17.115  0.00  0.00    +0.000 A 
ATOM     10  C   UNL     1       5.146   6.307  15.974  0.00  0.00    +0.000 A 
ENDROOT
BRANCH   1  12
ATOM     11  O   UNL     1       7.785   5.538  14.485  0.00  0.00    +0.000 OA
ATOM     12  N   UNL     1       6.770   4.959  14.731  0.00  0.00    +0.000 N 
ATOM     13  O   UNL     1       6.375   3.994  13.928  0.00  0.00    +0.000 OA
ENDBRANCH   1  12
BRANCH   6  14
ATOM     14  O   UNL     1       2.009   7.160  20.398  0.00  0.00    +0.000 OA
ATOM     15  H   UNL     1       2.010   6.538  21.139  0.00  0.00    +0.000 HD
ENDBRANCH   6  14
BRANCH   7  16
ATOM     16  O   UNL     1       1.756   8.772  18.124  0.00  0.00    +0.000 OA
ATOM     17  H   UNL     1       1.924   9.609  17.669  0.00  0.00    +0.000 HD
ENDBRANCH   7  16
BRANCH   3  18
ATOM     18  C   UNL     1       5.597   3.748  19.454  0.00  0.00    +0.000 C 
BRANCH  18  19
ATOM     19  N   UNL     1       4.748   2.571  19.364  0.00  0.00    +0.000 N 
ATOM     20  H   UNL     1       5.181   1.656  19.158  0.00  0.00    +0.000 HD
BRANCH  19  21
ATOM     21  C   UNL     1       3.326   2.638  19.544  0.00  0.00    +0.000 A 
ATOM     22  C   UNL     1       2.431   2.464  18.466  0.00  0.00    +0.000 A 
ATOM     23  C   UNL     1       1.048   2.541  18.667  0.00  0.00    +0.000 A 
ATOM     24  C   UNL     1       0.536   2.789  19.941  0.00  0.00    +0.000 A 
ATOM     25  C   UNL     1       1.408   2.963  21.018  0.00  0.00    +0.000 A 
ATOM     26  C   UNL     1       2.794   2.890  20.825  0.00  0.00    +0.000 A 
ENDBRANCH  19  21
ENDBRANCH  18  19
ENDBRANCH   3  18
TORSDOF 6
ENDMDL
MODEL 4
REMARK VINA RESULT:      -8.1      4.536      5.878
REMARK  Name = 
REMARK  6 active torsions:
REMARK  status: ('A' for Active; 'I' for Inactive)
REMARK    1  A    between atoms: N_2  and  C_4
REMARK    2  A    between atoms: C_6  and  C_7
REMARK    3  A    between atoms: C_7  and  N_8
REMARK    4  A    between atoms: N_8  and  C_9
REMARK    5  A    between atoms: C_17  and  O_18
REMARK    6  A    between atoms: C_19  and  O_20
REMARK                            x       y       z     vdW  Elec       q    Type
REMARK                         _______ _______ _______ _____ _____    ______ ____
ROOT
ATOM      1  C   UNL     1       5.695   5.391  17.050  0.00  0.00    +0.000 A 
ATOM      2  C   UNL     1       4.878   6.503  17.358  0.00  0.00    +0.000 A 
ATOM      3  C   UNL     1       3.583   6.331  17.893  0.00  0.00    +0.000 A 
ATOM      4  C   UNL     1       3.122   5.021  18.144  0.00  0.00    +0.000 A 
ATOM      5  N   UNL     1       1.911   4.798  18.725  0.00  0.00    +0.000 NA
ATOM      6  C   UNL     1       1.479   3.540  19.012  0.00  0.00    +0.000 A 
ATOM      7  C   UNL     1       2.291   2.440  18.687  0.00  0.00    +0.000 A 
ATOM      8  N   UNL     1       3.493   2.659  18.097  0.00  0.00    +0.000 NA
ATOM      9  C   UNL     1       3.934   3.914  17.827  0.00  0.00    +0.000 A 
ATOM     10  C   UNL     1       5.199   4.098  17.275  0.00  0.00    +0.000 A 
ENDROOT
BRANCH   1  12
ATOM     11  O   UNL     1       7.452   6.656  16.327  0.00  0.00    +0.000 OA
ATOM     12  N   UNL     1       7.023   5.563  16.548  0.00  0.00    +0.000 N 
ATOM     13  O   UNL     1       7.822   4.526  16.416  0.00  0.00    +0.000 OA
ENDBRANCH   1  12
BRANCH   6  14
ATOM     14  O   UNL     1       0.290   3.358  19.618  0.00  0.00    +0.000 OA
ATOM     15  H   UNL     1      -0.240   4.110  19.918  0.00  0.00    +0.000 HD
ENDBRANCH   6  14
BRANCH   7  16
ATOM     16  O   UNL     1       1.914   1.175  18.963  0.00  0.00    +0.000 OA
ATOM     17  H   UNL     1       1.126   0.966  19.484  0.00  0.00    +0.000 HD
ENDBRANCH   7  16
BRANCH   3  18
ATOM     18  C   UNL     1       2.750   7.545  18.270  0.00  0.00    +0.000 C 
BRANCH  18  19
ATOM     19  N   UNL     1       2.309   7.521  19.655  0.00  0.00    +0.000 N 
ATOM     20  H   UNL     1       2.657   6.774  20.278  0.00  0.00    +0.000 HD
BRANCH  19  21
ATOM     21  C   UNL     1       1.399   8.496  20.184  0.00  0.00    +0.000 A 
ATOM     22  C   UNL     1       0.949   9.589  19.413  0.00  0.00    +0.000 A 
ATOM     23  C   UNL     1       0.066  10.530  19.954  0.00  0.00    +0.000 A 
ATOM     24  C   UNL     1      -0.384  10.396  21.267  0.00  0.00    +0.000 A 
ATOM     25  C   UNL     1       0.050   9.319  22.044  0.00  0.00    +0.000 A 
ATOM     26  C   UNL     1       0.936   8.375  21.510  0.00  0.00    +0.000 A 
ENDBRANCH  19  21
ENDBRANCH  18  19
ENDBRANCH   3  18
TORSDOF 6
ENDMDL
MODEL 5
REMARK VINA RESULT:      -8.1      2.867      4.750
REMARK  Name = 
REMARK  6 active torsions:
REMARK  status: ('A' for Active; 'I' for Inactive)
REMARK    1  A    between atoms: N_2  and  C_4
REMARK    2  A    between atoms: C_6  and  C_7
REMARK    3  A    between atoms: C_7  and  N_8
REMARK    4  A    between atoms: N_8  and  C_9
REMARK    5  A    between atoms: C_17  and  O_18
REMARK    6  A    between atoms: C_19  and  O_20
REMARK                            x       y       z     vdW  Elec       q    Type
REMARK                         _______ _______ _______ _____ _____    ______ ____
ROOT
ATOM      1  C   UNL     1       6.045   5.241  15.939  0.00  0.00    +0.000 A 
ATOM      2  C   UNL     1       6.205   4.431  17.088  0.00  0.00    +0.000 A 
ATOM      3  C   UNL     1       5.463   4.675  18.262  0.00  0.00    +0.000 A 
ATOM      4  C   UNL     1       4.528   5.733  18.266  0.00  0.00    +0.000 A 
ATOM      5  N   UNL     1       3.733   5.969  19.345  0.00  0.00    +0.000 NA
ATOM      6  C   UNL     1       2.798   6.957  19.340  0.00  0.00    +0.000 A 
ATOM      7  C   UNL     1       2.657   7.768  18.201  0.00  0.00    +0.000 A 
ATOM      8  N   UNL     1       3.456   7.543  17.127  0.00  0.00    +0.000 NA
ATOM      9  C   UNL     1       4.376   6.545  17.124  0.00  0.00    +0.000 A 
ATOM     10  C   UNL     1       5.136   6.309  15.981  0.00  0.00    +0.000 A 
ENDROOT
BRANCH   1  12
ATOM     11  O   UNL     1       7.778   5.552  14.488  0.00  0.00    +0.000 OA
ATOM     12  N   UNL     1       6.765   4.970  14.734  0.00  0.00    +0.000 N 
ATOM     13  O   UNL     1       6.372   4.007  13.929  0.00  0.00    +0.000 OA
ENDBRANCH   1  12
BRANCH   6  14
ATOM     14  O   UNL     1       2.005   7.141  20.413  0.00  0.00    +0.000 OA
ATOM     15  H   UNL     1       1.138   6.716  20.475  0.00  0.00    +0.000 HD
ENDBRANCH   6  14
BRANCH   7  16
ATOM     16  O   UNL     1       1.736   8.752  18.139  0.00  0.00    +0.000 OA
ATOM     17  H   UNL     1       1.634   9.324  17.366  0.00  0.00    +0.000 HD
ENDBRANCH   7  16
BRANCH   3  18
ATOM     18  C   UNL     1       5.612   3.752  19.460  0.00  0.00    +0.000 C 
BRANCH  18  19
ATOM     19  N   UNL     1       4.753   2.582  19.384  0.00  0.00    +0.000 N 
ATOM     20  H   UNL     1       5.176   1.663  19.173  0.00  0.00    +0.000 HD
BRANCH  19  21
ATOM     21  C   UNL     1       3.335   2.661  19.583  0.00  0.00    +0.000 A 
ATOM     22  C   UNL     1       2.774   2.872  20.861  0.00  0.00    +0.000 A 
ATOM     23  C   UNL     1       1.387   2.939  21.030  0.00  0.00    +0.000 A 
ATOM     24  C   UNL     1       0.538   2.800  19.932  0.00  0.00    +0.000 A 
ATOM     25  C   UNL     1       1.076   2.592  18.660  0.00  0.00    +0.000 A 
ATOM     26  C   UNL     1       2.464   2.521  18.483  0.00  0.00    +0.000 A 
ENDBRANCH  19  21
ENDBRANCH  18  19
ENDBRANCH   3  18
TORSDOF 6
ENDMDL
MODEL 6
REMARK VINA RESULT:      -8.0      3.897      6.650
REMARK  Name = 
REMARK  6 active torsions:
REMARK  status: ('A' for Active; 'I' for Inactive)
REMARK    1  A    between atoms: N_2  and  C_4
REMARK    2  A    between atoms: C_6  and  C_7
REMARK    3  A    between atoms: C_7  and  N_8
REMARK    4  A    between atoms: N_8  and  C_9
REMARK    5  A    between atoms: C_17  and  O_18
REMARK    6  A    between atoms: C_19  and  O_20
REMARK                            x       y       z     vdW  Elec       q    Type
REMARK                         _______ _______ _______ _____ _____    ______ ____
ROOT
ATOM      1  C   UNL     1       2.619   3.681  20.561  0.00  0.00    +0.000 A 
ATOM      2  C   UNL     1       3.197   3.494  19.283  0.00  0.00    +0.000 A 
ATOM      3  C   UNL     1       3.235   4.542  18.339  0.00  0.00    +0.000 A 
ATOM      4  C   UNL     1       2.709   5.801  18.702  0.00  0.00    +0.000 A 
ATOM      5  N   UNL     1       2.784   6.867  17.859  0.00  0.00    +0.000 NA
ATOM      6  C   UNL     1       2.321   8.095  18.219  0.00  0.00    +0.000 A 
ATOM      7  C   UNL     1       1.733   8.267  19.484  0.00  0.00    +0.000 A 
ATOM      8  N   UNL     1       1.646   7.203  20.322  0.00  0.00    +0.000 NA
ATOM      9  C   UNL     1       2.126   5.983  19.972  0.00  0.00    +0.000 A 
ATOM     10  C   UNL     1       2.070   4.931  20.883  0.00  0.00    +0.000 A 
ENDROOT
BRANCH   1  12
ATOM     11  O   UNL     1       3.601   1.988  21.734  0.00  0.00    +0.000 OA
ATOM     12  N   UNL     1       2.617   2.633  21.534  0.00  0.00    +0.000 N 
ATOM     13  O   UNL     1       1.558   2.431  22.288  0.00  0.00    +0.000 OA
ENDBRANCH   1  12
BRANCH   6  14
ATOM     14  O   UNL     1       2.442   9.136  17.373  0.00  0.00    +0.000 OA
ATOM     15  H   UNL     1       3.295   9.571  17.232  0.00  0.00    +0.000 HD
ENDBRANCH   6  14
BRANCH   7  16
ATOM     16  O   UNL     1       1.271   9.466  19.894  0.00  0.00    +0.000 OA
ATOM     17  H   UNL     1       0.909   9.611  20.779  0.00  0.00    +0.000 HD
ENDBRANCH   7  16
BRANCH   3  18
ATOM     18  C   UNL     1       3.915   4.330  16.997  0.00  0.00    +0.000 C 
BRANCH  18  19
ATOM     19  N   UNL     1       5.347   4.108  17.116  0.00  0.00    +0.000 N 
ATOM     20  H   UNL     1       5.731   3.178  16.884  0.00  0.00    +0.000 HD
BRANCH  19  21
ATOM     21  C   UNL     1       6.246   5.138  17.553  0.00  0.00    +0.000 A 
ATOM     22  C   UNL     1       6.342   6.376  16.882  0.00  0.00    +0.000 A 
ATOM     23  C   UNL     1       7.231   7.361  17.324  0.00  0.00    +0.000 A 
ATOM     24  C   UNL     1       8.034   7.131  18.441  0.00  0.00    +0.000 A 
ATOM     25  C   UNL     1       7.952   5.912  19.118  0.00  0.00    +0.000 A 
ATOM     26  C   UNL     1       7.065   4.920  18.679  0.00  0.00    +0.000 A 
ENDBRANCH  19  21
ENDBRANCH  18  19
ENDBRANCH   3  18
TORSDOF 6
ENDMDL
MODEL 7
REMARK VINA RESULT:      -8.0      4.511      5.892
REMARK  Name = 
REMARK  6 active torsions:
REMARK  status: ('A' for Active; 'I' for Inactive)
REMARK    1  A    between atoms: N_2  and  C_4
REMARK    2  A    between atoms: C_6  and  C_7
REMARK    3  A    between atoms: C_7  and  N_8
REMARK    4  A    between atoms: N_8  and  C_9
REMARK    5  A    between atoms: C_17  and  O_18
REMARK    6  A    between atoms: C_19  and  O_20
REMARK                            x       y       z     vdW  Elec       q    Type
REMARK                         _______ _______ _______ _____ _____    ______ ____
ROOT
ATOM      1  C   UNL     1       5.586   5.720  16.872  0.00  0.00    +0.000 A 
ATOM      2  C   UNL     1       4.744   6.777  17.290  0.00  0.00    +0.000 A 
ATOM      3  C   UNL     1       3.492   6.520  17.887  0.00  0.00    +0.000 A 
ATOM      4  C   UNL     1       3.100   5.179  18.089  0.00  0.00    +0.000 A 
ATOM      5  N   UNL     1       1.936   4.872  18.726  0.00  0.00    +0.000 NA
ATOM      6  C   UNL     1       1.574   3.582  18.966  0.00  0.00    +0.000 A 
ATOM      7  C   UNL     1       2.408   2.538  18.532  0.00  0.00    +0.000 A 
ATOM      8  N   UNL     1       3.563   2.841  17.886  0.00  0.00    +0.000 NA
ATOM      9  C   UNL     1       3.936   4.127  17.664  0.00  0.00    +0.000 A 
ATOM     10  C   UNL     1       5.157   4.397  17.051  0.00  0.00    +0.000 A 
ENDROOT
BRANCH   1  12
ATOM     11  O   UNL     1       7.248   5.368  15.348  0.00  0.00    +0.000 OA
ATOM     12  N   UNL     1       6.873   5.978  16.304  0.00  0.00    +0.000 N 
ATOM     13  O   UNL     1       7.619   6.957  16.769  0.00  0.00    +0.000 OA
ENDBRANCH   1  12
BRANCH   6  14
ATOM     14  O   UNL     1       0.431   3.315  19.628  0.00  0.00    +0.000 OA
ATOM     15  H   UNL     1      -0.267   3.980  19.711  0.00  0.00    +0.000 HD
ENDBRANCH   6  14
BRANCH   7  16
ATOM     16  O   UNL     1       2.101   1.244  18.757  0.00  0.00    +0.000 OA
ATOM     17  H   UNL     1       2.152   0.840  19.634  0.00  0.00    +0.000 HD
ENDBRANCH   7  16
BRANCH   3  18
ATOM     18  C   UNL     1       2.635   7.674  18.381  0.00  0.00    +0.000 C 
BRANCH  18  19
ATOM     19  N   UNL     1       2.313   7.576  19.795  0.00  0.00    +0.000 N 
ATOM     20  H   UNL     1       2.744   6.823  20.356  0.00  0.00    +0.000 HD
BRANCH  19  21
ATOM     21  C   UNL     1       1.410   8.487  20.438  0.00  0.00    +0.000 A 
ATOM     22  C   UNL     1       1.085   8.370  21.807  0.00  0.00    +0.000 A 
ATOM     23  C   UNL     1       0.197   9.268  22.409  0.00  0.00    +0.000 A 
ATOM     24  C   UNL     1      -0.379  10.294  21.660  0.00  0.00    +0.000 A 
ATOM     25  C   UNL     1      -0.069  10.424  20.304  0.00  0.00    +0.000 A 
ATOM     26  C   UNL     1       0.818   9.528  19.694  0.00  0.00    +0.000 A 
ENDBRANCH  19  21
ENDBRANCH  18  19
ENDBRANCH   3  18
TORSDOF 6
ENDMDL
MODEL 8
REMARK VINA RESULT:      -8.0      3.520      6.974
REMARK  Name = 
REMARK  6 active torsions:
REMARK  status: ('A' for Active; 'I' for Inactive)
REMARK    1  A    between atoms: N_2  and  C_4
REMARK    2  A    between atoms: C_6  and  C_7
REMARK    3  A    between atoms: C_7  and  N_8
REMARK    4  A    between atoms: N_8  and  C_9
REMARK    5  A    between atoms: C_17  and  O_18
REMARK    6  A    between atoms: C_19  and  O_20
REMARK                            x       y       z     vdW  Elec       q    Type
REMARK                         _______ _______ _______ _____ _____    ______ ____
ROOT
ATOM      1  C   UNL     1       2.709   7.584  18.470  0.00  0.00    +0.000 A 
ATOM      2  C   UNL     1       3.759   7.294  17.568  0.00  0.00    +0.000 A 
ATOM      3  C   UNL     1       4.479   6.084  17.652  0.00  0.00    +0.000 A 
ATOM      4  C   UNL     1       4.115   5.146  18.642  0.00  0.00    +0.000 A 
ATOM      5  N   UNL     1       4.727   3.932  18.724  0.00  0.00    +0.000 NA
ATOM      6  C   UNL     1       4.351   3.004  19.646  0.00  0.00    +0.000 A 
ATOM      7  C   UNL     1       3.319   3.308  20.549  0.00  0.00    +0.000 A 
ATOM      8  N   UNL     1       2.715   4.522  20.478  0.00  0.00    +0.000 NA
ATOM      9  C   UNL     1       3.076   5.440  19.546  0.00  0.00    +0.000 A 
ATOM     10  C   UNL     1       2.392   6.651  19.468  0.00  0.00    +0.000 A 
ENDROOT
BRANCH   1  12
ATOM     11  O   UNL     1       1.973   9.434  17.355  0.00  0.00    +0.000 OA
ATOM     12  N   UNL     1       1.950   8.791  18.361  0.00  0.00    +0.000 N 
ATOM     13  O   UNL     1       1.140   9.156  19.332  0.00  0.00    +0.000 OA
ENDBRANCH   1  12
BRANCH   6  14
ATOM     14  O   UNL     1       4.956   1.801  19.676  0.00  0.00    +0.000 OA
ATOM     15  H   UNL     1       5.903   1.720  19.854  0.00  0.00    +0.000 HD
ENDBRANCH   6  14
BRANCH   7  16
ATOM     16  O   UNL     1       2.900   2.419  21.473  0.00  0.00    +0.000 OA
ATOM     17  H   UNL     1       2.281   1.704  21.267  0.00  0.00    +0.000 HD
ENDBRANCH   7  16
BRANCH   3  18
ATOM     18  C   UNL     1       5.562   5.772  16.632  0.00  0.00    +0.000 C 
BRANCH  18  19
ATOM     19  N   UNL     1       5.225   4.648  15.774  0.00  0.00    +0.000 N 
ATOM     20  H   UNL     1       4.516   3.968  16.094  0.00  0.00    +0.000 HD
BRANCH  19  21
ATOM     21  C   UNL     1       5.849   4.447  14.497  0.00  0.00    +0.000 A 
ATOM     22  C   UNL     1       5.269   3.627  13.506  0.00  0.00    +0.000 A 
ATOM     23  C   UNL     1       5.901   3.442  12.272  0.00  0.00    +0.000 A 
ATOM     24  C   UNL     1       7.117   4.072  12.005  0.00  0.00    +0.000 A 
ATOM     25  C   UNL     1       7.705   4.887  12.974  0.00  0.00    +0.000 A 
ATOM     26  C   UNL     1       7.079   5.075  14.213  0.00  0.00    +0.000 A 
ENDBRANCH  19  21
ENDBRANCH  18  19
ENDBRANCH   3  18
TORSDOF 6
ENDMDL
MODEL 9
REMARK VINA RESULT:      -8.0      3.835      6.627
REMARK  Name = 
REMARK  6 active torsions:
REMARK  status: ('A' for Active; 'I' for Inactive)
REMARK    1  A    between atoms: N_2  and  C_4
REMARK    2  A    between atoms: C_6  and  C_7
REMARK    3  A    between atoms: C_7  and  N_8
REMARK    4  A    between atoms: N_8  and  C_9
REMARK    5  A    between atoms: C_17  and  O_18
REMARK    6  A    between atoms: C_19  and  O_20
REMARK                            x       y       z     vdW  Elec       q    Type
REMARK                         _______ _______ _______ _____ _____    ______ ____
ROOT
ATOM      1  C   UNL     1       2.757   3.620  20.501  0.00  0.00    +0.000 A 
ATOM      2  C   UNL     1       3.310   3.436  19.212  0.00  0.00    +0.000 A 
ATOM      3  C   UNL     1       3.323   4.483  18.267  0.00  0.00    +0.000 A 
ATOM      4  C   UNL     1       2.795   5.738  18.639  0.00  0.00    +0.000 A 
ATOM      5  N   UNL     1       2.846   6.804  17.793  0.00  0.00    +0.000 NA
ATOM      6  C   UNL     1       2.381   8.029  18.161  0.00  0.00    +0.000 A 
ATOM      7  C   UNL     1       1.819   8.199  19.438  0.00  0.00    +0.000 A 
ATOM      8  N   UNL     1       1.755   7.135  20.278  0.00  0.00    +0.000 NA
ATOM      9  C   UNL     1       2.236   5.918  19.920  0.00  0.00    +0.000 A 
ATOM     10  C   UNL     1       2.206   4.866  20.833  0.00  0.00    +0.000 A 
ENDROOT
BRANCH   1  12
ATOM     11  O   UNL     1       3.781   1.950  21.672  0.00  0.00    +0.000 OA
ATOM     12  N   UNL     1       2.781   2.573  21.475  0.00  0.00    +0.000 N 
ATOM     13  O   UNL     1       1.730   2.349  22.234  0.00  0.00    +0.000 OA
ENDBRANCH   1  12
BRANCH   6  14
ATOM     14  O   UNL     1       2.479   9.070  17.311  0.00  0.00    +0.000 OA
ATOM     15  H   UNL     1       1.776   9.732  17.247  0.00  0.00    +0.000 HD
ENDBRANCH   6  14
BRANCH   7  16
ATOM     16  O   UNL     1       1.356   9.395  19.855  0.00  0.00    +0.000 OA
ATOM     17  H   UNL     1       1.912  10.186  19.891  0.00  0.00    +0.000 HD
ENDBRANCH   7  16
BRANCH   3  18
ATOM     18  C   UNL     1       3.977   4.274  16.911  0.00  0.00    +0.000 C 
BRANCH  18  19
ATOM     19  N   UNL     1       5.411   4.055  17.002  0.00  0.00    +0.000 N 
ATOM     20  H   UNL     1       5.802   3.153  16.685  0.00  0.00    +0.000 HD
BRANCH  19  21
ATOM     21  C   UNL     1       6.304   5.049  17.526  0.00  0.00    +0.000 A 
ATOM     22  C   UNL     1       7.036   4.839  18.715  0.00  0.00    +0.000 A 
ATOM     23  C   UNL     1       7.895   5.827  19.208  0.00  0.00    +0.000 A 
ATOM     24  C   UNL     1       8.041   7.035  18.526  0.00  0.00    +0.000 A 
ATOM     25  C   UNL     1       7.325   7.259  17.348  0.00  0.00    +0.000 A 
ATOM     26  C   UNL     1       6.461   6.275  16.849  0.00  0.00    +0.000 A 
ENDBRANCH  19  21
ENDBRANCH  18  19
ENDBRANCH   3  18
TORSDOF 6
ENDMDL
