MODEL 1
REMARK VINA RESULT:      -6.3      0.000      0.000
REMARK  Name = 
REMARK  8 active torsions:
REMARK  status: ('A' for Active; 'I' for Inactive)
REMARK    1  A    between atoms: C_1  and  O_2
REMARK    2  A    between atoms: O_2  and  C_3
REMARK    3  A    between atoms: C_6  and  C_7
REMARK    4  A    between atoms: C_12  and  C_14
REMARK    5  A    between atoms: C_14  and  C_15
REMARK    6  A    between atoms: C_15  and  C_16
REMARK    7  A    between atoms: C_15  and  C_17
REMARK    8  A    between atoms: C_15  and  C_18
REMARK                            x       y       z     vdW  Elec       q    Type
REMARK                         _______ _______ _______ _____ _____    ______ ____
ROOT
ATOM      1  C   UNL     1       2.790   4.605  20.172  0.00  0.00    +0.000 A 
ATOM      2  C   UNL     1       3.438   3.480  19.648  0.00  0.00    +0.000 A 
ATOM      3  C   UNL     1       4.075   3.531  18.411  0.00  0.00    +0.000 A 
ATOM      4  C   UNL     1       4.104   4.711  17.648  0.00  0.00    +0.000 A 
ATOM      5  C   UNL     1       4.793   4.730  16.314  0.00  0.00    +0.000 C 
ATOM      6  C   UNL     1       3.450   5.841  18.190  0.00  0.00    +0.000 A 
ATOM      7  S   UNL     1       3.319   7.445  17.531  0.00  0.00    +0.000 S 
ATOM      8  C   UNL     1       2.355   7.902  18.850  0.00  0.00    +0.000 A 
ATOM      9  N   UNL     1       1.895   9.190  18.820  0.00  0.00    +0.000 N 
ATOM     10  C   UNL     1       0.941   9.628  19.709  0.00  0.00    +0.000 C 
ATOM     11  O   UNL     1       0.337   8.943  20.534  0.00  0.00    +0.000 OA
ATOM     12  N   UNL     1       2.163   7.002  19.768  0.00  0.00    +0.000 NA
ATOM     13  C   UNL     1       2.782   5.809  19.424  0.00  0.00    +0.000 A 
ATOM     14  H   UNL     1       2.227   9.785  18.074  0.00  0.00    +0.000 HD
ENDROOT
BRANCH   1  16
ATOM     15  C   UNL     1       1.837   3.038  21.698  0.00  0.00    +0.000 C 
ATOM     16  O   UNL     1       2.204   4.387  21.418  0.00  0.00    +0.000 OA
ENDBRANCH   1  16
BRANCH  10  17
ATOM     17  C   UNL     1       0.653  11.120  19.614  0.00  0.00    +0.000 C 
BRANCH  17  18
ATOM     18  C   UNL     1      -0.740  11.464  19.031  0.00  0.00    +0.000 C 
ATOM     19  C   UNL     1      -1.772  11.666  20.152  0.00  0.00    +0.000 C 
ATOM     20  C   UNL     1      -0.625  12.774  18.228  0.00  0.00    +0.000 C 
ATOM     21  C   UNL     1      -1.233  10.362  18.076  0.00  0.00    +0.000 C 
ENDBRANCH  17  18
ENDBRANCH  10  17
TORSDOF 3
ENDMDL
MODEL 2
REMARK VINA RESULT:      -6.3      3.579      7.674
REMARK  Name = 
REMARK  8 active torsions:
REMARK  status: ('A' for Active; 'I' for Inactive)
REMARK    1  A    between atoms: C_1  and  O_2
REMARK    2  A    between atoms: O_2  and  C_3
REMARK    3  A    between atoms: C_6  and  C_7
REMARK    4  A    between atoms: C_12  and  C_14
REMARK    5  A    between atoms: C_14  and  C_15
REMARK    6  A    between atoms: C_15  and  C_16
REMARK    7  A    between atoms: C_15  and  C_17
REMARK    8  A    between atoms: C_15  and  C_18
REMARK                            x       y       z     vdW  Elec       q    Type
REMARK                         _______ _______ _______ _____ _____    ______ ____
ROOT
ATOM      1  C   UNL     1       2.857   6.533  18.846  0.00  0.00    +0.000 A 
ATOM      2  C   UNL     1       1.974   6.441  19.928  0.00  0.00    +0.000 A 
ATOM      3  C   UNL     1       1.624   5.206  20.465  0.00  0.00    +0.000 A 
ATOM      4  C   UNL     1       2.148   4.006  19.951  0.00  0.00    +0.000 A 
ATOM      5  C   UNL     1       1.743   2.689  20.547  0.00  0.00    +0.000 C 
ATOM      6  C   UNL     1       3.041   4.112  18.860  0.00  0.00    +0.000 A 
ATOM      7  S   UNL     1       3.882   2.849  18.012  0.00  0.00    +0.000 S 
ATOM      8  C   UNL     1       4.538   4.001  16.955  0.00  0.00    +0.000 A 
ATOM      9  N   UNL     1       5.333   3.499  15.961  0.00  0.00    +0.000 N 
ATOM     10  C   UNL     1       5.758   4.289  14.919  0.00  0.00    +0.000 C 
ATOM     11  O   UNL     1       5.424   5.453  14.696  0.00  0.00    +0.000 OA
ATOM     12  N   UNL     1       4.245   5.245  17.198  0.00  0.00    +0.000 NA
ATOM     13  C   UNL     1       3.392   5.345  18.287  0.00  0.00    +0.000 A 
ATOM     14  H   UNL     1       5.534   2.510  15.983  0.00  0.00    +0.000 HD
ENDROOT
BRANCH   1  16
ATOM     15  C   UNL     1       1.947   8.628  18.159  0.00  0.00    +0.000 C 
ATOM     16  O   UNL     1       3.104   7.841  18.430  0.00  0.00    +0.000 OA
ENDBRANCH   1  16
BRANCH  10  17
ATOM     17  C   UNL     1       6.742   3.597  13.987  0.00  0.00    +0.000 C 
BRANCH  17  18
ATOM     18  C   UNL     1       6.311   3.588  12.499  0.00  0.00    +0.000 C 
ATOM     19  C   UNL     1       4.794   3.798  12.364  0.00  0.00    +0.000 C 
ATOM     20  C   UNL     1       7.032   4.740  11.772  0.00  0.00    +0.000 C 
ATOM     21  C   UNL     1       6.706   2.270  11.810  0.00  0.00    +0.000 C 
ENDBRANCH  17  18
ENDBRANCH  10  17
TORSDOF 3
ENDMDL
MODEL 3
REMARK VINA RESULT:      -6.2      2.370      7.550
REMARK  Name = 
REMARK  8 active torsions:
REMARK  status: ('A' for Active; 'I' for Inactive)
REMARK    1  A    between atoms: C_1  and  O_2
REMARK    2  A    between atoms: O_2  and  C_3
REMARK    3  A    between atoms: C_6  and  C_7
REMARK    4  A    between atoms: C_12  and  C_14
REMARK    5  A    between atoms: C_14  and  C_15
REMARK    6  A    between atoms: C_15  and  C_16
REMARK    7  A    between atoms: C_15  and  C_17
REMARK    8  A    between atoms: C_15  and  C_18
REMARK                            x       y       z     vdW  Elec       q    Type
REMARK                         _______ _______ _______ _____ _____    ______ ____
ROOT
ATOM      1  C   UNL     1       0.882  11.590  19.437  0.00  0.00    +0.000 A 
ATOM      2  C   UNL     1       0.101  12.660  19.886  0.00  0.00    +0.000 A 
ATOM      3  C   UNL     1      -0.679  12.546  21.034  0.00  0.00    +0.000 A 
ATOM      4  C   UNL     1      -0.706  11.360  21.789  0.00  0.00    +0.000 A 
ATOM      5  C   UNL     1      -1.565  11.267  23.017  0.00  0.00    +0.000 C 
ATOM      6  C   UNL     1       0.090  10.287  21.326  0.00  0.00    +0.000 A 
ATOM      7  S   UNL     1       0.309   8.711  22.025  0.00  0.00    +0.000 S 
ATOM      8  C   UNL     1       1.305   8.277  20.724  0.00  0.00    +0.000 A 
ATOM      9  N   UNL     1       1.776   6.992  20.749  0.00  0.00    +0.000 N 
ATOM     10  C   UNL     1       2.418   6.445  19.663  0.00  0.00    +0.000 C 
ATOM     11  O   UNL     1       2.561   6.965  18.556  0.00  0.00    +0.000 OA
ATOM     12  N   UNL     1       1.546   9.203  19.843  0.00  0.00    +0.000 NA
ATOM     13  C   UNL     1       0.868  10.371  20.160  0.00  0.00    +0.000 A 
ATOM     14  H   UNL     1       1.568   6.438  21.567  0.00  0.00    +0.000 HD
ENDROOT
BRANCH   1  16
ATOM     15  C   UNL     1       2.557  12.921  18.383  0.00  0.00    +0.000 C 
ATOM     16  O   UNL     1       1.603  11.867  18.276  0.00  0.00    +0.000 OA
ENDBRANCH   1  16
BRANCH  10  17
ATOM     17  C   UNL     1       2.990   5.059  19.922  0.00  0.00    +0.000 C 
BRANCH  17  18
ATOM     18  C   UNL     1       2.116   3.899  19.383  0.00  0.00    +0.000 C 
ATOM     19  C   UNL     1       1.702   4.154  17.925  0.00  0.00    +0.000 C 
ATOM     20  C   UNL     1       2.940   2.598  19.438  0.00  0.00    +0.000 C 
ATOM     21  C   UNL     1       0.856   3.701  20.244  0.00  0.00    +0.000 C 
ENDBRANCH  17  18
ENDBRANCH  10  17
TORSDOF 3
ENDMDL
MODEL 4
REMARK VINA RESULT:      -6.2      3.560      7.684
REMARK  Name = 
REMARK  8 active torsions:
REMARK  status: ('A' for Active; 'I' for Inactive)
REMARK    1  A    between atoms: C_1  and  O_2
REMARK    2  A    between atoms: O_2  and  C_3
REMARK    3  A    between atoms: C_6  and  C_7
REMARK    4  A    between atoms: C_12  and  C_14
REMARK    5  A    between atoms: C_14  and  C_15
REMARK    6  A    between atoms: C_15  and  C_16
REMARK    7  A    between atoms: C_15  and  C_17
REMARK    8  A    between atoms: C_15  and  C_18
REMARK                            x       y       z     vdW  Elec       q    Type
REMARK                         _______ _______ _______ _____ _____    ______ ____
ROOT
ATOM      1  C   UNL     1       2.832   6.331  19.012  0.00  0.00    +0.000 A 
ATOM      2  C   UNL     1       1.923   6.185  20.066  0.00  0.00    +0.000 A 
ATOM      3  C   UNL     1       1.526   4.923  20.501  0.00  0.00    +0.000 A 
ATOM      4  C   UNL     1       2.028   3.751  19.909  0.00  0.00    +0.000 A 
ATOM      5  C   UNL     1       1.573   2.406  20.396  0.00  0.00    +0.000 C 
ATOM      6  C   UNL     1       2.948   3.912  18.848  0.00  0.00    +0.000 A 
ATOM      7  S   UNL     1       3.773   2.690  17.925  0.00  0.00    +0.000 S 
ATOM      8  C   UNL     1       4.485   3.899  16.972  0.00  0.00    +0.000 A 
ATOM      9  N   UNL     1       5.289   3.449  15.960  0.00  0.00    +0.000 N 
ATOM     10  C   UNL     1       5.759   4.302  14.989  0.00  0.00    +0.000 C 
ATOM     11  O   UNL     1       5.463   5.488  14.847  0.00  0.00    +0.000 OA
ATOM     12  N   UNL     1       4.222   5.129  17.301  0.00  0.00    +0.000 NA
ATOM     13  C   UNL     1       3.347   5.173  18.377  0.00  0.00    +0.000 A 
ATOM     14  H   UNL     1       5.461   2.455  15.911  0.00  0.00    +0.000 HD
ENDROOT
BRANCH   1  16
ATOM     15  C   UNL     1       2.262   8.270  17.745  0.00  0.00    +0.000 C 
ATOM     16  O   UNL     1       3.124   7.658  18.700  0.00  0.00    +0.000 OA
ENDBRANCH   1  16
BRANCH  10  17
ATOM     17  C   UNL     1       6.745   3.652  14.028  0.00  0.00    +0.000 C 
BRANCH  17  18
ATOM     18  C   UNL     1       6.286   3.652  12.549  0.00  0.00    +0.000 C 
ATOM     19  C   UNL     1       7.049   4.710  11.735  0.00  0.00    +0.000 C 
ATOM     20  C   UNL     1       6.577   2.265  11.944  0.00  0.00    +0.000 C 
ATOM     21  C   UNL     1       4.774   3.914  12.433  0.00  0.00    +0.000 C 
ENDBRANCH  17  18
ENDBRANCH  10  17
TORSDOF 3
ENDMDL
MODEL 5
REMARK VINA RESULT:      -6.2      1.371      1.692
REMARK  Name = 
REMARK  8 active torsions:
REMARK  status: ('A' for Active; 'I' for Inactive)
REMARK    1  A    between atoms: C_1  and  O_2
REMARK    2  A    between atoms: O_2  and  C_3
REMARK    3  A    between atoms: C_6  and  C_7
REMARK    4  A    between atoms: C_12  and  C_14
REMARK    5  A    between atoms: C_14  and  C_15
REMARK    6  A    between atoms: C_15  and  C_16
REMARK    7  A    between atoms: C_15  and  C_17
REMARK    8  A    between atoms: C_15  and  C_18
REMARK                            x       y       z     vdW  Elec       q    Type
REMARK                         _______ _______ _______ _____ _____    ______ ____
ROOT
ATOM      1  C   UNL     1       1.863   3.348  19.644  0.00  0.00    +0.000 A 
ATOM      2  C   UNL     1       2.394   2.355  18.812  0.00  0.00    +0.000 A 
ATOM      3  C   UNL     1       3.239   2.682  17.755  0.00  0.00    +0.000 A 
ATOM      4  C   UNL     1       3.600   4.015  17.489  0.00  0.00    +0.000 A 
ATOM      5  C   UNL     1       4.506   4.334  16.335  0.00  0.00    +0.000 C 
ATOM      6  C   UNL     1       3.060   5.008  18.338  0.00  0.00    +0.000 A 
ATOM      7  S   UNL     1       3.318   6.727  18.308  0.00  0.00    +0.000 S 
ATOM      8  C   UNL     1       2.228   6.908  19.594  0.00  0.00    +0.000 A 
ATOM      9  N   UNL     1       2.003   8.197  19.994  0.00  0.00    +0.000 N 
ATOM     10  C   UNL     1       0.995   8.505  20.878  0.00  0.00    +0.000 C 
ATOM     11  O   UNL     1       0.148   7.731  21.325  0.00  0.00    +0.000 OA
ATOM     12  N   UNL     1       1.728   5.814  20.090  0.00  0.00    +0.000 NA
ATOM     13  C   UNL     1       2.189   4.705  19.397  0.00  0.00    +0.000 A 
ATOM     14  H   UNL     1       2.557   8.921  19.559  0.00  0.00    +0.000 HD
ENDROOT
BRANCH   1  16
ATOM     15  C   UNL     1       1.685   2.565  21.890  0.00  0.00    +0.000 C 
ATOM     16  O   UNL     1       1.038   2.854  20.653  0.00  0.00    +0.000 OA
ENDBRANCH   1  16
BRANCH  10  17
ATOM     17  C   UNL     1       0.984   9.964  21.311  0.00  0.00    +0.000 C 
BRANCH  17  18
ATOM     18  C   UNL     1       0.247  10.912  20.332  0.00  0.00    +0.000 C 
ATOM     19  C   UNL     1      -0.748  10.135  19.456  0.00  0.00    +0.000 C 
ATOM     20  C   UNL     1      -0.534  11.955  21.155  0.00  0.00    +0.000 C 
ATOM     21  C   UNL     1       1.240  11.665  19.430  0.00  0.00    +0.000 C 
ENDBRANCH  17  18
ENDBRANCH  10  17
TORSDOF 3
ENDMDL
MODEL 6
REMARK VINA RESULT:      -6.2      2.363      7.578
REMARK  Name = 
REMARK  8 active torsions:
REMARK  status: ('A' for Active; 'I' for Inactive)
REMARK    1  A    between atoms: C_1  and  O_2
REMARK    2  A    between atoms: O_2  and  C_3
REMARK    3  A    between atoms: C_6  and  C_7
REMARK    4  A    between atoms: C_12  and  C_14
REMARK    5  A    between atoms: C_14  and  C_15
REMARK    6  A    between atoms: C_15  and  C_16
REMARK    7  A    between atoms: C_15  and  C_17
REMARK    8  A    between atoms: C_15  and  C_18
REMARK                            x       y       z     vdW  Elec       q    Type
REMARK                         _______ _______ _______ _____ _____    ______ ____
ROOT
ATOM      1  C   UNL     1       0.482  11.827  19.493  0.00  0.00    +0.000 A 
ATOM      2  C   UNL     1      -0.338  12.847  19.989  0.00  0.00    +0.000 A 
ATOM      3  C   UNL     1      -1.035  12.689  21.184  0.00  0.00    +0.000 A 
ATOM      4  C   UNL     1      -0.935  11.510  21.942  0.00  0.00    +0.000 A 
ATOM      5  C   UNL     1      -1.706  11.369  23.223  0.00  0.00    +0.000 C 
ATOM      6  C   UNL     1      -0.100  10.489  21.433  0.00  0.00    +0.000 A 
ATOM      7  S   UNL     1       0.267   8.935  22.122  0.00  0.00    +0.000 S 
ATOM      8  C   UNL     1       1.206   8.559  20.761  0.00  0.00    +0.000 A 
ATOM      9  N   UNL     1       1.761   7.308  20.760  0.00  0.00    +0.000 N 
ATOM     10  C   UNL     1       2.368   6.798  19.636  0.00  0.00    +0.000 C 
ATOM     11  O   UNL     1       2.406   7.318  18.522  0.00  0.00    +0.000 OA
ATOM     12  N   UNL     1       1.328   9.492  19.864  0.00  0.00    +0.000 NA
ATOM     13  C   UNL     1       0.596  10.615  20.220  0.00  0.00    +0.000 A 
ATOM     14  H   UNL     1       1.643   6.748  21.591  0.00  0.00    +0.000 HD
ENDROOT
BRANCH   1  16
ATOM     15  C   UNL     1       2.416  12.700  18.403  0.00  0.00    +0.000 C 
ATOM     16  O   UNL     1       1.109  12.144  18.289  0.00  0.00    +0.000 OA
ENDBRANCH   1  16
BRANCH  10  17
ATOM     17  C   UNL     1       3.047   5.454  19.863  0.00  0.00    +0.000 C 
BRANCH  17  18
ATOM     18  C   UNL     1       2.203   4.233  19.422  0.00  0.00    +0.000 C 
ATOM     19  C   UNL     1       3.008   2.930  19.553  0.00  0.00    +0.000 C 
ATOM     20  C   UNL     1       0.964   4.137  20.333  0.00  0.00    +0.000 C 
ATOM     21  C   UNL     1       1.714   4.386  17.970  0.00  0.00    +0.000 C 
ENDBRANCH  17  18
ENDBRANCH  10  17
TORSDOF 3
ENDMDL
MODEL 7
REMARK VINA RESULT:      -6.1      3.570      7.751
REMARK  Name = 
REMARK  8 active torsions:
REMARK  status: ('A' for Active; 'I' for Inactive)
REMARK    1  A    between atoms: C_1  and  O_2
REMARK    2  A    between atoms: O_2  and  C_3
REMARK    3  A    between atoms: C_6  and  C_7
REMARK    4  A    between atoms: C_12  and  C_14
REMARK    5  A    between atoms: C_14  and  C_15
REMARK    6  A    between atoms: C_15  and  C_16
REMARK    7  A    between atoms: C_15  and  C_17
REMARK    8  A    between atoms: C_15  and  C_18
REMARK                            x       y       z     vdW  Elec       q    Type
REMARK                         _______ _______ _______ _____ _____    ______ ____
ROOT
ATOM      1  C   UNL     1       2.896   6.926  18.656  0.00  0.00    +0.000 A 
ATOM      2  C   UNL     1       2.060   6.941  19.778  0.00  0.00    +0.000 A 
ATOM      3  C   UNL     1       1.763   5.768  20.467  0.00  0.00    +0.000 A 
ATOM      4  C   UNL     1       2.299   4.529  20.072  0.00  0.00    +0.000 A 
ATOM      5  C   UNL     1       1.953   3.281  20.832  0.00  0.00    +0.000 C 
ATOM      6  C   UNL     1       3.145   4.528  18.939  0.00  0.00    +0.000 A 
ATOM      7  S   UNL     1       3.985   3.193  18.207  0.00  0.00    +0.000 S 
ATOM      8  C   UNL     1       4.568   4.230  16.998  0.00  0.00    +0.000 A 
ATOM      9  N   UNL     1       5.336   3.634  16.036  0.00  0.00    +0.000 N 
ATOM     10  C   UNL     1       5.699   4.308  14.893  0.00  0.00    +0.000 C 
ATOM     11  O   UNL     1       5.326   5.430  14.553  0.00  0.00    +0.000 OA
ATOM     12  N   UNL     1       4.252   5.487  17.109  0.00  0.00    +0.000 NA
ATOM     13  C   UNL     1       3.441   5.694  18.215  0.00  0.00    +0.000 A 
ATOM     14  H   UNL     1       5.564   2.658  16.163  0.00  0.00    +0.000 HD
ENDROOT
BRANCH   1  16
ATOM     15  C   UNL     1       1.909   8.946  17.859  0.00  0.00    +0.000 C 
ATOM     16  O   UNL     1       3.092   8.182  18.083  0.00  0.00    +0.000 OA
ENDBRANCH   1  16
BRANCH  10  17
ATOM     17  C   UNL     1       6.664   3.534  14.005  0.00  0.00    +0.000 C 
BRANCH  17  18
ATOM     18  C   UNL     1       6.321   3.586  12.496  0.00  0.00    +0.000 C 
ATOM     19  C   UNL     1       6.665   2.255  11.807  0.00  0.00    +0.000 C 
ATOM     20  C   UNL     1       4.808   3.838  12.346  0.00  0.00    +0.000 C 
ATOM     21  C   UNL     1       7.066   4.733  11.792  0.00  0.00    +0.000 C 
ENDBRANCH  17  18
ENDBRANCH  10  17
TORSDOF 3
ENDMDL
MODEL 8
REMARK VINA RESULT:      -6.1      0.744      1.235
REMARK  Name = 
REMARK  8 active torsions:
REMARK  status: ('A' for Active; 'I' for Inactive)
REMARK    1  A    between atoms: C_1  and  O_2
REMARK    2  A    between atoms: O_2  and  C_3
REMARK    3  A    between atoms: C_6  and  C_7
REMARK    4  A    between atoms: C_12  and  C_14
REMARK    5  A    between atoms: C_14  and  C_15
REMARK    6  A    between atoms: C_15  and  C_16
REMARK    7  A    between atoms: C_15  and  C_17
REMARK    8  A    between atoms: C_15  and  C_18
REMARK                            x       y       z     vdW  Elec       q    Type
REMARK                         _______ _______ _______ _____ _____    ______ ____
ROOT
ATOM      1  C   UNL     1       2.639   4.454  20.398  0.00  0.00    +0.000 A 
ATOM      2  C   UNL     1       3.373   3.473  19.723  0.00  0.00    +0.000 A 
ATOM      3  C   UNL     1       4.003   3.754  18.514  0.00  0.00    +0.000 A 
ATOM      4  C   UNL     1       3.938   5.032  17.932  0.00  0.00    +0.000 A 
ATOM      5  C   UNL     1       4.623   5.300  16.622  0.00  0.00    +0.000 C 
ATOM      6  C   UNL     1       3.197   6.016  18.625  0.00  0.00    +0.000 A 
ATOM      7  S   UNL     1       2.938   7.683  18.207  0.00  0.00    +0.000 S 
ATOM      8  C   UNL     1       1.942   7.865  19.567  0.00  0.00    +0.000 A 
ATOM      9  N   UNL     1       1.381   9.104  19.721  0.00  0.00    +0.000 N 
ATOM     10  C   UNL     1       0.396   9.330  20.654  0.00  0.00    +0.000 C 
ATOM     11  O   UNL     1      -0.151   8.487  21.363  0.00  0.00    +0.000 OA
ATOM     12  N   UNL     1       1.823   6.828  20.342  0.00  0.00    +0.000 NA
ATOM     13  C   UNL     1       2.534   5.751  19.834  0.00  0.00    +0.000 A 
ATOM     14  H   UNL     1       1.664   9.825  19.073  0.00  0.00    +0.000 HD
ENDROOT
BRANCH   1  16
ATOM     15  C   UNL     1       1.630   2.656  21.598  0.00  0.00    +0.000 C 
ATOM     16  O   UNL     1       2.072   4.011  21.593  0.00  0.00    +0.000 OA
ENDBRANCH   1  16
BRANCH  10  17
ATOM     17  C   UNL     1      -0.009  10.793  20.774  0.00  0.00    +0.000 C 
BRANCH  17  18
ATOM     18  C   UNL     1      -0.812  11.333  19.565  0.00  0.00    +0.000 C 
ATOM     19  C   UNL     1       0.074  12.205  18.661  0.00  0.00    +0.000 C 
ATOM     20  C   UNL     1      -1.323  10.134  18.742  0.00  0.00    +0.000 C 
ATOM     21  C   UNL     1      -2.033  12.150  20.024  0.00  0.00    +0.000 C 
ENDBRANCH  17  18
ENDBRANCH  10  17
TORSDOF 3
ENDMDL
MODEL 9
REMARK VINA RESULT:      -6.0      2.671      3.624
REMARK  Name = 
REMARK  8 active torsions:
REMARK  status: ('A' for Active; 'I' for Inactive)
REMARK    1  A    between atoms: C_1  and  O_2
REMARK    2  A    between atoms: O_2  and  C_3
REMARK    3  A    between atoms: C_6  and  C_7
REMARK    4  A    between atoms: C_12  and  C_14
REMARK    5  A    between atoms: C_14  and  C_15
REMARK    6  A    between atoms: C_15  and  C_16
REMARK    7  A    between atoms: C_15  and  C_17
REMARK    8  A    between atoms: C_15  and  C_18
REMARK                            x       y       z     vdW  Elec       q    Type
REMARK                         _______ _______ _______ _____ _____    ______ ____
ROOT
ATOM      1  C   UNL     1       6.136   6.597  17.405  0.00  0.00    +0.000 A 
ATOM      2  C   UNL     1       6.938   5.482  17.671  0.00  0.00    +0.000 A 
ATOM      3  C   UNL     1       6.412   4.351  18.288  0.00  0.00    +0.000 A 
ATOM      4  C   UNL     1       5.057   4.279  18.657  0.00  0.00    +0.000 A 
ATOM      5  C   UNL     1       4.524   3.047  19.329  0.00  0.00    +0.000 C 
ATOM      6  C   UNL     1       4.256   5.410  18.380  0.00  0.00    +0.000 A 
ATOM      7  S   UNL     1       2.559   5.643  18.676  0.00  0.00    +0.000 S 
ATOM      8  C   UNL     1       2.678   7.227  18.082  0.00  0.00    +0.000 A 
ATOM      9  N   UNL     1       1.521   7.956  18.122  0.00  0.00    +0.000 N 
ATOM     10  C   UNL     1       1.519   9.308  17.870  0.00  0.00    +0.000 C 
ATOM     11  O   UNL     1       2.505  10.021  17.684  0.00  0.00    +0.000 OA
ATOM     12  N   UNL     1       3.841   7.591  17.628  0.00  0.00    +0.000 NA
ATOM     13  C   UNL     1       4.768   6.571  17.779  0.00  0.00    +0.000 A 
ATOM     14  H   UNL     1       0.681   7.478  18.416  0.00  0.00    +0.000 HD
ENDROOT
BRANCH   1  16
ATOM     15  C   UNL     1       7.773   8.322  17.592  0.00  0.00    +0.000 C 
ATOM     16  O   UNL     1       6.814   7.645  16.784  0.00  0.00    +0.000 OA
ENDBRANCH   1  16
BRANCH  10  17
ATOM     17  C   UNL     1       0.127   9.922  17.825  0.00  0.00    +0.000 C 
BRANCH  17  18
ATOM     18  C   UNL     1      -0.234  10.771  19.068  0.00  0.00    +0.000 C 
ATOM     19  C   UNL     1       0.581  12.074  19.101  0.00  0.00    +0.000 C 
ATOM     20  C   UNL     1      -1.731  11.132  18.998  0.00  0.00    +0.000 C 
ATOM     21  C   UNL     1       0.005   9.987  20.370  0.00  0.00    +0.000 C 
ENDBRANCH  17  18
ENDBRANCH  10  17
TORSDOF 3
ENDMDL
