MODEL 1
REMARK VINA RESULT:      -7.3      0.000      0.000
REMARK  Name = 
REMARK  4 active torsions:
REMARK  status: ('A' for Active; 'I' for Inactive)
REMARK    1  A    between atoms: C_2  and  C_3
REMARK    2  A    between atoms: C_3  and  N_4
REMARK    3  A    between atoms: N_13  and  C_14
REMARK    4  A    between atoms: C_14  and  C_15
REMARK                            x       y       z     vdW  Elec       q    Type
REMARK                         _______ _______ _______ _____ _____    ______ ____
ROOT
ATOM      1  O   UNL     1       7.990   4.393  18.335  0.00  0.00    +0.000 OA
ATOM      2  C   UNL     1       6.970   5.064  18.121  0.00  0.00    +0.000 C 
ATOM      3  N   UNL     1       6.734   5.598  16.883  0.00  0.00    +0.000 N 
ATOM      4  H   UNL     1       5.873   6.118  16.775  0.00  0.00    +0.000 HD
ENDROOT
BRANCH   2   5
ATOM      5  C   UNL     1       5.951   5.407  19.220  0.00  0.00    +0.000 C 
BRANCH   5   6
ATOM      6  N   UNL     1       4.579   5.303  18.767  0.00  0.00    +0.000 N 
ATOM      7  C   UNL     1       3.782   6.459  18.356  0.00  0.00    +0.000 C 
ATOM      8  C   UNL     1       2.325   5.970  18.208  0.00  0.00    +0.000 C 
ATOM      9  C   UNL     1       2.498   4.485  18.244  0.00  0.00    +0.000 A 
ATOM     10  C   UNL     1       1.541   3.506  18.020  0.00  0.00    +0.000 A 
ATOM     11  C   UNL     1       1.918   2.174  18.176  0.00  0.00    +0.000 A 
ATOM     12  C   UNL     1       3.223   1.847  18.568  0.00  0.00    +0.000 A 
ATOM     13  C   UNL     1       4.172   2.850  18.796  0.00  0.00    +0.000 A 
ATOM     14  C   UNL     1       3.809   4.173  18.621  0.00  0.00    +0.000 A 
ENDBRANCH   5   6
ENDBRANCH   2   5
BRANCH   3  15
ATOM     15  C   UNL     1       7.574   5.402  15.725  0.00  0.00    +0.000 C 
BRANCH  15  16
ATOM     16  C   UNL     1       6.825   4.732  14.597  0.00  0.00    +0.000 A 
ATOM     17  C   UNL     1       5.516   4.259  14.783  0.00  0.00    +0.000 A 
ATOM     18  C   UNL     1       4.817   3.669  13.726  0.00  0.00    +0.000 A 
ATOM     19  C   UNL     1       5.424   3.548  12.477  0.00  0.00    +0.000 A 
ATOM     20 CL   UNL     1       4.560   2.833  11.172  0.00  0.00    +0.000 Cl
ATOM     21  C   UNL     1       6.723   4.007  12.277  0.00  0.00    +0.000 A 
ATOM     22  C   UNL     1       7.421   4.598  13.333  0.00  0.00    +0.000 A 
ENDBRANCH  15  16
ENDBRANCH   3  15
TORSDOF 4
ENDMDL
MODEL 2
REMARK VINA RESULT:      -7.2      4.505      6.999
REMARK  Name = 
REMARK  4 active torsions:
REMARK  status: ('A' for Active; 'I' for Inactive)
REMARK    1  A    between atoms: C_2  and  C_3
REMARK    2  A    between atoms: C_3  and  N_4
REMARK    3  A    between atoms: N_13  and  C_14
REMARK    4  A    between atoms: C_14  and  C_15
REMARK                            x       y       z     vdW  Elec       q    Type
REMARK                         _______ _______ _______ _____ _____    ______ ____
ROOT
ATOM      1  O   UNL     1       4.485   7.298  16.672  0.00  0.00    +0.000 OA
ATOM      2  C   UNL     1       4.070   6.671  17.658  0.00  0.00    +0.000 C 
ATOM      3  N   UNL     1       2.996   7.127  18.373  0.00  0.00    +0.000 N 
ATOM      4  H   UNL     1       2.700   6.555  19.154  0.00  0.00    +0.000 HD
ENDROOT
BRANCH   2   5
ATOM      5  C   UNL     1       4.758   5.403  18.190  0.00  0.00    +0.000 C 
BRANCH   5   6
ATOM      6  N   UNL     1       3.862   4.269  18.272  0.00  0.00    +0.000 N 
ATOM      7  C   UNL     1       3.701   3.295  17.192  0.00  0.00    +0.000 C 
ATOM      8  C   UNL     1       2.484   2.418  17.556  0.00  0.00    +0.000 C 
ATOM      9  C   UNL     1       2.263   2.785  18.989  0.00  0.00    +0.000 A 
ATOM     10  C   UNL     1       1.379   2.212  19.892  0.00  0.00    +0.000 A 
ATOM     11  C   UNL     1       1.294   2.767  21.167  0.00  0.00    +0.000 A 
ATOM     12  C   UNL     1       2.069   3.884  21.507  0.00  0.00    +0.000 A 
ATOM     13  C   UNL     1       2.950   4.451  20.579  0.00  0.00    +0.000 A 
ATOM     14  C   UNL     1       3.054   3.891  19.319  0.00  0.00    +0.000 A 
ENDBRANCH   5   6
ENDBRANCH   2   5
BRANCH   3  15
ATOM     15  C   UNL     1       2.222   8.301  18.044  0.00  0.00    +0.000 C 
BRANCH  15  16
ATOM     16  C   UNL     1       1.458   8.821  19.239  0.00  0.00    +0.000 A 
ATOM     17  C   UNL     1       1.570   8.197  20.492  0.00  0.00    +0.000 A 
ATOM     18  C   UNL     1       0.885   8.704  21.600  0.00  0.00    +0.000 A 
ATOM     19  C   UNL     1       0.084   9.836  21.462  0.00  0.00    +0.000 A 
ATOM     20 CL   UNL     1      -0.750  10.466  22.828  0.00  0.00    +0.000 Cl
ATOM     21  C   UNL     1      -0.042  10.463  20.225  0.00  0.00    +0.000 A 
ATOM     22  C   UNL     1       0.644   9.959  19.118  0.00  0.00    +0.000 A 
ENDBRANCH  15  16
ENDBRANCH   3  15
TORSDOF 4
ENDMDL
MODEL 3
REMARK VINA RESULT:      -7.2      0.321      1.101
REMARK  Name = 
REMARK  4 active torsions:
REMARK  status: ('A' for Active; 'I' for Inactive)
REMARK    1  A    between atoms: C_2  and  C_3
REMARK    2  A    between atoms: C_3  and  N_4
REMARK    3  A    between atoms: N_13  and  C_14
REMARK    4  A    between atoms: C_14  and  C_15
REMARK                            x       y       z     vdW  Elec       q    Type
REMARK                         _______ _______ _______ _____ _____    ______ ____
ROOT
ATOM      1  O   UNL     1       8.015   4.141  17.943  0.00  0.00    +0.000 OA
ATOM      2  C   UNL     1       7.100   4.959  17.770  0.00  0.00    +0.000 C 
ATOM      3  N   UNL     1       6.919   5.555  16.552  0.00  0.00    +0.000 N 
ATOM      4  H   UNL     1       6.140   6.197  16.478  0.00  0.00    +0.000 HD
ENDROOT
BRANCH   2   5
ATOM      5  C   UNL     1       6.165   5.417  18.902  0.00  0.00    +0.000 C 
BRANCH   5   6
ATOM      6  N   UNL     1       4.768   5.391  18.523  0.00  0.00    +0.000 N 
ATOM      7  C   UNL     1       4.020   6.587  18.137  0.00  0.00    +0.000 C 
ATOM      8  C   UNL     1       2.531   6.185  18.073  0.00  0.00    +0.000 C 
ATOM      9  C   UNL     1       2.617   4.692  18.121  0.00  0.00    +0.000 A 
ATOM     10  C   UNL     1       1.593   3.771  17.961  0.00  0.00    +0.000 A 
ATOM     11  C   UNL     1       1.898   2.420  18.116  0.00  0.00    +0.000 A 
ATOM     12  C   UNL     1       3.200   2.020  18.445  0.00  0.00    +0.000 A 
ATOM     13  C   UNL     1       4.218   2.967  18.608  0.00  0.00    +0.000 A 
ATOM     14  C   UNL     1       3.926   4.307  18.434  0.00  0.00    +0.000 A 
ENDBRANCH   5   6
ENDBRANCH   2   5
BRANCH   3  15
ATOM     15  C   UNL     1       7.696   5.270  15.369  0.00  0.00    +0.000 C 
BRANCH  15  16
ATOM     16  C   UNL     1       6.848   4.667  14.273  0.00  0.00    +0.000 A 
ATOM     17  C   UNL     1       7.385   4.421  13.000  0.00  0.00    +0.000 A 
ATOM     18  C   UNL     1       6.603   3.834  12.001  0.00  0.00    +0.000 A 
ATOM     19  C   UNL     1       5.279   3.490  12.271  0.00  0.00    +0.000 A 
ATOM     20 CL   UNL     1       4.320   2.756  11.045  0.00  0.00    +0.000 Cl
ATOM     21  C   UNL     1       4.730   3.731  13.528  0.00  0.00    +0.000 A 
ATOM     22  C   UNL     1       5.512   4.316  14.526  0.00  0.00    +0.000 A 
ENDBRANCH  15  16
ENDBRANCH   3  15
TORSDOF 4
ENDMDL
MODEL 4
REMARK VINA RESULT:      -7.1      4.202      6.177
REMARK  Name = 
REMARK  4 active torsions:
REMARK  status: ('A' for Active; 'I' for Inactive)
REMARK    1  A    between atoms: C_2  and  C_3
REMARK    2  A    between atoms: C_3  and  N_4
REMARK    3  A    between atoms: N_13  and  C_14
REMARK    4  A    between atoms: C_14  and  C_15
REMARK                            x       y       z     vdW  Elec       q    Type
REMARK                         _______ _______ _______ _____ _____    ______ ____
ROOT
ATOM      1  O   UNL     1       5.984   6.690  17.417  0.00  0.00    +0.000 OA
ATOM      2  C   UNL     1       5.111   5.942  17.881  0.00  0.00    +0.000 C 
ATOM      3  N   UNL     1       3.808   6.356  17.958  0.00  0.00    +0.000 N 
ATOM      4  H   UNL     1       3.146   5.687  18.330  0.00  0.00    +0.000 HD
ENDROOT
BRANCH   2   5
ATOM      5  C   UNL     1       5.424   4.554  18.464  0.00  0.00    +0.000 C 
BRANCH   5   6
ATOM      6  N   UNL     1       4.277   3.671  18.463  0.00  0.00    +0.000 N 
ATOM      7  C   UNL     1       3.997   2.723  17.384  0.00  0.00    +0.000 C 
ATOM      8  C   UNL     1       2.573   2.177  17.624  0.00  0.00    +0.000 C 
ATOM      9  C   UNL     1       2.301   2.642  19.020  0.00  0.00    +0.000 A 
ATOM     10  C   UNL     1       1.217   2.332  19.828  0.00  0.00    +0.000 A 
ATOM     11  C   UNL     1       1.139   2.940  21.079  0.00  0.00    +0.000 A 
ATOM     12  C   UNL     1       2.122   3.852  21.488  0.00  0.00    +0.000 A 
ATOM     13  C   UNL     1       3.204   4.155  20.653  0.00  0.00    +0.000 A 
ATOM     14  C   UNL     1       3.298   3.538  19.420  0.00  0.00    +0.000 A 
ENDBRANCH   5   6
ENDBRANCH   2   5
BRANCH   3  15
ATOM     15  C   UNL     1       3.314   7.624  17.477  0.00  0.00    +0.000 C 
BRANCH  15  16
ATOM     16  C   UNL     1       2.350   8.256  18.453  0.00  0.00    +0.000 A 
ATOM     17  C   UNL     1       2.143   7.697  19.724  0.00  0.00    +0.000 A 
ATOM     18  C   UNL     1       1.273   8.305  20.634  0.00  0.00    +0.000 A 
ATOM     19  C   UNL     1       0.605   9.475  20.277  0.00  0.00    +0.000 A 
ATOM     20 CL   UNL     1      -0.457  10.230  21.400  0.00  0.00    +0.000 Cl
ATOM     21  C   UNL     1       0.795  10.040  19.018  0.00  0.00    +0.000 A 
ATOM     22  C   UNL     1       1.666   9.434  18.110  0.00  0.00    +0.000 A 
ENDBRANCH  15  16
ENDBRANCH   3  15
TORSDOF 4
ENDMDL
MODEL 5
REMARK VINA RESULT:      -7.1      4.483      6.966
REMARK  Name = 
REMARK  4 active torsions:
REMARK  status: ('A' for Active; 'I' for Inactive)
REMARK    1  A    between atoms: C_2  and  C_3
REMARK    2  A    between atoms: C_3  and  N_4
REMARK    3  A    between atoms: N_13  and  C_14
REMARK    4  A    between atoms: C_14  and  C_15
REMARK                            x       y       z     vdW  Elec       q    Type
REMARK                         _______ _______ _______ _____ _____    ______ ____
ROOT
ATOM      1  O   UNL     1       4.687   7.446  16.921  0.00  0.00    +0.000 OA
ATOM      2  C   UNL     1       4.157   6.693  17.752  0.00  0.00    +0.000 C 
ATOM      3  N   UNL     1       2.962   7.023  18.330  0.00  0.00    +0.000 N 
ATOM      4  H   UNL     1       2.579   6.353  18.985  0.00  0.00    +0.000 HD
ENDROOT
BRANCH   2   5
ATOM      5  C   UNL     1       4.821   5.397  18.245  0.00  0.00    +0.000 C 
BRANCH   5   6
ATOM      6  N   UNL     1       3.903   4.279  18.298  0.00  0.00    +0.000 N 
ATOM      7  C   UNL     1       3.740   3.324  17.201  0.00  0.00    +0.000 C 
ATOM      8  C   UNL     1       2.501   2.465  17.534  0.00  0.00    +0.000 C 
ATOM      9  C   UNL     1       2.265   2.816  18.969  0.00  0.00    +0.000 A 
ATOM     10  C   UNL     1       1.357   2.247  19.850  0.00  0.00    +0.000 A 
ATOM     11  C   UNL     1       1.264   2.785  21.132  0.00  0.00    +0.000 A 
ATOM     12  C   UNL     1       2.055   3.882  21.500  0.00  0.00    +0.000 A 
ATOM     13  C   UNL     1       2.960   4.445  20.593  0.00  0.00    +0.000 A 
ATOM     14  C   UNL     1       3.072   3.901  19.327  0.00  0.00    +0.000 A 
ENDBRANCH   5   6
ENDBRANCH   2   5
BRANCH   3  15
ATOM     15  C   UNL     1       2.187   8.200  18.012  0.00  0.00    +0.000 C 
BRANCH  15  16
ATOM     16  C   UNL     1       1.485   8.754  19.229  0.00  0.00    +0.000 A 
ATOM     17  C   UNL     1       0.669   9.892  19.134  0.00  0.00    +0.000 A 
ATOM     18  C   UNL     1      -0.003  10.380  20.259  0.00  0.00    +0.000 A 
ATOM     19  C   UNL     1       0.139   9.732  21.485  0.00  0.00    +0.000 A 
ATOM     20 CL   UNL     1      -0.698  10.326  22.866  0.00  0.00    +0.000 Cl
ATOM     21  C   UNL     1       0.948   8.605  21.597  0.00  0.00    +0.000 A 
ATOM     22  C   UNL     1       1.618   8.116  20.473  0.00  0.00    +0.000 A 
ENDBRANCH  15  16
ENDBRANCH   3  15
TORSDOF 4
ENDMDL
MODEL 6
REMARK VINA RESULT:      -7.1      4.172      6.113
REMARK  Name = 
REMARK  4 active torsions:
REMARK  status: ('A' for Active; 'I' for Inactive)
REMARK    1  A    between atoms: C_2  and  C_3
REMARK    2  A    between atoms: C_3  and  N_4
REMARK    3  A    between atoms: N_13  and  C_14
REMARK    4  A    between atoms: C_14  and  C_15
REMARK                            x       y       z     vdW  Elec       q    Type
REMARK                         _______ _______ _______ _____ _____    ______ ____
ROOT
ATOM      1  O   UNL     1       6.074   6.601  17.475  0.00  0.00    +0.000 OA
ATOM      2  C   UNL     1       5.160   5.875  17.890  0.00  0.00    +0.000 C 
ATOM      3  N   UNL     1       3.863   6.311  17.877  0.00  0.00    +0.000 N 
ATOM      4  H   UNL     1       3.166   5.658  18.213  0.00  0.00    +0.000 HD
ENDROOT
BRANCH   2   5
ATOM      5  C   UNL     1       5.411   4.490  18.511  0.00  0.00    +0.000 C 
BRANCH   5   6
ATOM      6  N   UNL     1       4.235   3.644  18.492  0.00  0.00    +0.000 N 
ATOM      7  C   UNL     1       3.928   2.724  17.397  0.00  0.00    +0.000 C 
ATOM      8  C   UNL     1       2.487   2.220  17.625  0.00  0.00    +0.000 C 
ATOM      9  C   UNL     1       2.226   2.669  19.028  0.00  0.00    +0.000 A 
ATOM     10  C   UNL     1       1.132   2.381  19.829  0.00  0.00    +0.000 A 
ATOM     11  C   UNL     1       1.069   2.970  21.090  0.00  0.00    +0.000 A 
ATOM     12  C   UNL     1       2.080   3.843  21.516  0.00  0.00    +0.000 A 
ATOM     13  C   UNL     1       3.173   4.126  20.689  0.00  0.00    +0.000 A 
ATOM     14  C   UNL     1       3.251   3.526  19.446  0.00  0.00    +0.000 A 
ENDBRANCH   5   6
ENDBRANCH   2   5
BRANCH   3  15
ATOM     15  C   UNL     1       3.423   7.581  17.348  0.00  0.00    +0.000 C 
BRANCH  15  16
ATOM     16  C   UNL     1       2.475   8.282  18.293  0.00  0.00    +0.000 A 
ATOM     17  C   UNL     1       1.841   9.478  17.920  0.00  0.00    +0.000 A 
ATOM     18  C   UNL     1       0.941  10.104  18.787  0.00  0.00    +0.000 A 
ATOM     19  C   UNL     1       0.671   9.538  20.032  0.00  0.00    +0.000 A 
ATOM     20 CL   UNL     1      -0.446  10.302  21.095  0.00  0.00    +0.000 Cl
ATOM     21  C   UNL     1       1.296   8.355  20.419  0.00  0.00    +0.000 A 
ATOM     22  C   UNL     1       2.194   7.728  19.552  0.00  0.00    +0.000 A 
ENDBRANCH  15  16
ENDBRANCH   3  15
TORSDOF 4
ENDMDL
MODEL 7
REMARK VINA RESULT:      -7.0      1.159      2.102
REMARK  Name = 
REMARK  4 active torsions:
REMARK  status: ('A' for Active; 'I' for Inactive)
REMARK    1  A    between atoms: C_2  and  C_3
REMARK    2  A    between atoms: C_3  and  N_4
REMARK    3  A    between atoms: N_13  and  C_14
REMARK    4  A    between atoms: C_14  and  C_15
REMARK                            x       y       z     vdW  Elec       q    Type
REMARK                         _______ _______ _______ _____ _____    ______ ____
ROOT
ATOM      1  O   UNL     1       7.776   4.460  18.206  0.00  0.00    +0.000 OA
ATOM      2  C   UNL     1       6.689   5.022  18.009  0.00  0.00    +0.000 C 
ATOM      3  N   UNL     1       6.435   5.651  16.820  0.00  0.00    +0.000 N 
ATOM      4  H   UNL     1       5.520   6.071  16.721  0.00  0.00    +0.000 HD
ENDROOT
BRANCH   2   5
ATOM      5  C   UNL     1       5.594   5.122  19.084  0.00  0.00    +0.000 C 
BRANCH   5   6
ATOM      6  N   UNL     1       4.499   4.202  18.860  0.00  0.00    +0.000 N 
ATOM      7  C   UNL     1       4.600   3.037  17.980  0.00  0.00    +0.000 C 
ATOM      8  C   UNL     1       3.170   2.481  17.805  0.00  0.00    +0.000 C 
ATOM      9  C   UNL     1       2.427   3.213  18.878  0.00  0.00    +0.000 A 
ATOM     10  C   UNL     1       1.116   3.024  19.291  0.00  0.00    +0.000 A 
ATOM     11  C   UNL     1       0.610   3.875  20.272  0.00  0.00    +0.000 A 
ATOM     12  C   UNL     1       1.405   4.899  20.801  0.00  0.00    +0.000 A 
ATOM     13  C   UNL     1       2.724   5.077  20.365  0.00  0.00    +0.000 A 
ATOM     14  C   UNL     1       3.238   4.221  19.409  0.00  0.00    +0.000 A 
ENDBRANCH   5   6
ENDBRANCH   2   5
BRANCH   3  15
ATOM     15  C   UNL     1       7.336   5.680  15.692  0.00  0.00    +0.000 C 
BRANCH  15  16
ATOM     16  C   UNL     1       6.787   4.904  14.517  0.00  0.00    +0.000 A 
ATOM     17  C   UNL     1       7.500   4.825  13.310  0.00  0.00    +0.000 A 
ATOM     18  C   UNL     1       7.000   4.079  12.239  0.00  0.00    +0.000 A 
ATOM     19  C   UNL     1       5.785   3.408  12.368  0.00  0.00    +0.000 A 
ATOM     20 CL   UNL     1       5.176   2.481  11.054  0.00  0.00    +0.000 Cl
ATOM     21  C   UNL     1       5.063   3.481  13.557  0.00  0.00    +0.000 A 
ATOM     22  C   UNL     1       5.563   4.225  14.628  0.00  0.00    +0.000 A 
ENDBRANCH  15  16
ENDBRANCH   3  15
TORSDOF 4
ENDMDL
MODEL 8
REMARK VINA RESULT:      -7.0      3.636      6.696
REMARK  Name = 
REMARK  4 active torsions:
REMARK  status: ('A' for Active; 'I' for Inactive)
REMARK    1  A    between atoms: C_2  and  C_3
REMARK    2  A    between atoms: C_3  and  N_4
REMARK    3  A    between atoms: N_13  and  C_14
REMARK    4  A    between atoms: C_14  and  C_15
REMARK                            x       y       z     vdW  Elec       q    Type
REMARK                         _______ _______ _______ _____ _____    ______ ____
ROOT
ATOM      1  O   UNL     1       2.527   2.703  21.073  0.00  0.00    +0.000 OA
ATOM      2  C   UNL     1       3.263   3.391  20.351  0.00  0.00    +0.000 C 
ATOM      3  N   UNL     1       3.012   4.723  20.167  0.00  0.00    +0.000 N 
ATOM      4  H   UNL     1       3.665   5.226  19.579  0.00  0.00    +0.000 HD
ENDROOT
BRANCH   2   5
ATOM      5  C   UNL     1       4.442   2.801  19.560  0.00  0.00    +0.000 C 
BRANCH   5   6
ATOM      6  N   UNL     1       4.781   3.581  18.388  0.00  0.00    +0.000 N 
ATOM      7  C   UNL     1       4.095   3.435  17.104  0.00  0.00    +0.000 C 
ATOM      8  C   UNL     1       4.913   4.232  16.065  0.00  0.00    +0.000 C 
ATOM      9  C   UNL     1       5.826   5.028  16.944  0.00  0.00    +0.000 A 
ATOM     10  C   UNL     1       6.707   6.034  16.574  0.00  0.00    +0.000 A 
ATOM     11  C   UNL     1       7.515   6.593  17.562  0.00  0.00    +0.000 A 
ATOM     12  C   UNL     1       7.443   6.129  18.882  0.00  0.00    +0.000 A 
ATOM     13  C   UNL     1       6.552   5.108  19.233  0.00  0.00    +0.000 A 
ATOM     14  C   UNL     1       5.733   4.565  18.261  0.00  0.00    +0.000 A 
ENDBRANCH   5   6
ENDBRANCH   2   5
BRANCH   3  15
ATOM     15  C   UNL     1       1.949   5.460  20.809  0.00  0.00    +0.000 C 
BRANCH  15  16
ATOM     16  C   UNL     1       1.804   6.850  20.233  0.00  0.00    +0.000 A 
ATOM     17  C   UNL     1       2.312   7.159  18.961  0.00  0.00    +0.000 A 
ATOM     18  C   UNL     1       2.147   8.438  18.423  0.00  0.00    +0.000 A 
ATOM     19  C   UNL     1       1.473   9.415  19.153  0.00  0.00    +0.000 A 
ATOM     20 CL   UNL     1       1.259  10.986  18.485  0.00  0.00    +0.000 Cl
ATOM     21  C   UNL     1       0.967   9.126  20.418  0.00  0.00    +0.000 A 
ATOM     22  C   UNL     1       1.131   7.848  20.956  0.00  0.00    +0.000 A 
ENDBRANCH  15  16
ENDBRANCH   3  15
TORSDOF 4
ENDMDL
MODEL 9
REMARK VINA RESULT:      -6.9      4.356      7.457
REMARK  Name = 
REMARK  4 active torsions:
REMARK  status: ('A' for Active; 'I' for Inactive)
REMARK    1  A    between atoms: C_2  and  C_3
REMARK    2  A    between atoms: C_3  and  N_4
REMARK    3  A    between atoms: N_13  and  C_14
REMARK    4  A    between atoms: C_14  and  C_15
REMARK                            x       y       z     vdW  Elec       q    Type
REMARK                         _______ _______ _______ _____ _____    ______ ____
ROOT
ATOM      1  O   UNL     1       1.828   5.118  18.101  0.00  0.00    +0.000 OA
ATOM      2  C   UNL     1       2.867   5.551  18.621  0.00  0.00    +0.000 C 
ATOM      3  N   UNL     1       3.105   6.897  18.685  0.00  0.00    +0.000 N 
ATOM      4  H   UNL     1       3.963   7.180  19.141  0.00  0.00    +0.000 HD
ENDROOT
BRANCH   2   5
ATOM      5  C   UNL     1       3.980   4.633  19.152  0.00  0.00    +0.000 C 
BRANCH   5   6
ATOM      6  N   UNL     1       5.263   4.888  18.532  0.00  0.00    +0.000 N 
ATOM      7  C   UNL     1       6.427   5.375  19.272  0.00  0.00    +0.000 C 
ATOM      8  C   UNL     1       7.493   5.768  18.225  0.00  0.00    +0.000 C 
ATOM      9  C   UNL     1       6.934   5.155  16.979  0.00  0.00    +0.000 A 
ATOM     10  C   UNL     1       7.529   5.064  15.730  0.00  0.00    +0.000 A 
ATOM     11  C   UNL     1       6.788   4.507  14.690  0.00  0.00    +0.000 A 
ATOM     12  C   UNL     1       5.473   4.074  14.910  0.00  0.00    +0.000 A 
ATOM     13  C   UNL     1       4.889   4.181  16.177  0.00  0.00    +0.000 A 
ATOM     14  C   UNL     1       5.628   4.712  17.217  0.00  0.00    +0.000 A 
ENDBRANCH   5   6
ENDBRANCH   2   5
BRANCH   3  15
ATOM     15  C   UNL     1       2.192   7.920  18.232  0.00  0.00    +0.000 C 
BRANCH  15  16
ATOM     16  C   UNL     1       1.492   8.597  19.388  0.00  0.00    +0.000 A 
ATOM     17  C   UNL     1       0.755   9.776  19.192  0.00  0.00    +0.000 A 
ATOM     18  C   UNL     1       0.084  10.379  20.260  0.00  0.00    +0.000 A 
ATOM     19  C   UNL     1       0.147   9.807  21.529  0.00  0.00    +0.000 A 
ATOM     20 CL   UNL     1      -0.689  10.542  22.841  0.00  0.00    +0.000 Cl
ATOM     21  C   UNL     1       0.877   8.640  21.741  0.00  0.00    +0.000 A 
ATOM     22  C   UNL     1       1.546   8.037  20.674  0.00  0.00    +0.000 A 
ENDBRANCH  15  16
ENDBRANCH   3  15
TORSDOF 4
ENDMDL
