MODEL 1
REMARK VINA RESULT:      -7.4      0.000      0.000
REMARK  Name = 
REMARK  6 active torsions:
REMARK  status: ('A' for Active; 'I' for Inactive)
REMARK    1  A    between atoms: C_1  and  C_2
REMARK    2  A    between atoms: C_6  and  C_7
REMARK    3  A    between atoms: C_7  and  N_8
REMARK    4  A    between atoms: C_11  and  N_12
REMARK    5  A    between atoms: C_14  and  C_15
REMARK    6  A    between atoms: C_17  and  C_18
REMARK                            x       y       z     vdW  Elec       q    Type
REMARK                         _______ _______ _______ _____ _____    ______ ____
ROOT
ATOM      1  N   UNL     1       1.682   6.762  20.054  0.00  0.00    +0.000 NA
ATOM      2  C   UNL     1       2.452   7.001  18.832  0.00  0.00    +0.000 C 
ATOM      3  C   UNL     1       2.451   5.839  17.837  0.00  0.00    +0.000 C 
ATOM      4  C   UNL     1       2.803   4.461  18.419  0.00  0.00    +0.000 C 
ATOM      5  C   UNL     1       1.994   4.256  19.716  0.00  0.00    +0.000 C 
ATOM      6  C   UNL     1       1.922   5.451  20.680  0.00  0.00    +0.000 C 
ENDROOT
BRANCH   4   7
ATOM      7  N   UNL     1       4.198   3.970  18.389  0.00  0.00    +0.000 NA
ATOM      8  C   UNL     1       4.696   3.492  17.091  0.00  0.00    +0.000 C 
ATOM      9  C   UNL     1       5.567   4.533  16.361  0.00  0.00    +0.000 C 
ATOM     10  C   UNL     1       6.171   3.960  15.092  0.00  0.00    +0.000 C 
ATOM     11  O   UNL     1       6.674   4.892  17.167  0.00  0.00    +0.000 OA
ATOM     12  C   UNL     1       6.264   5.469  18.409  0.00  0.00    +0.000 C 
ATOM     13  C   UNL     1       7.611   5.773  19.047  0.00  0.00    +0.000 C 
ATOM     14  C   UNL     1       5.301   4.524  19.194  0.00  0.00    +0.000 C 
ENDBRANCH   4   7
BRANCH   1  15
ATOM     15  C   UNL     1       1.814   7.888  21.025  0.00  0.00    +0.000 C 
BRANCH  15  21
ATOM     16  C   UNL     1      -1.260  10.941  23.165  0.00  0.00    +0.000 C 
ATOM     17  C   UNL     1      -0.637  10.673  21.835  0.00  0.00    +0.000 A 
ATOM     18  C   UNL     1      -0.765  11.396  20.646  0.00  0.00    +0.000 A 
ATOM     19  C   UNL     1      -0.090  10.911  19.509  0.00  0.00    +0.000 A 
ATOM     20  C   UNL     1       0.707   9.752  19.559  0.00  0.00    +0.000 A 
ATOM     21  C   UNL     1       0.871   9.062  20.769  0.00  0.00    +0.000 A 
ATOM     22  C   UNL     1       0.190   9.547  21.864  0.00  0.00    +0.000 A 
ENDBRANCH  15  21
ENDBRANCH   1  15
TORSDOF 3
ENDMDL
MODEL 2
REMARK VINA RESULT:      -7.3      1.616      3.099
REMARK  Name = 
REMARK  6 active torsions:
REMARK  status: ('A' for Active; 'I' for Inactive)
REMARK    1  A    between atoms: C_1  and  C_2
REMARK    2  A    between atoms: C_6  and  C_7
REMARK    3  A    between atoms: C_7  and  N_8
REMARK    4  A    between atoms: C_11  and  N_12
REMARK    5  A    between atoms: C_14  and  C_15
REMARK    6  A    between atoms: C_17  and  C_18
REMARK                            x       y       z     vdW  Elec       q    Type
REMARK                         _______ _______ _______ _____ _____    ______ ____
ROOT
ATOM      1  N   UNL     1       2.687   4.177  19.732  0.00  0.00    +0.000 NA
ATOM      2  C   UNL     1       2.096   4.213  18.394  0.00  0.00    +0.000 C 
ATOM      3  C   UNL     1       2.906   3.490  17.316  0.00  0.00    +0.000 C 
ATOM      4  C   UNL     1       4.397   3.857  17.242  0.00  0.00    +0.000 C 
ATOM      5  C   UNL     1       4.977   3.835  18.671  0.00  0.00    +0.000 C 
ATOM      6  C   UNL     1       4.126   4.486  19.772  0.00  0.00    +0.000 C 
ENDROOT
BRANCH   4   7
ATOM      7  N   UNL     1       4.861   4.919  16.324  0.00  0.00    +0.000 NA
ATOM      8  C   UNL     1       5.470   6.104  16.948  0.00  0.00    +0.000 C 
ATOM      9  C   UNL     1       7.011   6.079  16.908  0.00  0.00    +0.000 C 
ATOM     10  C   UNL     1       7.601   7.372  17.438  0.00  0.00    +0.000 C 
ATOM     11  O   UNL     1       7.462   5.989  15.569  0.00  0.00    +0.000 OA
ATOM     12  C   UNL     1       6.995   4.800  14.928  0.00  0.00    +0.000 C 
ATOM     13  C   UNL     1       7.627   4.944  13.552  0.00  0.00    +0.000 C 
ATOM     14  C   UNL     1       5.440   4.683  14.989  0.00  0.00    +0.000 C 
ENDBRANCH   4   7
BRANCH   1  15
ATOM     15  C   UNL     1       1.904   4.991  20.709  0.00  0.00    +0.000 C 
BRANCH  15  21
ATOM     16  C   UNL     1      -0.003   9.194  22.140  0.00  0.00    +0.000 C 
ATOM     17  C   UNL     1       0.788   8.607  21.017  0.00  0.00    +0.000 A 
ATOM     18  C   UNL     1       1.327   9.246  19.898  0.00  0.00    +0.000 A 
ATOM     19  C   UNL     1       2.014   8.453  18.958  0.00  0.00    +0.000 A 
ATOM     20  C   UNL     1       2.179   7.066  19.139  0.00  0.00    +0.000 A 
ATOM     21  C   UNL     1       1.679   6.443  20.291  0.00  0.00    +0.000 A 
ATOM     22  C   UNL     1       0.999   7.237  21.189  0.00  0.00    +0.000 A 
ENDBRANCH  15  21
ENDBRANCH   1  15
TORSDOF 3
ENDMDL
MODEL 3
REMARK VINA RESULT:      -7.3      0.561      1.480
REMARK  Name = 
REMARK  6 active torsions:
REMARK  status: ('A' for Active; 'I' for Inactive)
REMARK    1  A    between atoms: C_1  and  C_2
REMARK    2  A    between atoms: C_6  and  C_7
REMARK    3  A    between atoms: C_7  and  N_8
REMARK    4  A    between atoms: C_11  and  N_12
REMARK    5  A    between atoms: C_14  and  C_15
REMARK    6  A    between atoms: C_17  and  C_18
REMARK                            x       y       z     vdW  Elec       q    Type
REMARK                         _______ _______ _______ _____ _____    ______ ____
ROOT
ATOM      1  N   UNL     1       1.658   6.982  20.317  0.00  0.00    +0.000 NA
ATOM      2  C   UNL     1       2.554   7.351  19.221  0.00  0.00    +0.000 C 
ATOM      3  C   UNL     1       2.522   6.404  18.019  0.00  0.00    +0.000 C 
ATOM      4  C   UNL     1       2.676   4.910  18.343  0.00  0.00    +0.000 C 
ATOM      5  C   UNL     1       1.738   4.564  19.518  0.00  0.00    +0.000 C 
ATOM      6  C   UNL     1       1.705   5.558  20.690  0.00  0.00    +0.000 C 
ENDROOT
BRANCH   4   7
ATOM      7  N   UNL     1       4.009   4.272  18.312  0.00  0.00    +0.000 NA
ATOM      8  C   UNL     1       4.451   3.739  17.014  0.00  0.00    +0.000 C 
ATOM      9  C   UNL     1       5.428   4.679  16.280  0.00  0.00    +0.000 C 
ATOM     10  C   UNL     1       5.963   4.041  15.011  0.00  0.00    +0.000 C 
ATOM     11  O   UNL     1       6.568   4.918  17.083  0.00  0.00    +0.000 OA
ATOM     12  C   UNL     1       6.226   5.539  18.324  0.00  0.00    +0.000 C 
ATOM     13  C   UNL     1       7.599   5.698  18.959  0.00  0.00    +0.000 C 
ATOM     14  C   UNL     1       5.168   4.706  19.114  0.00  0.00    +0.000 C 
ENDBRANCH   4   7
BRANCH   1  15
ATOM     15  C   UNL     1       1.819   7.883  21.496  0.00  0.00    +0.000 C 
BRANCH  15  21
ATOM     16  C   UNL     1      -0.779  10.875  18.730  0.00  0.00    +0.000 C 
ATOM     17  C   UNL     1      -0.545  10.541  20.166  0.00  0.00    +0.000 A 
ATOM     18  C   UNL     1      -1.164  11.071  21.301  0.00  0.00    +0.000 A 
ATOM     19  C   UNL     1      -0.737  10.604  22.559  0.00  0.00    +0.000 A 
ATOM     20  C   UNL     1       0.263   9.620  22.684  0.00  0.00    +0.000 A 
ATOM     21  C   UNL     1       0.841   9.057  21.537  0.00  0.00    +0.000 A 
ATOM     22  C   UNL     1       0.418   9.540  20.318  0.00  0.00    +0.000 A 
ENDBRANCH  15  21
ENDBRANCH   1  15
TORSDOF 3
ENDMDL
MODEL 4
REMARK VINA RESULT:      -7.1      1.883      3.607
REMARK  Name = 
REMARK  6 active torsions:
REMARK  status: ('A' for Active; 'I' for Inactive)
REMARK    1  A    between atoms: C_1  and  C_2
REMARK    2  A    between atoms: C_6  and  C_7
REMARK    3  A    between atoms: C_7  and  N_8
REMARK    4  A    between atoms: C_11  and  N_12
REMARK    5  A    between atoms: C_14  and  C_15
REMARK    6  A    between atoms: C_17  and  C_18
REMARK                            x       y       z     vdW  Elec       q    Type
REMARK                         _______ _______ _______ _____ _____    ______ ____
ROOT
ATOM      1  N   UNL     1       2.565   4.097  19.748  0.00  0.00    +0.000 NA
ATOM      2  C   UNL     1       2.007   4.165  18.397  0.00  0.00    +0.000 C 
ATOM      3  C   UNL     1       2.850   3.480  17.320  0.00  0.00    +0.000 C 
ATOM      4  C   UNL     1       4.338   3.861  17.294  0.00  0.00    +0.000 C 
ATOM      5  C   UNL     1       4.884   3.803  18.735  0.00  0.00    +0.000 C 
ATOM      6  C   UNL     1       3.999   4.417  19.832  0.00  0.00    +0.000 C 
ENDROOT
BRANCH   4   7
ATOM      7  N   UNL     1       4.815   4.952  16.417  0.00  0.00    +0.000 NA
ATOM      8  C   UNL     1       5.461   6.093  17.084  0.00  0.00    +0.000 C 
ATOM      9  C   UNL     1       7.000   6.034  17.021  0.00  0.00    +0.000 C 
ATOM     10  C   UNL     1       7.628   7.288  17.600  0.00  0.00    +0.000 C 
ATOM     11  O   UNL     1       7.430   5.994  15.673  0.00  0.00    +0.000 OA
ATOM     12  C   UNL     1       6.927   4.846  14.986  0.00  0.00    +0.000 C 
ATOM     13  C   UNL     1       7.543   5.037  13.609  0.00  0.00    +0.000 C 
ATOM     14  C   UNL     1       5.370   4.763  15.064  0.00  0.00    +0.000 C 
ENDBRANCH   4   7
BRANCH   1  15
ATOM     15  C   UNL     1       1.751   4.876  20.727  0.00  0.00    +0.000 C 
BRANCH  15  21
ATOM     16  C   UNL     1       2.762   8.270  17.439  0.00  0.00    +0.000 C 
ATOM     17  C   UNL     1       2.127   8.115  18.781  0.00  0.00    +0.000 A 
ATOM     18  C   UNL     1       1.498   9.082  19.569  0.00  0.00    +0.000 A 
ATOM     19  C   UNL     1       1.001   8.683  20.825  0.00  0.00    +0.000 A 
ATOM     20  C   UNL     1       1.108   7.353  21.275  0.00  0.00    +0.000 A 
ATOM     21  C   UNL     1       1.695   6.378  20.455  0.00  0.00    +0.000 A 
ATOM     22  C   UNL     1       2.186   6.796  19.237  0.00  0.00    +0.000 A 
ENDBRANCH  15  21
ENDBRANCH   1  15
TORSDOF 3
ENDMDL
MODEL 5
REMARK VINA RESULT:      -6.8      3.995      7.426
REMARK  Name = 
REMARK  6 active torsions:
REMARK  status: ('A' for Active; 'I' for Inactive)
REMARK    1  A    between atoms: C_1  and  C_2
REMARK    2  A    between atoms: C_6  and  C_7
REMARK    3  A    between atoms: C_7  and  N_8
REMARK    4  A    between atoms: C_11  and  N_12
REMARK    5  A    between atoms: C_14  and  C_15
REMARK    6  A    between atoms: C_17  and  C_18
REMARK                            x       y       z     vdW  Elec       q    Type
REMARK                         _______ _______ _______ _____ _____    ______ ____
ROOT
ATOM      1  N   UNL     1       8.006   7.863  17.680  0.00  0.00    +0.000 NA
ATOM      2  C   UNL     1       8.081   7.307  19.031  0.00  0.00    +0.000 C 
ATOM      3  C   UNL     1       8.115   5.779  19.094  0.00  0.00    +0.000 C 
ATOM      4  C   UNL     1       7.028   5.053  18.287  0.00  0.00    +0.000 C 
ATOM      5  C   UNL     1       6.961   5.682  16.880  0.00  0.00    +0.000 C 
ATOM      6  C   UNL     1       7.011   7.216  16.808  0.00  0.00    +0.000 C 
ENDROOT
BRANCH   4   7
ATOM      7  N   UNL     1       5.756   4.659  18.930  0.00  0.00    +0.000 NA
ATOM      8  C   UNL     1       4.770   5.730  19.141  0.00  0.00    +0.000 C 
ATOM      9  C   UNL     1       3.657   5.740  18.074  0.00  0.00    +0.000 C 
ATOM     10  C   UNL     1       2.590   6.769  18.396  0.00  0.00    +0.000 C 
ATOM     11  O   UNL     1       2.981   4.497  18.064  0.00  0.00    +0.000 OA
ATOM     12  C   UNL     1       3.861   3.414  17.757  0.00  0.00    +0.000 C 
ATOM     13  C   UNL     1       2.898   2.237  17.790  0.00  0.00    +0.000 C 
ATOM     14  C   UNL     1       5.079   3.364  18.732  0.00  0.00    +0.000 C 
ENDBRANCH   4   7
BRANCH   1  15
ATOM     15  C   UNL     1       7.866   9.349  17.695  0.00  0.00    +0.000 C 
BRANCH  15  21
ATOM     16  C   UNL     1      11.632  12.353  17.308  0.00  0.00    +0.000 C 
ATOM     17  C   UNL     1      10.809  11.660  18.344  0.00  0.00    +0.000 A 
ATOM     18  C   UNL     1      10.895  11.750  19.735  0.00  0.00    +0.000 A 
ATOM     19  C   UNL     1      10.011  10.963  20.499  0.00  0.00    +0.000 A 
ATOM     20  C   UNL     1       9.054  10.125  19.894  0.00  0.00    +0.000 A 
ATOM     21  C   UNL     1       8.941  10.081  18.497  0.00  0.00    +0.000 A 
ATOM     22  C   UNL     1       9.825  10.849  17.771  0.00  0.00    +0.000 A 
ENDBRANCH  15  21
ENDBRANCH   1  15
TORSDOF 3
ENDMDL
MODEL 6
REMARK VINA RESULT:      -6.8      3.589      8.007
REMARK  Name = 
REMARK  6 active torsions:
REMARK  status: ('A' for Active; 'I' for Inactive)
REMARK    1  A    between atoms: C_1  and  C_2
REMARK    2  A    between atoms: C_6  and  C_7
REMARK    3  A    between atoms: C_7  and  N_8
REMARK    4  A    between atoms: C_11  and  N_12
REMARK    5  A    between atoms: C_14  and  C_15
REMARK    6  A    between atoms: C_17  and  C_18
REMARK                            x       y       z     vdW  Elec       q    Type
REMARK                         _______ _______ _______ _____ _____    ______ ____
ROOT
ATOM      1  N   UNL     1       1.259   8.228  19.615  0.00  0.00    +0.000 NA
ATOM      2  C   UNL     1       0.858   8.762  20.917  0.00  0.00    +0.000 C 
ATOM      3  C   UNL     1      -0.308   9.752  20.872  0.00  0.00    +0.000 C 
ATOM      4  C   UNL     1      -0.172  10.896  19.854  0.00  0.00    +0.000 C 
ATOM      5  C   UNL     1       0.277  10.299  18.504  0.00  0.00    +0.000 C 
ATOM      6  C   UNL     1       1.390   9.240  18.554  0.00  0.00    +0.000 C 
ENDROOT
BRANCH   4   7
ATOM      7  N   UNL     1       0.403  12.195  20.261  0.00  0.00    +0.000 NA
ATOM      8  C   UNL     1       1.777  12.471  19.815  0.00  0.00    +0.000 C 
ATOM      9  C   UNL     1       1.834  13.392  18.579  0.00  0.00    +0.000 C 
ATOM     10  C   UNL     1       3.263  13.761  18.228  0.00  0.00    +0.000 C 
ATOM     11  O   UNL     1       1.193  14.622  18.859  0.00  0.00    +0.000 OA
ATOM     12  C   UNL     1      -0.184  14.440  19.197  0.00  0.00    +0.000 C 
ATOM     13  C   UNL     1      -0.622  15.880  19.419  0.00  0.00    +0.000 C 
ATOM     14  C   UNL     1      -0.360  13.450  20.390  0.00  0.00    +0.000 C 
ENDBRANCH   4   7
BRANCH   1  15
ATOM     15  C   UNL     1       2.466   7.356  19.719  0.00  0.00    +0.000 C 
BRANCH  15  21
ATOM     16  C   UNL     1       1.336   2.962  21.384  0.00  0.00    +0.000 C 
ATOM     17  C   UNL     1       1.596   3.679  20.100  0.00  0.00    +0.000 A 
ATOM     18  C   UNL     1       1.523   3.190  18.794  0.00  0.00    +0.000 A 
ATOM     19  C   UNL     1       1.850   4.071  17.745  0.00  0.00    +0.000 A 
ATOM     20  C   UNL     1       2.219   5.408  17.988  0.00  0.00    +0.000 A 
ATOM     21  C   UNL     1       2.239   5.904  19.300  0.00  0.00    +0.000 A 
ATOM     22  C   UNL     1       1.929   5.020  20.310  0.00  0.00    +0.000 A 
ENDBRANCH  15  21
ENDBRANCH   1  15
TORSDOF 3
ENDMDL
MODEL 7
REMARK VINA RESULT:      -6.8      2.479      8.331
REMARK  Name = 
REMARK  6 active torsions:
REMARK  status: ('A' for Active; 'I' for Inactive)
REMARK    1  A    between atoms: C_1  and  C_2
REMARK    2  A    between atoms: C_6  and  C_7
REMARK    3  A    between atoms: C_7  and  N_8
REMARK    4  A    between atoms: C_11  and  N_12
REMARK    5  A    between atoms: C_14  and  C_15
REMARK    6  A    between atoms: C_17  and  C_18
REMARK                            x       y       z     vdW  Elec       q    Type
REMARK                         _______ _______ _______ _____ _____    ______ ____
ROOT
ATOM      1  N   UNL     1       5.906   4.806  16.698  0.00  0.00    +0.000 NA
ATOM      2  C   UNL     1       5.088   5.838  16.061  0.00  0.00    +0.000 C 
ATOM      3  C   UNL     1       4.802   7.060  16.937  0.00  0.00    +0.000 C 
ATOM      4  C   UNL     1       4.267   6.760  18.346  0.00  0.00    +0.000 C 
ATOM      5  C   UNL     1       5.135   5.652  18.974  0.00  0.00    +0.000 C 
ATOM      6  C   UNL     1       5.495   4.462  18.070  0.00  0.00    +0.000 C 
ENDROOT
BRANCH   4   7
ATOM      7  N   UNL     1       2.811   6.726  18.601  0.00  0.00    +0.000 NA
ATOM      8  C   UNL     1       2.239   5.419  18.958  0.00  0.00    +0.000 C 
ATOM      9  C   UNL     1       2.010   5.257  20.474  0.00  0.00    +0.000 C 
ATOM     10  C   UNL     1       1.300   3.955  20.792  0.00  0.00    +0.000 C 
ATOM     11  O   UNL     1       1.146   6.274  20.947  0.00  0.00    +0.000 OA
ATOM     12  C   UNL     1       1.689   7.578  20.730  0.00  0.00    +0.000 C 
ATOM     13  C   UNL     1       0.600   8.452  21.335  0.00  0.00    +0.000 C 
ATOM     14  C   UNL     1       2.041   7.816  19.228  0.00  0.00    +0.000 C 
ENDBRANCH   4   7
BRANCH   1  15
ATOM     15  C   UNL     1       6.055   3.599  15.832  0.00  0.00    +0.000 C 
BRANCH  15  21
ATOM     16  C   UNL     1       4.730   2.930  11.232  0.00  0.00    +0.000 C 
ATOM     17  C   UNL     1       5.760   3.642  12.046  0.00  0.00    +0.000 A 
ATOM     18  C   UNL     1       6.774   4.501  11.616  0.00  0.00    +0.000 A 
ATOM     19  C   UNL     1       7.646   5.026  12.591  0.00  0.00    +0.000 A 
ATOM     20  C   UNL     1       7.497   4.722  13.958  0.00  0.00    +0.000 A 
ATOM     21  C   UNL     1       6.444   3.900  14.385  0.00  0.00    +0.000 A 
ATOM     22  C   UNL     1       5.614   3.388  13.412  0.00  0.00    +0.000 A 
ENDBRANCH  15  21
ENDBRANCH   1  15
TORSDOF 3
ENDMDL
MODEL 8
REMARK VINA RESULT:      -6.8      1.256      2.155
REMARK  Name = 
REMARK  6 active torsions:
REMARK  status: ('A' for Active; 'I' for Inactive)
REMARK    1  A    between atoms: C_1  and  C_2
REMARK    2  A    between atoms: C_6  and  C_7
REMARK    3  A    between atoms: C_7  and  N_8
REMARK    4  A    between atoms: C_11  and  N_12
REMARK    5  A    between atoms: C_14  and  C_15
REMARK    6  A    between atoms: C_17  and  C_18
REMARK                            x       y       z     vdW  Elec       q    Type
REMARK                         _______ _______ _______ _____ _____    ______ ____
ROOT
ATOM      1  N   UNL     1       1.951   7.373  18.710  0.00  0.00    +0.000 NA
ATOM      2  C   UNL     1       2.191   6.542  17.530  0.00  0.00    +0.000 C 
ATOM      3  C   UNL     1       2.140   5.035  17.785  0.00  0.00    +0.000 C 
ATOM      4  C   UNL     1       2.985   4.528  18.964  0.00  0.00    +0.000 C 
ATOM      5  C   UNL     1       2.726   5.442  20.180  0.00  0.00    +0.000 C 
ATOM      6  C   UNL     1       2.693   6.955  19.911  0.00  0.00    +0.000 C 
ENDROOT
BRANCH   4   7
ATOM      7  N   UNL     1       4.366   4.047  18.743  0.00  0.00    +0.000 NA
ATOM      8  C   UNL     1       4.678   3.551  17.394  0.00  0.00    +0.000 C 
ATOM      9  C   UNL     1       5.426   4.586  16.531  0.00  0.00    +0.000 C 
ATOM     10  C   UNL     1       5.847   3.997  15.198  0.00  0.00    +0.000 C 
ATOM     11  O   UNL     1       6.633   4.966  17.164  0.00  0.00    +0.000 OA
ATOM     12  C   UNL     1       6.400   5.560  18.443  0.00  0.00    +0.000 C 
ATOM     13  C   UNL     1       7.822   5.884  18.877  0.00  0.00    +0.000 C 
ATOM     14  C   UNL     1       5.568   4.622  19.373  0.00  0.00    +0.000 C 
ENDBRANCH   4   7
BRANCH   1  15
ATOM     15  C   UNL     1       2.123   8.825  18.414  0.00  0.00    +0.000 C 
BRANCH  15  21
ATOM     16  C   UNL     1      -2.208  10.219  16.783  0.00  0.00    +0.000 C 
ATOM     17  C   UNL     1      -1.325  10.357  17.979  0.00  0.00    +0.000 A 
ATOM     18  C   UNL     1      -1.584  11.008  19.188  0.00  0.00    +0.000 A 
ATOM     19  C   UNL     1      -0.562  11.021  20.158  0.00  0.00    +0.000 A 
ATOM     20  C   UNL     1       0.675  10.384  19.939  0.00  0.00    +0.000 A 
ATOM     21  C   UNL     1       0.906   9.689  18.743  0.00  0.00    +0.000 A 
ATOM     22  C   UNL     1      -0.103   9.703  17.804  0.00  0.00    +0.000 A 
ENDBRANCH  15  21
ENDBRANCH   1  15
TORSDOF 3
ENDMDL
MODEL 9
REMARK VINA RESULT:      -6.8      3.127      8.368
REMARK  Name = 
REMARK  6 active torsions:
REMARK  status: ('A' for Active; 'I' for Inactive)
REMARK    1  A    between atoms: C_1  and  C_2
REMARK    2  A    between atoms: C_6  and  C_7
REMARK    3  A    between atoms: C_7  and  N_8
REMARK    4  A    between atoms: C_11  and  N_12
REMARK    5  A    between atoms: C_14  and  C_15
REMARK    6  A    between atoms: C_17  and  C_18
REMARK                            x       y       z     vdW  Elec       q    Type
REMARK                         _______ _______ _______ _____ _____    ______ ____
ROOT
ATOM      1  N   UNL     1       2.599   7.360  18.871  0.00  0.00    +0.000 NA
ATOM      2  C   UNL     1       2.053   8.129  17.752  0.00  0.00    +0.000 C 
ATOM      3  C   UNL     1       1.770   9.601  18.063  0.00  0.00    +0.000 C 
ATOM      4  C   UNL     1       0.951   9.869  19.335  0.00  0.00    +0.000 C 
ATOM      5  C   UNL     1       1.538   9.023  20.483  0.00  0.00    +0.000 C 
ATOM      6  C   UNL     1       1.902   7.567  20.151  0.00  0.00    +0.000 C 
ENDROOT
BRANCH   4   7
ATOM      7  N   UNL     1      -0.520  10.009  19.261  0.00  0.00    +0.000 NA
ATOM      8  C   UNL     1      -1.126  11.018  20.143  0.00  0.00    +0.000 C 
ATOM      9  C   UNL     1      -1.458  12.334  19.410  0.00  0.00    +0.000 C 
ATOM     10  C   UNL     1      -2.200  13.300  20.314  0.00  0.00    +0.000 C 
ATOM     11  O   UNL     1      -2.342  12.082  18.334  0.00  0.00    +0.000 OA
ATOM     12  C   UNL     1      -1.773  11.187  17.376  0.00  0.00    +0.000 C 
ATOM     13  C   UNL     1      -2.892  11.112  16.348  0.00  0.00    +0.000 C 
ATOM     14  C   UNL     1      -1.320   9.846  18.034  0.00  0.00    +0.000 C 
ENDBRANCH   4   7
BRANCH   1  15
ATOM     15  C   UNL     1       2.748   5.914  18.533  0.00  0.00    +0.000 C 
BRANCH  15  21
ATOM     16  C   UNL     1       7.269   7.250  17.469  0.00  0.00    +0.000 C 
ATOM     17  C   UNL     1       6.268   6.194  17.135  0.00  0.00    +0.000 A 
ATOM     18  C   UNL     1       6.415   5.078  16.308  0.00  0.00    +0.000 A 
ATOM     19  C   UNL     1       5.297   4.240  16.131  0.00  0.00    +0.000 A 
ATOM     20  C   UNL     1       4.071   4.495  16.777  0.00  0.00    +0.000 A 
ATOM     21  C   UNL     1       3.949   5.589  17.645  0.00  0.00    +0.000 A 
ATOM     22  C   UNL     1       5.052   6.401  17.792  0.00  0.00    +0.000 A 
ENDBRANCH  15  21
ENDBRANCH   1  15
TORSDOF 3
ENDMDL
