MODEL 1
REMARK VINA RESULT:      -7.9      0.000      0.000
REMARK  Name = 
REMARK  5 active torsions:
REMARK  status: ('A' for Active; 'I' for Inactive)
REMARK    1  A    between atoms: C_1  and  C_2
REMARK    2  A    between atoms: C_2  and  N_4
REMARK    3  A    between atoms: N_9  and  C_10
REMARK    4  A    between atoms: C_10  and  C_11
REMARK    5  A    between atoms: C_11  and  C_13
REMARK                            x       y       z     vdW  Elec       q    Type
REMARK                         _______ _______ _______ _____ _____    ______ ____
ROOT
ATOM      1  C   UNL     1       2.973   6.602  18.255  0.00  0.00    +0.000 C 
ATOM      2  O   UNL     1       2.584   5.472  18.555  0.00  0.00    +0.000 OA
ENDROOT
BRANCH   1   3
ATOM      3  C   UNL     1       2.199   7.764  18.797  0.00  0.00    +0.000 A 
ATOM      4  C   UNL     1       1.804   8.851  18.013  0.00  0.00    +0.000 A 
ATOM      5  C   UNL     1       1.063   9.894  18.584  0.00  0.00    +0.000 A 
ATOM      6  C   UNL     1       0.699   9.871  19.942  0.00  0.00    +0.000 A 
ATOM      7  C   UNL     1      -0.062  10.897  20.525  0.00  0.00    +0.000 A 
ATOM      8  C   UNL     1      -0.423  10.842  21.874  0.00  0.00    +0.000 A 
ATOM      9  C   UNL     1      -0.021   9.766  22.658  0.00  0.00    +0.000 A 
ATOM     10  C   UNL     1       0.741   8.742  22.097  0.00  0.00    +0.000 A 
ATOM     11  C   UNL     1       1.105   8.778  20.741  0.00  0.00    +0.000 A 
ATOM     12  C   UNL     1       1.854   7.747  20.159  0.00  0.00    +0.000 A 
ENDBRANCH   1   3
BRANCH   1  13
ATOM     13  C   UNL     1       4.196   6.874  17.365  0.00  0.00    +0.000 C 
BRANCH  13  19
ATOM     14  N   UNL     1       5.893   5.565  15.370  0.00  0.00    +0.000 NA
ATOM     15  C   UNL     1       6.138   5.460  16.636  0.00  0.00    +0.000 C 
ATOM     16  S   UNL     1       7.493   4.604  17.378  0.00  0.00    +0.000 S 
ATOM     17  C   UNL     1       7.310   5.504  18.936  0.00  0.00    +0.000 C 
ATOM     18  C   UNL     1       5.824   5.815  19.001  0.00  0.00    +0.000 C 
ATOM     19  N   UNL     1       5.350   6.009  17.631  0.00  0.00    +0.000 N 
BRANCH  14  21
ATOM     20  C   UNL     1       6.210   3.851  13.703  0.00  0.00    +0.000 C 
ATOM     21  C   UNL     1       6.758   5.054  14.429  0.00  0.00    +0.000 C 
ATOM     22  O   UNL     1       7.835   5.538  14.088  0.00  0.00    +0.000 OA
ENDBRANCH  14  21
ENDBRANCH  13  19
ENDBRANCH   1  13
TORSDOF 4
ENDMDL
MODEL 2
REMARK VINA RESULT:      -7.6      1.866      2.523
REMARK  Name = 
REMARK  5 active torsions:
REMARK  status: ('A' for Active; 'I' for Inactive)
REMARK    1  A    between atoms: C_1  and  C_2
REMARK    2  A    between atoms: C_2  and  N_4
REMARK    3  A    between atoms: N_9  and  C_10
REMARK    4  A    between atoms: C_10  and  C_11
REMARK    5  A    between atoms: C_11  and  C_13
REMARK                            x       y       z     vdW  Elec       q    Type
REMARK                         _______ _______ _______ _____ _____    ______ ____
ROOT
ATOM      1  C   UNL     1       2.389   8.057  18.276  0.00  0.00    +0.000 C 
ATOM      2  O   UNL     1       2.656   8.338  17.107  0.00  0.00    +0.000 OA
ENDROOT
BRANCH   1   3
ATOM      3  C   UNL     1       1.534   9.021  19.039  0.00  0.00    +0.000 A 
ATOM      4  C   UNL     1       1.004  10.184  18.473  0.00  0.00    +0.000 A 
ATOM      5  C   UNL     1       0.194  11.030  19.242  0.00  0.00    +0.000 A 
ATOM      6  C   UNL     1      -0.106  10.731  20.583  0.00  0.00    +0.000 A 
ATOM      7  C   UNL     1      -0.933  11.557  21.362  0.00  0.00    +0.000 A 
ATOM      8  C   UNL     1      -1.227  11.230  22.688  0.00  0.00    +0.000 A 
ATOM      9  C   UNL     1      -0.690  10.078  23.255  0.00  0.00    +0.000 A 
ATOM     10  C   UNL     1       0.139   9.251  22.499  0.00  0.00    +0.000 A 
ATOM     11  C   UNL     1       0.437   9.561  21.162  0.00  0.00    +0.000 A 
ATOM     12  C   UNL     1       1.253   8.729  20.384  0.00  0.00    +0.000 A 
ENDBRANCH   1   3
BRANCH   1  13
ATOM     13  C   UNL     1       2.883   6.784  18.981  0.00  0.00    +0.000 C 
BRANCH  13  19
ATOM     14  N   UNL     1       5.559   6.363  17.870  0.00  0.00    +0.000 NA
ATOM     15  C   UNL     1       4.591   5.540  17.627  0.00  0.00    +0.000 C 
ATOM     16  S   UNL     1       4.689   4.052  16.678  0.00  0.00    +0.000 S 
ATOM     17  C   UNL     1       3.171   3.394  17.409  0.00  0.00    +0.000 C 
ATOM     18  C   UNL     1       2.357   4.637  17.732  0.00  0.00    +0.000 C 
ATOM     19  N   UNL     1       3.295   5.705  18.077  0.00  0.00    +0.000 N 
BRANCH  14  21
ATOM     20  C   UNL     1       7.695   5.437  18.502  0.00  0.00    +0.000 C 
ATOM     21  C   UNL     1       6.844   6.102  17.450  0.00  0.00    +0.000 C 
ATOM     22  O   UNL     1       7.289   6.269  16.316  0.00  0.00    +0.000 OA
ENDBRANCH  14  21
ENDBRANCH  13  19
ENDBRANCH   1  13
TORSDOF 4
ENDMDL
MODEL 3
REMARK VINA RESULT:      -7.5      1.352      2.409
REMARK  Name = 
REMARK  5 active torsions:
REMARK  status: ('A' for Active; 'I' for Inactive)
REMARK    1  A    between atoms: C_1  and  C_2
REMARK    2  A    between atoms: C_2  and  N_4
REMARK    3  A    between atoms: N_9  and  C_10
REMARK    4  A    between atoms: C_10  and  C_11
REMARK    5  A    between atoms: C_11  and  C_13
REMARK                            x       y       z     vdW  Elec       q    Type
REMARK                         _______ _______ _______ _____ _____    ______ ____
ROOT
ATOM      1  C   UNL     1       2.706   4.317  18.697  0.00  0.00    +0.000 C 
ATOM      2  O   UNL     1       2.374   3.332  19.359  0.00  0.00    +0.000 OA
ENDROOT
BRANCH   1   3
ATOM      3  C   UNL     1       2.248   5.659  19.180  0.00  0.00    +0.000 A 
ATOM      4  C   UNL     1       1.769   5.882  20.473  0.00  0.00    +0.000 A 
ATOM      5  C   UNL     1       1.377   7.170  20.862  0.00  0.00    +0.000 A 
ATOM      6  C   UNL     1       1.460   8.257  19.973  0.00  0.00    +0.000 A 
ATOM      7  C   UNL     1       1.092   9.558  20.352  0.00  0.00    +0.000 A 
ATOM      8  C   UNL     1       1.197  10.623  19.454  0.00  0.00    +0.000 A 
ATOM      9  C   UNL     1       1.664  10.399  18.162  0.00  0.00    +0.000 A 
ATOM     10  C   UNL     1       2.026   9.112  17.767  0.00  0.00    +0.000 A 
ATOM     11  C   UNL     1       1.934   8.032  18.660  0.00  0.00    +0.000 A 
ATOM     12  C   UNL     1       2.313   6.738  18.282  0.00  0.00    +0.000 A 
ENDBRANCH   1   3
BRANCH   1  13
ATOM     13  C   UNL     1       3.553   4.237  17.417  0.00  0.00    +0.000 C 
BRANCH  13  19
ATOM     14  N   UNL     1       5.621   4.375  15.349  0.00  0.00    +0.000 NA
ATOM     15  C   UNL     1       5.917   4.469  16.605  0.00  0.00    +0.000 C 
ATOM     16  S   UNL     1       7.523   4.739  17.290  0.00  0.00    +0.000 S 
ATOM     17  C   UNL     1       6.840   5.300  18.868  0.00  0.00    +0.000 C 
ATOM     18  C   UNL     1       5.528   4.544  18.984  0.00  0.00    +0.000 C 
ATOM     19  N   UNL     1       4.998   4.362  17.633  0.00  0.00    +0.000 N 
BRANCH  14  21
ATOM     20  C   UNL     1       6.356   3.705  13.151  0.00  0.00    +0.000 C 
ATOM     21  C   UNL     1       6.573   4.561  14.373  0.00  0.00    +0.000 C 
ATOM     22  O   UNL     1       7.475   5.397  14.384  0.00  0.00    +0.000 OA
ENDBRANCH  14  21
ENDBRANCH  13  19
ENDBRANCH   1  13
TORSDOF 4
ENDMDL
MODEL 4
REMARK VINA RESULT:      -7.4      4.389      7.772
REMARK  Name = 
REMARK  5 active torsions:
REMARK  status: ('A' for Active; 'I' for Inactive)
REMARK    1  A    between atoms: C_1  and  C_2
REMARK    2  A    between atoms: C_2  and  N_4
REMARK    3  A    between atoms: N_9  and  C_10
REMARK    4  A    between atoms: C_10  and  C_11
REMARK    5  A    between atoms: C_11  and  C_13
REMARK                            x       y       z     vdW  Elec       q    Type
REMARK                         _______ _______ _______ _____ _____    ______ ____
ROOT
ATOM      1  C   UNL     1       2.111   8.789  18.108  0.00  0.00    +0.000 C 
ATOM      2  O   UNL     1       2.406   9.652  17.280  0.00  0.00    +0.000 OA
ENDROOT
BRANCH   1   3
ATOM      3  C   UNL     1       2.665   7.413  17.897  0.00  0.00    +0.000 A 
ATOM      4  C   UNL     1       3.965   7.175  17.445  0.00  0.00    +0.000 A 
ATOM      5  C   UNL     1       4.423   5.860  17.291  0.00  0.00    +0.000 A 
ATOM      6  C   UNL     1       3.597   4.761  17.590  0.00  0.00    +0.000 A 
ATOM      7  C   UNL     1       4.047   3.437  17.462  0.00  0.00    +0.000 A 
ATOM      8  C   UNL     1       3.211   2.363  17.779  0.00  0.00    +0.000 A 
ATOM      9  C   UNL     1       1.912   2.600  18.220  0.00  0.00    +0.000 A 
ATOM     10  C   UNL     1       1.447   3.908  18.345  0.00  0.00    +0.000 A 
ATOM     11  C   UNL     1       2.278   4.999  18.038  0.00  0.00    +0.000 A 
ATOM     12  C   UNL     1       1.830   6.318  18.178  0.00  0.00    +0.000 A 
ENDBRANCH   1   3
BRANCH   1  13
ATOM     13  C   UNL     1       1.213   9.050  19.327  0.00  0.00    +0.000 C 
BRANCH  13  19
ATOM     14  N   UNL     1      -1.076   9.860  17.692  0.00  0.00    +0.000 NA
ATOM     15  C   UNL     1      -0.555  10.660  18.565  0.00  0.00    +0.000 C 
ATOM     16  S   UNL     1      -1.115  12.287  18.967  0.00  0.00    +0.000 S 
ATOM     17  C   UNL     1      -0.239  12.281  20.550  0.00  0.00    +0.000 C 
ATOM     18  C   UNL     1       0.961  11.384  20.296  0.00  0.00    +0.000 C 
ATOM     19  N   UNL     1       0.555  10.361  19.332  0.00  0.00    +0.000 N 
BRANCH  14  21
ATOM     20  C   UNL     1      -3.479   9.642  17.643  0.00  0.00    +0.000 C 
ATOM     21  C   UNL     1      -2.225  10.194  17.011  0.00  0.00    +0.000 C 
ATOM     22  O   UNL     1      -2.307  10.946  16.043  0.00  0.00    +0.000 OA
ENDBRANCH  14  21
ENDBRANCH  13  19
ENDBRANCH   1  13
TORSDOF 4
ENDMDL
MODEL 5
REMARK VINA RESULT:      -7.4      1.029      1.808
REMARK  Name = 
REMARK  5 active torsions:
REMARK  status: ('A' for Active; 'I' for Inactive)
REMARK    1  A    between atoms: C_1  and  C_2
REMARK    2  A    between atoms: C_2  and  N_4
REMARK    3  A    between atoms: N_9  and  C_10
REMARK    4  A    between atoms: C_10  and  C_11
REMARK    5  A    between atoms: C_11  and  C_13
REMARK                            x       y       z     vdW  Elec       q    Type
REMARK                         _______ _______ _______ _____ _____    ______ ____
ROOT
ATOM      1  C   UNL     1       3.287   7.137  17.616  0.00  0.00    +0.000 C 
ATOM      2  O   UNL     1       3.786   7.854  16.748  0.00  0.00    +0.000 OA
ENDROOT
BRANCH   1   3
ATOM      3  C   UNL     1       2.396   7.794  18.625  0.00  0.00    +0.000 A 
ATOM      4  C   UNL     1       2.221   7.306  19.923  0.00  0.00    +0.000 A 
ATOM      5  C   UNL     1       1.387   7.986  20.820  0.00  0.00    +0.000 A 
ATOM      6  C   UNL     1       0.718   9.164  20.443  0.00  0.00    +0.000 A 
ATOM      7  C   UNL     1      -0.105   9.869  21.337  0.00  0.00    +0.000 A 
ATOM      8  C   UNL     1      -0.748  11.045  20.942  0.00  0.00    +0.000 A 
ATOM      9  C   UNL     1      -0.583  11.526  19.646  0.00  0.00    +0.000 A 
ATOM     10  C   UNL     1       0.224  10.834  18.744  0.00  0.00    +0.000 A 
ATOM     11  C   UNL     1       0.884   9.655  19.128  0.00  0.00    +0.000 A 
ATOM     12  C   UNL     1       1.713   8.960  18.239  0.00  0.00    +0.000 A 
ENDBRANCH   1   3
BRANCH   1  13
ATOM     13  C   UNL     1       3.530   5.623  17.715  0.00  0.00    +0.000 C 
BRANCH  13  19
ATOM     14  N   UNL     1       5.543   5.023  15.675  0.00  0.00    +0.000 NA
ATOM     15  C   UNL     1       5.838   5.018  16.935  0.00  0.00    +0.000 C 
ATOM     16  S   UNL     1       7.430   4.722  17.641  0.00  0.00    +0.000 S 
ATOM     17  C   UNL     1       6.964   5.496  19.208  0.00  0.00    +0.000 C 
ATOM     18  C   UNL     1       5.470   5.240  19.308  0.00  0.00    +0.000 C 
ATOM     19  N   UNL     1       4.927   5.242  17.950  0.00  0.00    +0.000 N 
BRANCH  14  21
ATOM     20  C   UNL     1       6.185   3.790  13.704  0.00  0.00    +0.000 C 
ATOM     21  C   UNL     1       6.513   4.862  14.712  0.00  0.00    +0.000 C 
ATOM     22  O   UNL     1       7.518   5.555  14.565  0.00  0.00    +0.000 OA
ENDBRANCH  14  21
ENDBRANCH  13  19
ENDBRANCH   1  13
TORSDOF 4
ENDMDL
MODEL 6
REMARK VINA RESULT:      -7.4      1.719      2.349
REMARK  Name = 
REMARK  5 active torsions:
REMARK  status: ('A' for Active; 'I' for Inactive)
REMARK    1  A    between atoms: C_1  and  C_2
REMARK    2  A    between atoms: C_2  and  N_4
REMARK    3  A    between atoms: N_9  and  C_10
REMARK    4  A    between atoms: C_10  and  C_11
REMARK    5  A    between atoms: C_11  and  C_13
REMARK                            x       y       z     vdW  Elec       q    Type
REMARK                         _______ _______ _______ _____ _____    ______ ____
ROOT
ATOM      1  C   UNL     1       2.339   7.222  19.388  0.00  0.00    +0.000 C 
ATOM      2  O   UNL     1       2.584   6.383  20.257  0.00  0.00    +0.000 OA
ENDROOT
BRANCH   1   3
ATOM      3  C   UNL     1       1.518   8.410  19.788  0.00  0.00    +0.000 A 
ATOM      4  C   UNL     1       1.223   9.461  18.917  0.00  0.00    +0.000 A 
ATOM      5  C   UNL     1       0.430  10.531  19.355  0.00  0.00    +0.000 A 
ATOM      6  C   UNL     1      -0.084  10.569  20.663  0.00  0.00    +0.000 A 
ATOM      7  C   UNL     1      -0.898  11.623  21.112  0.00  0.00    +0.000 A 
ATOM      8  C   UNL     1      -1.408  11.630  22.412  0.00  0.00    +0.000 A 
ATOM      9  C   UNL     1      -1.105  10.587  23.283  0.00  0.00    +0.000 A 
ATOM     10  C   UNL     1      -0.293   9.537  22.857  0.00  0.00    +0.000 A 
ATOM     11  C   UNL     1       0.221   9.512  21.550  0.00  0.00    +0.000 A 
ATOM     12  C   UNL     1       1.022   8.454  21.102  0.00  0.00    +0.000 A 
ENDBRANCH   1   3
BRANCH   1  13
ATOM     13  C   UNL     1       2.826   7.111  17.935  0.00  0.00    +0.000 C 
BRANCH  13  19
ATOM     14  N   UNL     1       5.665   6.686  17.355  0.00  0.00    +0.000 NA
ATOM     15  C   UNL     1       4.828   5.700  17.385  0.00  0.00    +0.000 C 
ATOM     16  S   UNL     1       5.208   3.990  17.152  0.00  0.00    +0.000 S 
ATOM     17  C   UNL     1       3.671   3.460  17.943  0.00  0.00    +0.000 C 
ATOM     18  C   UNL     1       2.701   4.592  17.644  0.00  0.00    +0.000 C 
ATOM     19  N   UNL     1       3.469   5.836  17.602  0.00  0.00    +0.000 N 
BRANCH  14  21
ATOM     20  C   UNL     1       7.762   6.401  18.513  0.00  0.00    +0.000 C 
ATOM     21  C   UNL     1       7.016   6.474  17.204  0.00  0.00    +0.000 C 
ATOM     22  O   UNL     1       7.606   6.253  16.149  0.00  0.00    +0.000 OA
ENDBRANCH  14  21
ENDBRANCH  13  19
ENDBRANCH   1  13
TORSDOF 4
ENDMDL
MODEL 7
REMARK VINA RESULT:      -7.3      2.012      2.659
REMARK  Name = 
REMARK  5 active torsions:
REMARK  status: ('A' for Active; 'I' for Inactive)
REMARK    1  A    between atoms: C_1  and  C_2
REMARK    2  A    between atoms: C_2  and  N_4
REMARK    3  A    between atoms: N_9  and  C_10
REMARK    4  A    between atoms: C_10  and  C_11
REMARK    5  A    between atoms: C_11  and  C_13
REMARK                            x       y       z     vdW  Elec       q    Type
REMARK                         _______ _______ _______ _____ _____    ______ ____
ROOT
ATOM      1  C   UNL     1       2.295   6.892  19.557  0.00  0.00    +0.000 C 
ATOM      2  O   UNL     1       2.626   6.154  20.487  0.00  0.00    +0.000 OA
ENDROOT
BRANCH   1   3
ATOM      3  C   UNL     1       1.573   8.158  19.904  0.00  0.00    +0.000 A 
ATOM      4  C   UNL     1       1.444   9.230  19.018  0.00  0.00    +0.000 A 
ATOM      5  C   UNL     1       0.736  10.376  19.404  0.00  0.00    +0.000 A 
ATOM      6  C   UNL     1       0.142  10.471  20.676  0.00  0.00    +0.000 A 
ATOM      7  C   UNL     1      -0.589  11.603  21.071  0.00  0.00    +0.000 A 
ATOM      8  C   UNL     1      -1.182  11.667  22.335  0.00  0.00    +0.000 A 
ATOM      9  C   UNL     1      -1.044  10.604  23.222  0.00  0.00    +0.000 A 
ATOM     10  C   UNL     1      -0.315   9.475  22.848  0.00  0.00    +0.000 A 
ATOM     11  C   UNL     1       0.280   9.392  21.578  0.00  0.00    +0.000 A 
ATOM     12  C   UNL     1       0.998   8.257  21.182  0.00  0.00    +0.000 A 
ENDBRANCH   1   3
BRANCH   1  13
ATOM     13  C   UNL     1       2.581   6.581  18.079  0.00  0.00    +0.000 C 
BRANCH  13  19
ATOM     14  N   UNL     1       5.201   5.318  17.740  0.00  0.00    +0.000 NA
ATOM     15  C   UNL     1       4.108   4.627  17.690  0.00  0.00    +0.000 C 
ATOM     16  S   UNL     1       3.979   2.878  17.476  0.00  0.00    +0.000 S 
ATOM     17  C   UNL     1       2.293   2.845  18.129  0.00  0.00    +0.000 C 
ATOM     18  C   UNL     1       1.734   4.209  17.758  0.00  0.00    +0.000 C 
ATOM     19  N   UNL     1       2.839   5.166  17.792  0.00  0.00    +0.000 N 
BRANCH  14  21
ATOM     20  C   UNL     1       7.004   4.594  16.311  0.00  0.00    +0.000 C 
ATOM     21  C   UNL     1       6.435   4.710  17.702  0.00  0.00    +0.000 C 
ATOM     22  O   UNL     1       7.110   4.368  18.671  0.00  0.00    +0.000 OA
ENDBRANCH  14  21
ENDBRANCH  13  19
ENDBRANCH   1  13
TORSDOF 4
ENDMDL
MODEL 8
REMARK VINA RESULT:      -7.3      4.508      7.631
REMARK  Name = 
REMARK  5 active torsions:
REMARK  status: ('A' for Active; 'I' for Inactive)
REMARK    1  A    between atoms: C_1  and  C_2
REMARK    2  A    between atoms: C_2  and  N_4
REMARK    3  A    between atoms: N_9  and  C_10
REMARK    4  A    between atoms: C_10  and  C_11
REMARK    5  A    between atoms: C_11  and  C_13
REMARK                            x       y       z     vdW  Elec       q    Type
REMARK                         _______ _______ _______ _____ _____    ______ ____
ROOT
ATOM      1  C   UNL     1       1.969   8.724  18.386  0.00  0.00    +0.000 C 
ATOM      2  O   UNL     1       2.296   9.315  17.355  0.00  0.00    +0.000 OA
ENDROOT
BRANCH   1   3
ATOM      3  C   UNL     1       2.501   7.338  18.584  0.00  0.00    +0.000 A 
ATOM      4  C   UNL     1       3.494   6.779  17.777  0.00  0.00    +0.000 A 
ATOM      5  C   UNL     1       3.959   5.482  18.034  0.00  0.00    +0.000 A 
ATOM      6  C   UNL     1       3.447   4.724  19.102  0.00  0.00    +0.000 A 
ATOM      7  C   UNL     1       3.917   3.431  19.388  0.00  0.00    +0.000 A 
ATOM      8  C   UNL     1       3.402   2.704  20.464  0.00  0.00    +0.000 A 
ATOM      9  C   UNL     1       2.405   3.256  21.263  0.00  0.00    +0.000 A 
ATOM     10  C   UNL     1       1.922   4.535  20.989  0.00  0.00    +0.000 A 
ATOM     11  C   UNL     1       2.436   5.282  19.916  0.00  0.00    +0.000 A 
ATOM     12  C   UNL     1       1.973   6.576  19.640  0.00  0.00    +0.000 A 
ENDBRANCH   1   3
BRANCH   1  13
ATOM     13  C   UNL     1       1.054   9.329  19.462  0.00  0.00    +0.000 C 
BRANCH  13  19
ATOM     14  N   UNL     1      -1.390   9.989  17.991  0.00  0.00    +0.000 NA
ATOM     15  C   UNL     1      -0.636  10.912  18.493  0.00  0.00    +0.000 C 
ATOM     16  S   UNL     1      -0.933  12.653  18.447  0.00  0.00    +0.000 S 
ATOM     17  C   UNL     1       0.207  12.962  19.817  0.00  0.00    +0.000 C 
ATOM     18  C   UNL     1       1.237  11.852  19.688  0.00  0.00    +0.000 C 
ATOM     19  N   UNL     1       0.555  10.674  19.154  0.00  0.00    +0.000 N 
BRANCH  14  21
ATOM     20  C   UNL     1      -2.556  10.282  15.899  0.00  0.00    +0.000 C 
ATOM     21  C   UNL     1      -2.599  10.291  17.407  0.00  0.00    +0.000 C 
ATOM     22  O   UNL     1      -3.669  10.458  17.988  0.00  0.00    +0.000 OA
ENDBRANCH  14  21
ENDBRANCH  13  19
ENDBRANCH   1  13
TORSDOF 4
ENDMDL
MODEL 9
REMARK VINA RESULT:      -7.3      2.911      3.989
REMARK  Name = 
REMARK  5 active torsions:
REMARK  status: ('A' for Active; 'I' for Inactive)
REMARK    1  A    between atoms: C_1  and  C_2
REMARK    2  A    between atoms: C_2  and  N_4
REMARK    3  A    between atoms: N_9  and  C_10
REMARK    4  A    between atoms: C_10  and  C_11
REMARK    5  A    between atoms: C_11  and  C_13
REMARK                            x       y       z     vdW  Elec       q    Type
REMARK                         _______ _______ _______ _____ _____    ______ ____
ROOT
ATOM      1  C   UNL     1       3.263   7.416  17.815  0.00  0.00    +0.000 C 
ATOM      2  O   UNL     1       2.714   8.458  18.176  0.00  0.00    +0.000 OA
ENDROOT
BRANCH   1   3
ATOM      3  C   UNL     1       2.669   6.124  18.287  0.00  0.00    +0.000 A 
ATOM      4  C   UNL     1       2.015   5.229  17.438  0.00  0.00    +0.000 A 
ATOM      5  C   UNL     1       1.502   4.028  17.947  0.00  0.00    +0.000 A 
ATOM      6  C   UNL     1       1.637   3.697  19.307  0.00  0.00    +0.000 A 
ATOM      7  C   UNL     1       1.148   2.489  19.829  0.00  0.00    +0.000 A 
ATOM      8  C   UNL     1       1.307   2.177  21.182  0.00  0.00    +0.000 A 
ATOM      9  C   UNL     1       1.950   3.073  22.031  0.00  0.00    +0.000 A 
ATOM     10  C   UNL     1       2.434   4.281  21.530  0.00  0.00    +0.000 A 
ATOM     11  C   UNL     1       2.289   4.605  20.171  0.00  0.00    +0.000 A 
ATOM     12  C   UNL     1       2.788   5.806  19.651  0.00  0.00    +0.000 A 
ENDBRANCH   1   3
BRANCH   1  13
ATOM     13  C   UNL     1       4.510   7.376  16.918  0.00  0.00    +0.000 C 
BRANCH  13  19
ATOM     14  N   UNL     1       6.045   5.704  15.069  0.00  0.00    +0.000 NA
ATOM     15  C   UNL     1       6.215   5.625  16.349  0.00  0.00    +0.000 C 
ATOM     16  S   UNL     1       7.376   4.595  17.194  0.00  0.00    +0.000 S 
ATOM     17  C   UNL     1       7.281   5.591  18.700  0.00  0.00    +0.000 C 
ATOM     18  C   UNL     1       5.867   6.147  18.677  0.00  0.00    +0.000 C 
ATOM     19  N   UNL     1       5.490   6.346  17.278  0.00  0.00    +0.000 N 
BRANCH  14  21
ATOM     20  C   UNL     1       6.189   3.784  13.615  0.00  0.00    +0.000 C 
ATOM     21  C   UNL     1       6.850   5.009  14.195  0.00  0.00    +0.000 C 
ATOM     22  O   UNL     1       7.964   5.349  13.801  0.00  0.00    +0.000 OA
ENDBRANCH  14  21
ENDBRANCH  13  19
ENDBRANCH   1  13
TORSDOF 4
ENDMDL
