MODEL 1
REMARK VINA RESULT:      -8.7      0.000      0.000
REMARK  Name = 
REMARK  6 active torsions:
REMARK  status: ('A' for Active; 'I' for Inactive)
REMARK    1  A    between atoms: C_1  and  C_2
REMARK    2  A    between atoms: C_2  and  C_3
REMARK    3  A    between atoms: C_9  and  S_10
REMARK    4  A    between atoms: S_10  and  N_13
REMARK    5  A    between atoms: N_16  and  C_17
REMARK    6  A    between atoms: C_29  and  C_30
REMARK                            x       y       z     vdW  Elec       q    Type
REMARK                         _______ _______ _______ _____ _____    ______ ____
ROOT
ATOM      1  S   UNL     1       3.650   5.056  18.495  0.00  0.00    +0.000 S 
ATOM      2  O   UNL     1       3.878   4.250  19.677  0.00  0.00    +0.000 OA
ATOM      3  O   UNL     1       3.018   4.481  17.329  0.00  0.00    +0.000 OA
ENDROOT
BRANCH   1  10
ATOM      4  C   UNL     1       0.584  10.454  21.594  0.00  0.00    +0.000 C 
ATOM      5  O   UNL     1       0.897   9.827  22.609  0.00  0.00    +0.000 OA
ATOM      6  N   UNL     1       0.816   9.992  20.304  0.00  0.00    +0.000 N 
ATOM      7  C   UNL     1       1.368   8.724  20.004  0.00  0.00    +0.000 A 
ATOM      8  C   UNL     1       1.567   7.644  20.849  0.00  0.00    +0.000 A 
ATOM      9  C   UNL     1       2.202   6.499  20.351  0.00  0.00    +0.000 A 
ATOM     10  C   UNL     1       2.620   6.431  19.009  0.00  0.00    +0.000 A 
ATOM     11  C   UNL     1       2.416   7.529  18.159  0.00  0.00    +0.000 A 
ATOM     12  C   UNL     1       1.759   8.652  18.666  0.00  0.00    +0.000 A 
ATOM     13  C   UNL     1       1.463   9.938  17.957  0.00  0.00    +0.000 C 
ATOM     14  C   UNL     1       0.678  10.743  19.027  0.00  0.00    +0.000 C 
ATOM     15  C   UNL     1      -0.788  10.910  18.622  0.00  0.00    +0.000 C 
BRANCH   4  17
ATOM     16  C   UNL     1      -1.563  11.624  22.257  0.00  0.00    +0.000 C 
ATOM     17  C   UNL     1      -0.139  11.788  21.737  0.00  0.00    +0.000 C 
ENDBRANCH   4  17
ENDBRANCH   1  10
BRANCH   1  18
ATOM     18  N   UNL     1       5.146   5.659  17.997  0.00  0.00    +0.000 NA
ATOM     19  C   UNL     1       6.330   4.772  17.914  0.00  0.00    +0.000 C 
ATOM     20  C   UNL     1       6.395   4.090  16.543  0.00  0.00    +0.000 C 
ATOM     21  N   UNL     1       6.328   5.050  15.422  0.00  0.00    +0.000 N 
ATOM     22  C   UNL     1       5.332   6.154  15.551  0.00  0.00    +0.000 C 
ATOM     23  C   UNL     1       5.217   6.721  16.976  0.00  0.00    +0.000 C 
BRANCH  21  24
ATOM     24  C   UNL     1       6.477   4.576  14.096  0.00  0.00    +0.000 A 
ATOM     25  C   UNL     1       5.478   3.684  13.638  0.00  0.00    +0.000 A 
ATOM     26  C   UNL     1       5.489   3.115  12.360  0.00  0.00    +0.000 A 
ATOM     27  C   UNL     1       6.507   3.428  11.475  0.00  0.00    +0.000 A 
ATOM     28  C   UNL     1       7.497   4.319  11.869  0.00  0.00    +0.000 A 
ATOM     29  C   UNL     1       7.486   4.899  13.154  0.00  0.00    +0.000 A 
ATOM     30 CL   UNL     1       8.826   5.965  13.421  0.00  0.00    +0.000 Cl
ENDBRANCH  21  24
ENDBRANCH   1  18
TORSDOF 4
ENDMDL
MODEL 2
REMARK VINA RESULT:      -8.4      3.886      9.388
REMARK  Name = 
REMARK  6 active torsions:
REMARK  status: ('A' for Active; 'I' for Inactive)
REMARK    1  A    between atoms: C_1  and  C_2
REMARK    2  A    between atoms: C_2  and  C_3
REMARK    3  A    between atoms: C_9  and  S_10
REMARK    4  A    between atoms: S_10  and  N_13
REMARK    5  A    between atoms: N_16  and  C_17
REMARK    6  A    between atoms: C_29  and  C_30
REMARK                            x       y       z     vdW  Elec       q    Type
REMARK                         _______ _______ _______ _____ _____    ______ ____
ROOT
ATOM      1  S   UNL     1       0.828   9.286  21.214  0.00  0.00    +0.000 S 
ATOM      2  O   UNL     1      -0.561   8.967  21.477  0.00  0.00    +0.000 OA
ATOM      3  O   UNL     1       1.689   9.741  22.283  0.00  0.00    +0.000 OA
ENDROOT
BRANCH   1  10
ATOM      4  C   UNL     1       2.360   3.037  18.617  0.00  0.00    +0.000 C 
ATOM      5  O   UNL     1       1.453   2.690  19.378  0.00  0.00    +0.000 OA
ATOM      6  N   UNL     1       2.824   4.343  18.521  0.00  0.00    +0.000 N 
ATOM      7  C   UNL     1       2.364   5.409  19.331  0.00  0.00    +0.000 A 
ATOM      8  C   UNL     1       1.582   5.354  20.473  0.00  0.00    +0.000 A 
ATOM      9  C   UNL     1       1.181   6.551  21.081  0.00  0.00    +0.000 A 
ATOM     10  C   UNL     1       1.575   7.795  20.555  0.00  0.00    +0.000 A 
ATOM     11  C   UNL     1       2.366   7.844  19.397  0.00  0.00    +0.000 A 
ATOM     12  C   UNL     1       2.777   6.640  18.819  0.00  0.00    +0.000 A 
ATOM     13  C   UNL     1       3.591   6.452  17.576  0.00  0.00    +0.000 C 
ATOM     14  C   UNL     1       3.751   4.910  17.504  0.00  0.00    +0.000 C 
ATOM     15  C   UNL     1       5.200   4.495  17.763  0.00  0.00    +0.000 C 
BRANCH   4  17
ATOM     16  C   UNL     1       3.943   1.059  18.589  0.00  0.00    +0.000 C 
ATOM     17  C   UNL     1       3.056   1.985  17.763  0.00  0.00    +0.000 C 
ENDBRANCH   4  17
ENDBRANCH   1  10
BRANCH   1  18
ATOM     18  N   UNL     1       0.855  10.478  20.019  0.00  0.00    +0.000 NA
ATOM     19  C   UNL     1       0.634  10.129  18.596  0.00  0.00    +0.000 C 
ATOM     20  C   UNL     1      -0.863  10.144  18.267  0.00  0.00    +0.000 C 
ATOM     21  N   UNL     1      -1.522  11.410  18.648  0.00  0.00    +0.000 N 
ATOM     22  C   UNL     1      -1.143  11.984  19.972  0.00  0.00    +0.000 C 
ATOM     23  C   UNL     1       0.350  11.833  20.309  0.00  0.00    +0.000 C 
BRANCH  21  24
ATOM     24  C   UNL     1      -2.883  11.609  18.314  0.00  0.00    +0.000 A 
ATOM     25  C   UNL     1      -3.720  12.066  19.361  0.00  0.00    +0.000 A 
ATOM     26  C   UNL     1      -5.090  12.295  19.199  0.00  0.00    +0.000 A 
ATOM     27  C   UNL     1      -5.683  12.086  17.966  0.00  0.00    +0.000 A 
ATOM     28  C   UNL     1      -4.899  11.662  16.900  0.00  0.00    +0.000 A 
ATOM     29  C   UNL     1      -3.517  11.434  17.058  0.00  0.00    +0.000 A 
ATOM     30 CL   UNL     1      -2.752  10.899  15.597  0.00  0.00    +0.000 Cl
ENDBRANCH  21  24
ENDBRANCH   1  18
TORSDOF 4
ENDMDL
MODEL 3
REMARK VINA RESULT:      -8.4      3.439      9.599
REMARK  Name = 
REMARK  6 active torsions:
REMARK  status: ('A' for Active; 'I' for Inactive)
REMARK    1  A    between atoms: C_1  and  C_2
REMARK    2  A    between atoms: C_2  and  C_3
REMARK    3  A    between atoms: C_9  and  S_10
REMARK    4  A    between atoms: S_10  and  N_13
REMARK    5  A    between atoms: N_16  and  C_17
REMARK    6  A    between atoms: C_29  and  C_30
REMARK                            x       y       z     vdW  Elec       q    Type
REMARK                         _______ _______ _______ _____ _____    ______ ____
ROOT
ATOM      1  S   UNL     1       0.882   9.118  21.061  0.00  0.00    +0.000 S 
ATOM      2  O   UNL     1      -0.480   8.666  21.259  0.00  0.00    +0.000 OA
ATOM      3  O   UNL     1       1.771   9.282  22.190  0.00  0.00    +0.000 OA
ENDROOT
BRANCH   1  10
ATOM      4  C   UNL     1       4.923   5.515  16.721  0.00  0.00    +0.000 C 
ATOM      5  O   UNL     1       5.110   6.636  16.240  0.00  0.00    +0.000 OA
ATOM      6  N   UNL     1       4.059   5.268  17.780  0.00  0.00    +0.000 N 
ATOM      7  C   UNL     1       3.241   6.255  18.383  0.00  0.00    +0.000 A 
ATOM      8  C   UNL     1       2.958   7.536  17.937  0.00  0.00    +0.000 A 
ATOM      9  C   UNL     1       2.172   8.376  18.735  0.00  0.00    +0.000 A 
ATOM     10  C   UNL     1       1.659   7.928  19.967  0.00  0.00    +0.000 A 
ATOM     11  C   UNL     1       1.950   6.630  20.413  0.00  0.00    +0.000 A 
ATOM     12  C   UNL     1       2.714   5.798  19.592  0.00  0.00    +0.000 A 
ATOM     13  C   UNL     1       3.169   4.399  19.874  0.00  0.00    +0.000 C 
ATOM     14  C   UNL     1       3.916   4.014  18.569  0.00  0.00    +0.000 C 
ATOM     15  C   UNL     1       3.150   2.941  17.794  0.00  0.00    +0.000 C 
BRANCH   4  17
ATOM     16  C   UNL     1       5.544   4.307  14.583  0.00  0.00    +0.000 C 
ATOM     17  C   UNL     1       5.631   4.315  16.105  0.00  0.00    +0.000 C 
ENDBRANCH   4  17
ENDBRANCH   1  10
BRANCH   1  18
ATOM     18  N   UNL     1       0.810  10.609  20.273  0.00  0.00    +0.000 NA
ATOM     19  C   UNL     1       0.712  10.682  18.796  0.00  0.00    +0.000 C 
ATOM     20  C   UNL     1      -0.754  10.624  18.353  0.00  0.00    +0.000 C 
ATOM     21  N   UNL     1      -1.597  11.634  19.025  0.00  0.00    +0.000 N 
ATOM     22  C   UNL     1      -1.369  11.822  20.488  0.00  0.00    +0.000 C 
ATOM     23  C   UNL     1       0.112  11.748  20.899  0.00  0.00    +0.000 C 
BRANCH  21  24
ATOM     24  C   UNL     1      -2.954  11.767  18.644  0.00  0.00    +0.000 A 
ATOM     25  C   UNL     1      -3.840  12.227  19.648  0.00  0.00    +0.000 A 
ATOM     26  C   UNL     1      -5.212  12.397  19.435  0.00  0.00    +0.000 A 
ATOM     27  C   UNL     1      -5.758  12.121  18.193  0.00  0.00    +0.000 A 
ATOM     28  C   UNL     1      -4.924  11.693  17.168  0.00  0.00    +0.000 A 
ATOM     29  C   UNL     1      -3.541  11.525  17.376  0.00  0.00    +0.000 A 
ATOM     30 CL   UNL     1      -2.710  10.971  15.959  0.00  0.00    +0.000 Cl
ENDBRANCH  21  24
ENDBRANCH   1  18
TORSDOF 4
ENDMDL
MODEL 4
REMARK VINA RESULT:      -8.3      4.128     10.488
REMARK  Name = 
REMARK  6 active torsions:
REMARK  status: ('A' for Active; 'I' for Inactive)
REMARK    1  A    between atoms: C_1  and  C_2
REMARK    2  A    between atoms: C_2  and  C_3
REMARK    3  A    between atoms: C_9  and  S_10
REMARK    4  A    between atoms: S_10  and  N_13
REMARK    5  A    between atoms: N_16  and  C_17
REMARK    6  A    between atoms: C_29  and  C_30
REMARK                            x       y       z     vdW  Elec       q    Type
REMARK                         _______ _______ _______ _____ _____    ______ ____
ROOT
ATOM      1  S   UNL     1       0.512  10.409  20.549  0.00  0.00    +0.000 S 
ATOM      2  O   UNL     1      -0.609   9.887  21.303  0.00  0.00    +0.000 OA
ATOM      3  O   UNL     1       1.588  11.101  21.222  0.00  0.00    +0.000 OA
ENDROOT
BRANCH   1  10
ATOM      4  C   UNL     1       4.448   5.926  17.007  0.00  0.00    +0.000 C 
ATOM      5  O   UNL     1       4.675   6.929  16.326  0.00  0.00    +0.000 OA
ATOM      6  N   UNL     1       3.571   5.910  18.084  0.00  0.00    +0.000 N 
ATOM      7  C   UNL     1       2.784   7.018  18.481  0.00  0.00    +0.000 A 
ATOM      8  C   UNL     1       2.548   8.201  17.800  0.00  0.00    +0.000 A 
ATOM      9  C   UNL     1       1.787   9.201  18.419  0.00  0.00    +0.000 A 
ATOM     10  C   UNL     1       1.253   9.010  19.706  0.00  0.00    +0.000 A 
ATOM     11  C   UNL     1       1.497   7.810  20.392  0.00  0.00    +0.000 A 
ATOM     12  C   UNL     1       2.237   6.814  19.749  0.00  0.00    +0.000 A 
ATOM     13  C   UNL     1       2.642   5.479  20.293  0.00  0.00    +0.000 C 
ATOM     14  C   UNL     1       3.382   4.832  19.092  0.00  0.00    +0.000 C 
ATOM     15  C   UNL     1       2.584   3.657  18.524  0.00  0.00    +0.000 C 
BRANCH   4  17
ATOM     16  C   UNL     1       5.620   4.598  15.195  0.00  0.00    +0.000 C 
ATOM     17  C   UNL     1       5.118   4.609  16.634  0.00  0.00    +0.000 C 
ENDBRANCH   4  17
ENDBRANCH   1  10
BRANCH   1  18
ATOM     18  N   UNL     1      -0.107  11.471  19.392  0.00  0.00    +0.000 NA
ATOM     19  C   UNL     1      -0.957  10.973  18.285  0.00  0.00    +0.000 C 
ATOM     20  C   UNL     1      -2.428  10.932  18.715  0.00  0.00    +0.000 C 
ATOM     21  N   UNL     1      -2.903  12.221  19.257  0.00  0.00    +0.000 N 
ATOM     22  C   UNL     1      -1.976  12.934  20.183  0.00  0.00    +0.000 C 
ATOM     23  C   UNL     1      -0.497  12.841  19.773  0.00  0.00    +0.000 C 
BRANCH  21  24
ATOM     24  C   UNL     1      -4.269  12.365  19.602  0.00  0.00    +0.000 A 
ATOM     25  C   UNL     1      -4.542  12.610  20.970  0.00  0.00    +0.000 A 
ATOM     26  C   UNL     1      -5.837  12.760  21.474  0.00  0.00    +0.000 A 
ATOM     27  C   UNL     1      -6.924  12.680  20.620  0.00  0.00    +0.000 A 
ATOM     28  C   UNL     1      -6.706  12.467  19.265  0.00  0.00    +0.000 A 
ATOM     29  C   UNL     1      -5.402  12.320  18.751  0.00  0.00    +0.000 A 
ATOM     30 CL   UNL     1      -5.380  12.050  17.039  0.00  0.00    +0.000 Cl
ENDBRANCH  21  24
ENDBRANCH   1  18
TORSDOF 4
ENDMDL
MODEL 5
REMARK VINA RESULT:      -8.2      1.283      2.052
REMARK  Name = 
REMARK  6 active torsions:
REMARK  status: ('A' for Active; 'I' for Inactive)
REMARK    1  A    between atoms: C_1  and  C_2
REMARK    2  A    between atoms: C_2  and  C_3
REMARK    3  A    between atoms: C_9  and  S_10
REMARK    4  A    between atoms: S_10  and  N_13
REMARK    5  A    between atoms: N_16  and  C_17
REMARK    6  A    between atoms: C_29  and  C_30
REMARK                            x       y       z     vdW  Elec       q    Type
REMARK                         _______ _______ _______ _____ _____    ______ ____
ROOT
ATOM      1  S   UNL     1       3.737   5.598  18.567  0.00  0.00    +0.000 S 
ATOM      2  O   UNL     1       3.960   4.947  19.842  0.00  0.00    +0.000 OA
ATOM      3  O   UNL     1       3.085   4.890  17.488  0.00  0.00    +0.000 OA
ENDROOT
BRANCH   1  10
ATOM      4  C   UNL     1      -0.948  10.710  18.792  0.00  0.00    +0.000 C 
ATOM      5  O   UNL     1      -0.915  10.560  17.568  0.00  0.00    +0.000 OA
ATOM      6  N   UNL     1      -0.144  10.000  19.674  0.00  0.00    +0.000 N 
ATOM      7  C   UNL     1       0.854   9.079  19.273  0.00  0.00    +0.000 A 
ATOM      8  C   UNL     1       1.378   8.868  18.007  0.00  0.00    +0.000 A 
ATOM      9  C   UNL     1       2.316   7.845  17.823  0.00  0.00    +0.000 A 
ATOM     10  C   UNL     1       2.738   7.049  18.903  0.00  0.00    +0.000 A 
ATOM     11  C   UNL     1       2.202   7.267  20.182  0.00  0.00    +0.000 A 
ATOM     12  C   UNL     1       1.286   8.308  20.352  0.00  0.00    +0.000 A 
ATOM     13  C   UNL     1       0.569   8.701  21.607  0.00  0.00    +0.000 C 
ATOM     14  C   UNL     1      -0.245   9.944  21.158  0.00  0.00    +0.000 C 
ATOM     15  C   UNL     1       0.293  11.218  21.812  0.00  0.00    +0.000 C 
BRANCH   4  17
ATOM     16  C   UNL     1      -3.254  11.758  18.727  0.00  0.00    +0.000 C 
ATOM     17  C   UNL     1      -1.879  11.759  19.387  0.00  0.00    +0.000 C 
ENDBRANCH   4  17
ENDBRANCH   1  10
BRANCH   1  18
ATOM     18  N   UNL     1       5.241   6.100  17.986  0.00  0.00    +0.000 NA
ATOM     19  C   UNL     1       6.388   5.163  17.943  0.00  0.00    +0.000 C 
ATOM     20  C   UNL     1       6.389   4.376  16.628  0.00  0.00    +0.000 C 
ATOM     21  N   UNL     1       6.327   5.248  15.438  0.00  0.00    +0.000 N 
ATOM     22  C   UNL     1       5.378   6.398  15.505  0.00  0.00    +0.000 C 
ATOM     23  C   UNL     1       5.324   7.077  16.884  0.00  0.00    +0.000 C 
BRANCH  21  24
ATOM     24  C   UNL     1       6.421   4.668  14.149  0.00  0.00    +0.000 A 
ATOM     25  C   UNL     1       5.379   3.781  13.789  0.00  0.00    +0.000 A 
ATOM     26  C   UNL     1       5.334   3.115  12.560  0.00  0.00    +0.000 A 
ATOM     27  C   UNL     1       6.335   3.321  11.627  0.00  0.00    +0.000 A 
ATOM     28  C   UNL     1       7.366   4.204  11.923  0.00  0.00    +0.000 A 
ATOM     29  C   UNL     1       7.413   4.880  13.158  0.00  0.00    +0.000 A 
ATOM     30 CL   UNL     1       8.796   5.915  13.307  0.00  0.00    +0.000 Cl
ENDBRANCH  21  24
ENDBRANCH   1  18
TORSDOF 4
ENDMDL
MODEL 6
REMARK VINA RESULT:      -8.2      4.660      9.854
REMARK  Name = 
REMARK  6 active torsions:
REMARK  status: ('A' for Active; 'I' for Inactive)
REMARK    1  A    between atoms: C_1  and  C_2
REMARK    2  A    between atoms: C_2  and  C_3
REMARK    3  A    between atoms: C_9  and  S_10
REMARK    4  A    between atoms: S_10  and  N_13
REMARK    5  A    between atoms: N_16  and  C_17
REMARK    6  A    between atoms: C_29  and  C_30
REMARK                            x       y       z     vdW  Elec       q    Type
REMARK                         _______ _______ _______ _____ _____    ______ ____
ROOT
ATOM      1  S   UNL     1      -0.004  11.380  20.028  0.00  0.00    +0.000 S 
ATOM      2  O   UNL     1      -0.384  11.724  18.674  0.00  0.00    +0.000 OA
ATOM      3  O   UNL     1      -1.014  11.144  21.035  0.00  0.00    +0.000 OA
ENDROOT
BRANCH   1  10
ATOM      4  C   UNL     1       2.555   4.931  20.081  0.00  0.00    +0.000 C 
ATOM      5  O   UNL     1       1.869   4.853  21.104  0.00  0.00    +0.000 OA
ATOM      6  N   UNL     1       2.686   6.093  19.331  0.00  0.00    +0.000 N 
ATOM      7  C   UNL     1       2.109   7.336  19.688  0.00  0.00    +0.000 A 
ATOM      8  C   UNL     1       1.530   7.709  20.890  0.00  0.00    +0.000 A 
ATOM      9  C   UNL     1       0.952   8.980  21.001  0.00  0.00    +0.000 A 
ATOM     10  C   UNL     1       0.969   9.878  19.918  0.00  0.00    +0.000 A 
ATOM     11  C   UNL     1       1.556   9.494  18.703  0.00  0.00    +0.000 A 
ATOM     12  C   UNL     1       2.150   8.232  18.618  0.00  0.00    +0.000 A 
ATOM     13  C   UNL     1       2.803   7.605  17.425  0.00  0.00    +0.000 C 
ATOM     14  C   UNL     1       3.304   6.247  17.986  0.00  0.00    +0.000 C 
ATOM     15  C   UNL     1       4.831   6.212  18.056  0.00  0.00    +0.000 C 
BRANCH   4  17
ATOM     16  C   UNL     1       2.479   2.685  18.913  0.00  0.00    +0.000 C 
ATOM     17  C   UNL     1       3.350   3.714  19.625  0.00  0.00    +0.000 C 
ENDBRANCH   4  17
ENDBRANCH   1  10
BRANCH   1  18
ATOM     18  N   UNL     1       0.984  12.622  20.606  0.00  0.00    +0.000 NA
ATOM     19  C   UNL     1       2.182  13.051  19.848  0.00  0.00    +0.000 C 
ATOM     20  C   UNL     1       1.810  14.124  18.818  0.00  0.00    +0.000 C 
ATOM     21  N   UNL     1       1.081  15.262  19.414  0.00  0.00    +0.000 N 
ATOM     22  C   UNL     1       0.022  14.924  20.411  0.00  0.00    +0.000 C 
ATOM     23  C   UNL     1       0.397  13.758  21.341  0.00  0.00    +0.000 C 
BRANCH  21  24
ATOM     24  C   UNL     1       0.758  16.377  18.604  0.00  0.00    +0.000 A 
ATOM     25  C   UNL     1      -0.589  16.811  18.649  0.00  0.00    +0.000 A 
ATOM     26  C   UNL     1      -1.071  17.886  17.897  0.00  0.00    +0.000 A 
ATOM     27  C   UNL     1      -0.213  18.588  17.067  0.00  0.00    +0.000 A 
ATOM     28  C   UNL     1       1.125  18.217  17.008  0.00  0.00    +0.000 A 
ATOM     29  C   UNL     1       1.616  17.137  17.768  0.00  0.00    +0.000 A 
ATOM     30 CL   UNL     1       3.308  16.854  17.521  0.00  0.00    +0.000 Cl
ENDBRANCH  21  24
ENDBRANCH   1  18
TORSDOF 4
ENDMDL
MODEL 7
REMARK VINA RESULT:      -8.1      3.729     10.634
REMARK  Name = 
REMARK  6 active torsions:
REMARK  status: ('A' for Active; 'I' for Inactive)
REMARK    1  A    between atoms: C_1  and  C_2
REMARK    2  A    between atoms: C_2  and  C_3
REMARK    3  A    between atoms: C_9  and  S_10
REMARK    4  A    between atoms: S_10  and  N_13
REMARK    5  A    between atoms: N_16  and  C_17
REMARK    6  A    between atoms: C_29  and  C_30
REMARK                            x       y       z     vdW  Elec       q    Type
REMARK                         _______ _______ _______ _____ _____    ______ ____
ROOT
ATOM      1  S   UNL     1       0.897   9.072  20.945  0.00  0.00    +0.000 S 
ATOM      2  O   UNL     1      -0.404   8.491  21.209  0.00  0.00    +0.000 OA
ATOM      3  O   UNL     1       1.812   9.343  22.031  0.00  0.00    +0.000 OA
ENDROOT
BRANCH   1  10
ATOM      4  C   UNL     1       5.125   5.782  16.535  0.00  0.00    +0.000 C 
ATOM      5  O   UNL     1       5.227   6.915  16.059  0.00  0.00    +0.000 OA
ATOM      6  N   UNL     1       4.293   5.470  17.603  0.00  0.00    +0.000 N 
ATOM      7  C   UNL     1       3.415   6.393  18.221  0.00  0.00    +0.000 A 
ATOM      8  C   UNL     1       3.039   7.654  17.786  0.00  0.00    +0.000 A 
ATOM      9  C   UNL     1       2.206   8.433  18.599  0.00  0.00    +0.000 A 
ATOM     10  C   UNL     1       1.741   7.944  19.834  0.00  0.00    +0.000 A 
ATOM     11  C   UNL     1       2.127   6.667  20.270  0.00  0.00    +0.000 A 
ATOM     12  C   UNL     1       2.937   5.895  19.434  0.00  0.00    +0.000 A 
ATOM     13  C   UNL     1       3.492   4.530  19.702  0.00  0.00    +0.000 C 
ATOM     14  C   UNL     1       4.248   4.205  18.386  0.00  0.00    +0.000 C 
ATOM     15  C   UNL     1       3.550   3.084  17.614  0.00  0.00    +0.000 C 
BRANCH   4  17
ATOM     16  C   UNL     1       5.540   4.421  14.439  0.00  0.00    +0.000 C 
ATOM     17  C   UNL     1       5.907   4.637  15.903  0.00  0.00    +0.000 C 
ENDBRANCH   4  17
ENDBRANCH   1  10
BRANCH   1  18
ATOM     18  N   UNL     1       0.643  10.534  20.140  0.00  0.00    +0.000 NA
ATOM     19  C   UNL     1      -0.590  10.760  19.351  0.00  0.00    +0.000 C 
ATOM     20  C   UNL     1      -1.706  11.313  20.246  0.00  0.00    +0.000 C 
ATOM     21  N   UNL     1      -1.292  12.510  21.005  0.00  0.00    +0.000 N 
ATOM     22  C   UNL     1       0.071  12.474  21.613  0.00  0.00    +0.000 C 
ATOM     23  C   UNL     1       1.128  11.798  20.724  0.00  0.00    +0.000 C 
BRANCH  21  24
ATOM     24  C   UNL     1      -2.247  13.191  21.799  0.00  0.00    +0.000 A 
ATOM     25  C   UNL     1      -2.889  12.420  22.797  0.00  0.00    +0.000 A 
ATOM     26  C   UNL     1      -3.867  12.939  23.651  0.00  0.00    +0.000 A 
ATOM     27  C   UNL     1      -4.237  14.269  23.549  0.00  0.00    +0.000 A 
ATOM     28  C   UNL     1      -3.616  15.073  22.602  0.00  0.00    +0.000 A 
ATOM     29  C   UNL     1      -2.627  14.556  21.742  0.00  0.00    +0.000 A 
ATOM     30 CL   UNL     1      -2.008  15.741  20.638  0.00  0.00    +0.000 Cl
ENDBRANCH  21  24
ENDBRANCH   1  18
TORSDOF 4
ENDMDL
MODEL 8
REMARK VINA RESULT:      -8.1      3.849     10.665
REMARK  Name = 
REMARK  6 active torsions:
REMARK  status: ('A' for Active; 'I' for Inactive)
REMARK    1  A    between atoms: C_1  and  C_2
REMARK    2  A    between atoms: C_2  and  C_3
REMARK    3  A    between atoms: C_9  and  S_10
REMARK    4  A    between atoms: S_10  and  N_13
REMARK    5  A    between atoms: N_16  and  C_17
REMARK    6  A    between atoms: C_29  and  C_30
REMARK                            x       y       z     vdW  Elec       q    Type
REMARK                         _______ _______ _______ _____ _____    ______ ____
ROOT
ATOM      1  S   UNL     1       0.821   9.382  20.745  0.00  0.00    +0.000 S 
ATOM      2  O   UNL     1      -0.521   8.880  20.959  0.00  0.00    +0.000 OA
ATOM      3  O   UNL     1       1.697   9.633  21.868  0.00  0.00    +0.000 OA
ENDROOT
BRANCH   1  10
ATOM      4  C   UNL     1       5.033   5.777  16.574  0.00  0.00    +0.000 C 
ATOM      5  O   UNL     1       5.173   6.884  16.045  0.00  0.00    +0.000 OA
ATOM      6  N   UNL     1       4.177   5.538  17.641  0.00  0.00    +0.000 N 
ATOM      7  C   UNL     1       3.313   6.513  18.198  0.00  0.00    +0.000 A 
ATOM      8  C   UNL     1       2.977   7.760  17.697  0.00  0.00    +0.000 A 
ATOM      9  C   UNL     1       2.152   8.598  18.457  0.00  0.00    +0.000 A 
ATOM     10  C   UNL     1       1.654   8.182  19.705  0.00  0.00    +0.000 A 
ATOM     11  C   UNL     1       1.999   6.918  20.208  0.00  0.00    +0.000 A 
ATOM     12  C   UNL     1       2.803   6.086  19.425  0.00  0.00    +0.000 A 
ATOM     13  C   UNL     1       3.317   4.722  19.768  0.00  0.00    +0.000 C 
ATOM     14  C   UNL     1       4.086   4.314  18.483  0.00  0.00    +0.000 C 
ATOM     15  C   UNL     1       3.371   3.176  17.753  0.00  0.00    +0.000 C 
BRANCH   4  17
ATOM     16  C   UNL     1       5.597   4.424  14.508  0.00  0.00    +0.000 C 
ATOM     17  C   UNL     1       5.796   4.584  16.011  0.00  0.00    +0.000 C 
ENDBRANCH   4  17
ENDBRANCH   1  10
BRANCH   1  18
ATOM     18  N   UNL     1       0.687  10.834  19.894  0.00  0.00    +0.000 NA
ATOM     19  C   UNL     1      -0.507  11.119  19.065  0.00  0.00    +0.000 C 
ATOM     20  C   UNL     1      -1.606  11.770  19.914  0.00  0.00    +0.000 C 
ATOM     21  N   UNL     1      -1.132  12.960  20.650  0.00  0.00    +0.000 N 
ATOM     22  C   UNL     1       0.209  12.850  21.297  0.00  0.00    +0.000 C 
ATOM     23  C   UNL     1       1.241  12.080  20.457  0.00  0.00    +0.000 C 
BRANCH  21  24
ATOM     24  C   UNL     1      -2.059  13.725  21.398  0.00  0.00    +0.000 A 
ATOM     25  C   UNL     1      -2.344  15.018  20.898  0.00  0.00    +0.000 A 
ATOM     26  C   UNL     1      -3.225  15.903  21.529  0.00  0.00    +0.000 A 
ATOM     27  C   UNL     1      -3.871  15.522  22.692  0.00  0.00    +0.000 A 
ATOM     28  C   UNL     1      -3.644  14.252  23.208  0.00  0.00    +0.000 A 
ATOM     29  C   UNL     1      -2.762  13.355  22.573  0.00  0.00    +0.000 A 
ATOM     30 CL   UNL     1      -2.629  11.840  23.405  0.00  0.00    +0.000 Cl
ENDBRANCH  21  24
ENDBRANCH   1  18
TORSDOF 4
ENDMDL
MODEL 9
REMARK VINA RESULT:      -8.1      4.552      9.989
REMARK  Name = 
REMARK  6 active torsions:
REMARK  status: ('A' for Active; 'I' for Inactive)
REMARK    1  A    between atoms: C_1  and  C_2
REMARK    2  A    between atoms: C_2  and  C_3
REMARK    3  A    between atoms: C_9  and  S_10
REMARK    4  A    between atoms: S_10  and  N_13
REMARK    5  A    between atoms: N_16  and  C_17
REMARK    6  A    between atoms: C_29  and  C_30
REMARK                            x       y       z     vdW  Elec       q    Type
REMARK                         _______ _______ _______ _____ _____    ______ ____
ROOT
ATOM      1  S   UNL     1       0.046  11.214  19.784  0.00  0.00    +0.000 S 
ATOM      2  O   UNL     1      -0.626  11.690  18.592  0.00  0.00    +0.000 OA
ATOM      3  O   UNL     1      -0.706  10.945  20.990  0.00  0.00    +0.000 OA
ENDROOT
BRANCH   1  10
ATOM      4  C   UNL     1       4.283   6.136  17.686  0.00  0.00    +0.000 C 
ATOM      5  O   UNL     1       4.593   6.979  16.841  0.00  0.00    +0.000 OA
ATOM      6  N   UNL     1       3.296   6.334  18.644  0.00  0.00    +0.000 N 
ATOM      7  C   UNL     1       2.484   7.492  18.717  0.00  0.00    +0.000 A 
ATOM      8  C   UNL     1       2.336   8.506  17.784  0.00  0.00    +0.000 A 
ATOM      9  C   UNL     1       1.526   9.605  18.098  0.00  0.00    +0.000 A 
ATOM     10  C   UNL     1       0.856   9.678  19.333  0.00  0.00    +0.000 A 
ATOM     11  C   UNL     1       1.011   8.649  20.274  0.00  0.00    +0.000 A 
ATOM     12  C   UNL     1       1.803   7.549  19.934  0.00  0.00    +0.000 A 
ATOM     13  C   UNL     1       2.132   6.360  20.782  0.00  0.00    +0.000 C 
ATOM     14  C   UNL     1       2.988   5.486  19.827  0.00  0.00    +0.000 C 
ATOM     15  C   UNL     1       2.241   4.211  19.432  0.00  0.00    +0.000 C 
BRANCH   4  17
ATOM     16  C   UNL     1       4.583   3.944  16.452  0.00  0.00    +0.000 C 
ATOM     17  C   UNL     1       4.972   4.777  17.668  0.00  0.00    +0.000 C 
ENDBRANCH   4  17
ENDBRANCH   1  10
BRANCH   1  18
ATOM     18  N   UNL     1       1.228  12.350  20.186  0.00  0.00    +0.000 NA
ATOM     19  C   UNL     1       2.233  12.783  19.188  0.00  0.00    +0.000 C 
ATOM     20  C   UNL     1       1.698  13.957  18.361  0.00  0.00    +0.000 C 
ATOM     21  N   UNL     1       1.216  15.075  19.198  0.00  0.00    +0.000 N 
ATOM     22  C   UNL     1       0.410  14.706  20.399  0.00  0.00    +0.000 C 
ATOM     23  C   UNL     1       0.917  13.447  21.122  0.00  0.00    +0.000 C 
BRANCH  21  24
ATOM     24  C   UNL     1       0.784  16.271  18.575  0.00  0.00    +0.000 A 
ATOM     25  C   UNL     1      -0.562  16.642  18.806  0.00  0.00    +0.000 A 
ATOM     26  C   UNL     1      -1.144  17.785  18.249  0.00  0.00    +0.000 A 
ATOM     27  C   UNL     1      -0.392  18.618  17.439  0.00  0.00    +0.000 A 
ATOM     28  C   UNL     1       0.942  18.310  17.204  0.00  0.00    +0.000 A 
ATOM     29  C   UNL     1       1.534  17.162  17.766  0.00  0.00    +0.000 A 
ATOM     30 CL   UNL     1       3.200  16.979  17.322  0.00  0.00    +0.000 Cl
ENDBRANCH  21  24
ENDBRANCH   1  18
TORSDOF 4
ENDMDL
