MODEL 1
REMARK VINA RESULT:      -8.4      0.000      0.000
REMARK  Name = 
REMARK  5 active torsions:
REMARK  status: ('A' for Active; 'I' for Inactive)
REMARK    1  A    between atoms: C_1  and  C_2
REMARK    2  A    between atoms: C_4  and  N_5
REMARK    3  A    between atoms: N_5  and  C_6
REMARK    4  A    between atoms: C_6  and  C_7
REMARK    5  A    between atoms: C_19  and  C_20
REMARK                            x       y       z     vdW  Elec       q    Type
REMARK                         _______ _______ _______ _____ _____    ______ ____
ROOT
ATOM      1  C   UNL     1       5.488   6.056  16.551  0.00  0.00    +0.000 C 
ATOM      2  C   UNL     1       4.385   5.920  17.555  0.00  0.00    +0.000 A 
ATOM      3  C   UNL     1       3.597   6.992  17.921  0.00  0.00    +0.000 A 
ATOM      4  C   UNL     1       2.551   6.810  18.841  0.00  0.00    +0.000 A 
ATOM      5  C   UNL     1       2.371   5.513  19.427  0.00  0.00    +0.000 A 
ATOM      6  C   UNL     1       1.404   5.186  20.419  0.00  0.00    +0.000 A 
ATOM      7  C   UNL     1       1.246   3.908  20.940  0.00  0.00    +0.000 A 
ATOM      8  C   UNL     1       2.084   2.906  20.511  0.00  0.00    +0.000 A 
ATOM      9  C   UNL     1       3.080   3.180  19.558  0.00  0.00    +0.000 A 
ATOM     10  C   UNL     1       3.236   4.467  18.998  0.00  0.00    +0.000 A 
ATOM     11  N   UNL     1       4.206   4.694  18.081  0.00  0.00    +0.000 NA
ENDROOT
BRANCH   9  12
ATOM     12  C   UNL     1       3.953   2.015  19.208  0.00  0.00    +0.000 C 
ATOM     13  N   UNL     1       5.141   1.872  19.856  0.00  0.00    +0.000 N 
ATOM     14  O   UNL     1       3.618   1.190  18.364  0.00  0.00    +0.000 OA
ATOM     15  H   UNL     1       5.424   2.552  20.560  0.00  0.00    +0.000 HD
ATOM     16  H   UNL     1       5.734   1.086  19.640  0.00  0.00    +0.000 HD
ENDBRANCH   9  12
BRANCH   4  17
ATOM     17  N   UNL     1       1.846   7.999  19.135  0.00  0.00    +0.000 N 
ATOM     18  H   UNL     1       2.280   8.776  18.634  0.00  0.00    +0.000 HD
BRANCH  17  19
ATOM     19  C   UNL     1       1.514   8.393  20.499  0.00  0.00    +0.000 C 
BRANCH  19  20
ATOM     20  C   UNL     1       0.592   9.590  20.524  0.00  0.00    +0.000 A 
ATOM     21  C   UNL     1       0.217  10.166  19.294  0.00  0.00    +0.000 A 
ATOM     22  C   UNL     1      -0.692  11.220  19.241  0.00  0.00    +0.000 A 
ATOM     23  C   UNL     1      -1.245  11.720  20.416  0.00  0.00    +0.000 A 
ATOM     24  C   UNL     1      -0.898  11.159  21.648  0.00  0.00    +0.000 A 
ATOM     25 CL   UNL     1      -1.647  11.830  23.057  0.00  0.00    +0.000 Cl
ATOM     26  C   UNL     1       0.010  10.089  21.710  0.00  0.00    +0.000 A 
ATOM     27 CL   UNL     1       0.386   9.370  23.248  0.00  0.00    +0.000 Cl
ENDBRANCH  19  20
ENDBRANCH  17  19
ENDBRANCH   4  17
TORSDOF 4
ENDMDL
MODEL 2
REMARK VINA RESULT:      -8.4      1.953      2.220
REMARK  Name = 
REMARK  5 active torsions:
REMARK  status: ('A' for Active; 'I' for Inactive)
REMARK    1  A    between atoms: C_1  and  C_2
REMARK    2  A    between atoms: C_4  and  N_5
REMARK    3  A    between atoms: N_5  and  C_6
REMARK    4  A    between atoms: C_6  and  C_7
REMARK    5  A    between atoms: C_19  and  C_20
REMARK                            x       y       z     vdW  Elec       q    Type
REMARK                         _______ _______ _______ _____ _____    ______ ____
ROOT
ATOM      1  C   UNL     1       5.709   5.826  15.915  0.00  0.00    +0.000 C 
ATOM      2  C   UNL     1       4.698   5.986  17.009  0.00  0.00    +0.000 A 
ATOM      3  C   UNL     1       4.038   7.178  17.222  0.00  0.00    +0.000 A 
ATOM      4  C   UNL     1       3.072   7.271  18.237  0.00  0.00    +0.000 A 
ATOM      5  C   UNL     1       2.843   6.129  19.074  0.00  0.00    +0.000 A 
ATOM      6  C   UNL     1       1.951   6.085  20.182  0.00  0.00    +0.000 A 
ATOM      7  C   UNL     1       1.740   4.947  20.950  0.00  0.00    +0.000 A 
ATOM      8  C   UNL     1       2.450   3.806  20.656  0.00  0.00    +0.000 A 
ATOM      9  C   UNL     1       3.370   3.802  19.595  0.00  0.00    +0.000 A 
ATOM     10  C   UNL     1       3.577   4.942  18.788  0.00  0.00    +0.000 A 
ATOM     11  N   UNL     1       4.471   4.901  17.772  0.00  0.00    +0.000 NA
ENDROOT
BRANCH   9  12
ATOM     12  C   UNL     1       4.109   2.513  19.409  0.00  0.00    +0.000 C 
ATOM     13  N   UNL     1       3.893   1.795  18.274  0.00  0.00    +0.000 N 
ATOM     14  O   UNL     1       4.906   2.101  20.247  0.00  0.00    +0.000 OA
ATOM     15  H   UNL     1       3.236   2.133  17.573  0.00  0.00    +0.000 HD
ATOM     16  H   UNL     1       4.393   0.931  18.129  0.00  0.00    +0.000 HD
ENDBRANCH   9  12
BRANCH   4  17
ATOM     17  N   UNL     1       2.497   8.557  18.352  0.00  0.00    +0.000 N 
ATOM     18  H   UNL     1       2.539   8.855  19.328  0.00  0.00    +0.000 HD
BRANCH  17  19
ATOM     19  C   UNL     1       1.201   8.888  17.774  0.00  0.00    +0.000 C 
BRANCH  19  20
ATOM     20  C   UNL     1       0.405   9.803  18.677  0.00  0.00    +0.000 A 
ATOM     21  C   UNL     1       1.021  10.279  19.850  0.00  0.00    +0.000 A 
ATOM     22  C   UNL     1       0.375  11.188  20.685  0.00  0.00    +0.000 A 
ATOM     23  C   UNL     1      -0.903  11.638  20.363  0.00  0.00    +0.000 A 
ATOM     24  C   UNL     1      -1.532  11.189  19.199  0.00  0.00    +0.000 A 
ATOM     25 CL   UNL     1      -3.112  11.813  18.867  0.00  0.00    +0.000 Cl
ATOM     26  C   UNL     1      -0.883  10.280  18.346  0.00  0.00    +0.000 A 
ATOM     27 CL   UNL     1      -1.661   9.776  16.876  0.00  0.00    +0.000 Cl
ENDBRANCH  19  20
ENDBRANCH  17  19
ENDBRANCH   4  17
TORSDOF 4
ENDMDL
MODEL 3
REMARK VINA RESULT:      -8.4      1.242      1.382
REMARK  Name = 
REMARK  5 active torsions:
REMARK  status: ('A' for Active; 'I' for Inactive)
REMARK    1  A    between atoms: C_1  and  C_2
REMARK    2  A    between atoms: C_4  and  N_5
REMARK    3  A    between atoms: N_5  and  C_6
REMARK    4  A    between atoms: C_6  and  C_7
REMARK    5  A    between atoms: C_19  and  C_20
REMARK                            x       y       z     vdW  Elec       q    Type
REMARK                         _______ _______ _______ _____ _____    ______ ____
ROOT
ATOM      1  C   UNL     1       5.739   4.998  16.439  0.00  0.00    +0.000 C 
ATOM      2  C   UNL     1       4.596   5.033  17.406  0.00  0.00    +0.000 A 
ATOM      3  C   UNL     1       3.681   6.066  17.416  0.00  0.00    +0.000 A 
ATOM      4  C   UNL     1       2.606   6.039  18.318  0.00  0.00    +0.000 A 
ATOM      5  C   UNL     1       2.523   4.957  19.256  0.00  0.00    +0.000 A 
ATOM      6  C   UNL     1       1.536   4.822  20.272  0.00  0.00    +0.000 A 
ATOM      7  C   UNL     1       1.477   3.742  21.143  0.00  0.00    +0.000 A 
ATOM      8  C   UNL     1       2.439   2.762  21.053  0.00  0.00    +0.000 A 
ATOM      9  C   UNL     1       3.457   2.861  20.091  0.00  0.00    +0.000 A 
ATOM     10  C   UNL     1       3.516   3.939  19.181  0.00  0.00    +0.000 A 
ATOM     11  N   UNL     1       4.512   4.000  18.265  0.00  0.00    +0.000 NA
ENDROOT
BRANCH   9  12
ATOM     12  C   UNL     1       4.465   1.754  20.126  0.00  0.00    +0.000 C 
ATOM     13  N   UNL     1       4.483   0.855  19.106  0.00  0.00    +0.000 N 
ATOM     14  O   UNL     1       5.273   1.649  21.044  0.00  0.00    +0.000 OA
ATOM     15  H   UNL     1       3.817   0.938  18.340  0.00  0.00    +0.000 HD
ATOM     16  H   UNL     1       5.164   0.111  19.109  0.00  0.00    +0.000 HD
ENDBRANCH   9  12
BRANCH   4  17
ATOM     17  N   UNL     1       1.766   7.172  18.228  0.00  0.00    +0.000 N 
ATOM     18  H   UNL     1       1.238   7.127  17.355  0.00  0.00    +0.000 HD
BRANCH  17  19
ATOM     19  C   UNL     1       2.252   8.526  18.460  0.00  0.00    +0.000 C 
BRANCH  19  20
ATOM     20  C   UNL     1       1.183   9.407  19.066  0.00  0.00    +0.000 A 
ATOM     21  C   UNL     1       0.468  10.266  18.210  0.00  0.00    +0.000 A 
ATOM     22  C   UNL     1      -0.584  11.045  18.687  0.00  0.00    +0.000 A 
ATOM     23  C   UNL     1      -0.941  10.980  20.031  0.00  0.00    +0.000 A 
ATOM     24  C   UNL     1      -0.254  10.127  20.899  0.00  0.00    +0.000 A 
ATOM     25 CL   UNL     1      -0.775  10.096  22.549  0.00  0.00    +0.000 Cl
ATOM     26  C   UNL     1       0.801   9.331  20.423  0.00  0.00    +0.000 A 
ATOM     27 CL   UNL     1       1.607   8.236  21.507  0.00  0.00    +0.000 Cl
ENDBRANCH  19  20
ENDBRANCH  17  19
ENDBRANCH   4  17
TORSDOF 4
ENDMDL
MODEL 4
REMARK VINA RESULT:      -8.3      4.521      7.097
REMARK  Name = 
REMARK  5 active torsions:
REMARK  status: ('A' for Active; 'I' for Inactive)
REMARK    1  A    between atoms: C_1  and  C_2
REMARK    2  A    between atoms: C_4  and  N_5
REMARK    3  A    between atoms: N_5  and  C_6
REMARK    4  A    between atoms: C_6  and  C_7
REMARK    5  A    between atoms: C_19  and  C_20
REMARK                            x       y       z     vdW  Elec       q    Type
REMARK                         _______ _______ _______ _____ _____    ______ ____
ROOT
ATOM      1  C   UNL     1       7.730   6.789  17.684  0.00  0.00    +0.000 C 
ATOM      2  C   UNL     1       7.043   5.825  16.767  0.00  0.00    +0.000 A 
ATOM      3  C   UNL     1       6.066   4.961  17.217  0.00  0.00    +0.000 A 
ATOM      4  C   UNL     1       5.424   4.099  16.314  0.00  0.00    +0.000 A 
ATOM      5  C   UNL     1       5.851   4.098  14.944  0.00  0.00    +0.000 A 
ATOM      6  C   UNL     1       5.349   3.240  13.926  0.00  0.00    +0.000 A 
ATOM      7  C   UNL     1       5.773   3.291  12.604  0.00  0.00    +0.000 A 
ATOM      8  C   UNL     1       6.755   4.189  12.255  0.00  0.00    +0.000 A 
ATOM      9  C   UNL     1       7.312   5.037  13.227  0.00  0.00    +0.000 A 
ATOM     10  C   UNL     1       6.873   5.016  14.569  0.00  0.00    +0.000 A 
ATOM     11  N   UNL     1       7.432   5.849  15.479  0.00  0.00    +0.000 NA
ENDROOT
BRANCH   9  12
ATOM     12  C   UNL     1       8.401   5.935  12.728  0.00  0.00    +0.000 C 
ATOM     13  N   UNL     1       9.552   6.026  13.447  0.00  0.00    +0.000 N 
ATOM     14  O   UNL     1       8.280   6.577  11.689  0.00  0.00    +0.000 OA
ATOM     15  H   UNL     1       9.660   5.493  14.308  0.00  0.00    +0.000 HD
ATOM     16  H   UNL     1      10.300   6.617  13.117  0.00  0.00    +0.000 HD
ENDBRANCH   9  12
BRANCH   4  17
ATOM     17  N   UNL     1       4.464   3.258  16.921  0.00  0.00    +0.000 N 
ATOM     18  H   UNL     1       4.581   2.307  16.565  0.00  0.00    +0.000 HD
BRANCH  17  19
ATOM     19  C   UNL     1       3.051   3.607  16.990  0.00  0.00    +0.000 C 
BRANCH  19  20
ATOM     20  C   UNL     1       2.665   4.100  18.366  0.00  0.00    +0.000 A 
ATOM     21  C   UNL     1       2.663   5.488  18.598  0.00  0.00    +0.000 A 
ATOM     22  C   UNL     1       2.241   6.014  19.817  0.00  0.00    +0.000 A 
ATOM     23  C   UNL     1       1.813   5.160  20.829  0.00  0.00    +0.000 A 
ATOM     24  C   UNL     1       1.795   3.779  20.621  0.00  0.00    +0.000 A 
ATOM     25 CL   UNL     1       1.231   2.792  21.927  0.00  0.00    +0.000 Cl
ATOM     26  C   UNL     1       2.209   3.241  19.391  0.00  0.00    +0.000 A 
ATOM     27 CL   UNL     1       2.128   1.523  19.133  0.00  0.00    +0.000 Cl
ENDBRANCH  19  20
ENDBRANCH  17  19
ENDBRANCH   4  17
TORSDOF 4
ENDMDL
MODEL 5
REMARK VINA RESULT:      -8.3      1.955      2.037
REMARK  Name = 
REMARK  5 active torsions:
REMARK  status: ('A' for Active; 'I' for Inactive)
REMARK    1  A    between atoms: C_1  and  C_2
REMARK    2  A    between atoms: C_4  and  N_5
REMARK    3  A    between atoms: N_5  and  C_6
REMARK    4  A    between atoms: C_6  and  C_7
REMARK    5  A    between atoms: C_19  and  C_20
REMARK                            x       y       z     vdW  Elec       q    Type
REMARK                         _______ _______ _______ _____ _____    ______ ____
ROOT
ATOM      1  C   UNL     1       5.333   6.345  16.236  0.00  0.00    +0.000 C 
ATOM      2  C   UNL     1       4.331   6.243  17.344  0.00  0.00    +0.000 A 
ATOM      3  C   UNL     1       3.528   7.307  17.700  0.00  0.00    +0.000 A 
ATOM      4  C   UNL     1       2.577   7.155  18.723  0.00  0.00    +0.000 A 
ATOM      5  C   UNL     1       2.511   5.902  19.417  0.00  0.00    +0.000 A 
ATOM      6  C   UNL     1       1.652   5.614  20.515  0.00  0.00    +0.000 A 
ATOM      7  C   UNL     1       1.601   4.375  21.142  0.00  0.00    +0.000 A 
ATOM      8  C   UNL     1       2.445   3.377  20.712  0.00  0.00    +0.000 A 
ATOM      9  C   UNL     1       3.338   3.617  19.655  0.00  0.00    +0.000 A 
ATOM     10  C   UNL     1       3.384   4.862  18.990  0.00  0.00    +0.000 A 
ATOM     11  N   UNL     1       4.257   5.055  17.973  0.00  0.00    +0.000 NA
ENDROOT
BRANCH   9  12
ATOM     12  C   UNL     1       4.232   2.465  19.314  0.00  0.00    +0.000 C 
ATOM     13  N   UNL     1       4.127   1.901  18.081  0.00  0.00    +0.000 N 
ATOM     14  O   UNL     1       5.055   2.030  20.113  0.00  0.00    +0.000 OA
ATOM     15  H   UNL     1       3.448   2.258  17.411  0.00  0.00    +0.000 HD
ATOM     16  H   UNL     1       4.731   1.132  17.831  0.00  0.00    +0.000 HD
ENDBRANCH   9  12
BRANCH   4  17
ATOM     17  N   UNL     1       1.845   8.334  18.992  0.00  0.00    +0.000 N 
ATOM     18  H   UNL     1       0.893   8.080  19.261  0.00  0.00    +0.000 HD
BRANCH  17  19
ATOM     19  C   UNL     1       1.832   9.472  18.082  0.00  0.00    +0.000 C 
BRANCH  19  20
ATOM     20  C   UNL     1       0.544  10.256  18.188  0.00  0.00    +0.000 A 
ATOM     21  C   UNL     1      -0.650   9.630  17.781  0.00  0.00    +0.000 A 
ATOM     22  C   UNL     1      -1.881  10.264  17.927  0.00  0.00    +0.000 A 
ATOM     23  C   UNL     1      -1.942  11.540  18.481  0.00  0.00    +0.000 A 
ATOM     24  C   UNL     1      -0.773  12.179  18.902  0.00  0.00    +0.000 A 
ATOM     25 CL   UNL     1      -0.943  13.756  19.596  0.00  0.00    +0.000 Cl
ATOM     26  C   UNL     1       0.471  11.541  18.768  0.00  0.00    +0.000 A 
ATOM     27 CL   UNL     1       1.908  12.331  19.348  0.00  0.00    +0.000 Cl
ENDBRANCH  19  20
ENDBRANCH  17  19
ENDBRANCH   4  17
TORSDOF 4
ENDMDL
MODEL 6
REMARK VINA RESULT:      -8.3      4.314      7.013
REMARK  Name = 
REMARK  5 active torsions:
REMARK  status: ('A' for Active; 'I' for Inactive)
REMARK    1  A    between atoms: C_1  and  C_2
REMARK    2  A    between atoms: C_4  and  N_5
REMARK    3  A    between atoms: N_5  and  C_6
REMARK    4  A    between atoms: C_6  and  C_7
REMARK    5  A    between atoms: C_19  and  C_20
REMARK                            x       y       z     vdW  Elec       q    Type
REMARK                         _______ _______ _______ _____ _____    ______ ____
ROOT
ATOM      1  C   UNL     1       7.732   6.793  17.723  0.00  0.00    +0.000 C 
ATOM      2  C   UNL     1       7.042   5.813  16.825  0.00  0.00    +0.000 A 
ATOM      3  C   UNL     1       6.077   4.947  17.296  0.00  0.00    +0.000 A 
ATOM      4  C   UNL     1       5.432   4.069  16.410  0.00  0.00    +0.000 A 
ATOM      5  C   UNL     1       5.844   4.056  15.035  0.00  0.00    +0.000 A 
ATOM      6  C   UNL     1       5.337   3.182  14.033  0.00  0.00    +0.000 A 
ATOM      7  C   UNL     1       5.746   3.222  12.706  0.00  0.00    +0.000 A 
ATOM      8  C   UNL     1       6.717   4.123  12.336  0.00  0.00    +0.000 A 
ATOM      9  C   UNL     1       7.278   4.986  13.291  0.00  0.00    +0.000 A 
ATOM     10  C   UNL     1       6.854   4.977  14.639  0.00  0.00    +0.000 A 
ATOM     11  N   UNL     1       7.417   5.826  15.532  0.00  0.00    +0.000 NA
ENDROOT
BRANCH   9  12
ATOM     12  C   UNL     1       8.354   5.887  12.770  0.00  0.00    +0.000 C 
ATOM     13  N   UNL     1       8.126   6.580  11.622  0.00  0.00    +0.000 N 
ATOM     14  O   UNL     1       9.424   6.018  13.357  0.00  0.00    +0.000 OA
ATOM     15  H   UNL     1       7.239   6.479  11.132  0.00  0.00    +0.000 HD
ATOM     16  H   UNL     1       8.837   7.201  11.266  0.00  0.00    +0.000 HD
ENDBRANCH   9  12
BRANCH   4  17
ATOM     17  N   UNL     1       4.487   3.228  17.038  0.00  0.00    +0.000 N 
ATOM     18  H   UNL     1       4.738   2.254  16.861  0.00  0.00    +0.000 HD
BRANCH  17  19
ATOM     19  C   UNL     1       3.049   3.419  16.888  0.00  0.00    +0.000 C 
BRANCH  19  20
ATOM     20  C   UNL     1       2.378   3.669  18.219  0.00  0.00    +0.000 A 
ATOM     21  C   UNL     1       1.914   2.558  18.949  0.00  0.00    +0.000 A 
ATOM     22  C   UNL     1       1.360   2.711  20.217  0.00  0.00    +0.000 A 
ATOM     23  C   UNL     1       1.257   3.980  20.781  0.00  0.00    +0.000 A 
ATOM     24  C   UNL     1       1.720   5.097  20.083  0.00  0.00    +0.000 A 
ATOM     25 CL   UNL     1       1.570   6.634  20.866  0.00  0.00    +0.000 Cl
ATOM     26  C   UNL     1       2.291   4.951  18.807  0.00  0.00    +0.000 A 
ATOM     27 CL   UNL     1       2.910   6.348  17.978  0.00  0.00    +0.000 Cl
ENDBRANCH  19  20
ENDBRANCH  17  19
ENDBRANCH   4  17
TORSDOF 4
ENDMDL
MODEL 7
REMARK VINA RESULT:      -8.2      1.727      2.021
REMARK  Name = 
REMARK  5 active torsions:
REMARK  status: ('A' for Active; 'I' for Inactive)
REMARK    1  A    between atoms: C_1  and  C_2
REMARK    2  A    between atoms: C_4  and  N_5
REMARK    3  A    between atoms: N_5  and  C_6
REMARK    4  A    between atoms: C_6  and  C_7
REMARK    5  A    between atoms: C_19  and  C_20
REMARK                            x       y       z     vdW  Elec       q    Type
REMARK                         _______ _______ _______ _____ _____    ______ ____
ROOT
ATOM      1  C   UNL     1       5.443   6.144  16.242  0.00  0.00    +0.000 C 
ATOM      2  C   UNL     1       4.383   6.082  17.299  0.00  0.00    +0.000 A 
ATOM      3  C   UNL     1       3.646   7.192  17.658  0.00  0.00    +0.000 A 
ATOM      4  C   UNL     1       2.638   7.079  18.630  0.00  0.00    +0.000 A 
ATOM      5  C   UNL     1       2.444   5.811  19.272  0.00  0.00    +0.000 A 
ATOM      6  C   UNL     1       1.514   5.552  20.319  0.00  0.00    +0.000 A 
ATOM      7  C   UNL     1       1.341   4.300  20.895  0.00  0.00    +0.000 A 
ATOM      8  C   UNL     1       2.127   3.256  20.467  0.00  0.00    +0.000 A 
ATOM      9  C   UNL     1       3.085   3.462  19.462  0.00  0.00    +0.000 A 
ATOM     10  C   UNL     1       3.256   4.722  18.846  0.00  0.00    +0.000 A 
ATOM     11  N   UNL     1       4.190   4.883  17.878  0.00  0.00    +0.000 NA
ENDROOT
BRANCH   9  12
ATOM     12  C   UNL     1       3.905   2.257  19.118  0.00  0.00    +0.000 C 
ATOM     13  N   UNL     1       5.121   2.106  19.708  0.00  0.00    +0.000 N 
ATOM     14  O   UNL     1       3.502   1.408  18.330  0.00  0.00    +0.000 OA
ATOM     15  H   UNL     1       5.461   2.805  20.366  0.00  0.00    +0.000 HD
ATOM     16  H   UNL     1       5.680   1.293  19.496  0.00  0.00    +0.000 HD
ENDBRANCH   9  12
BRANCH   4  17
ATOM     17  N   UNL     1       1.985   8.300  18.910  0.00  0.00    +0.000 N 
ATOM     18  H   UNL     1       1.288   8.145  19.640  0.00  0.00    +0.000 HD
BRANCH  17  19
ATOM     19  C   UNL     1       1.443   9.155  17.861  0.00  0.00    +0.000 C 
BRANCH  19  20
ATOM     20  C   UNL     1       1.373  10.600  18.301  0.00  0.00    +0.000 A 
ATOM     21  C   UNL     1       2.464  11.439  18.004  0.00  0.00    +0.000 A 
ATOM     22  C   UNL     1       2.432  12.797  18.309  0.00  0.00    +0.000 A 
ATOM     23  C   UNL     1       1.307  13.345  18.919  0.00  0.00    +0.000 A 
ATOM     24  C   UNL     1       0.207  12.536  19.215  0.00  0.00    +0.000 A 
ATOM     25 CL   UNL     1      -1.157  13.302  19.957  0.00  0.00    +0.000 Cl
ATOM     26  C   UNL     1       0.227  11.167  18.901  0.00  0.00    +0.000 A 
ATOM     27 CL   UNL     1      -1.173  10.190  19.229  0.00  0.00    +0.000 Cl
ENDBRANCH  19  20
ENDBRANCH  17  19
ENDBRANCH   4  17
TORSDOF 4
ENDMDL
MODEL 8
REMARK VINA RESULT:      -8.1      1.519      1.870
REMARK  Name = 
REMARK  5 active torsions:
REMARK  status: ('A' for Active; 'I' for Inactive)
REMARK    1  A    between atoms: C_1  and  C_2
REMARK    2  A    between atoms: C_4  and  N_5
REMARK    3  A    between atoms: N_5  and  C_6
REMARK    4  A    between atoms: C_6  and  C_7
REMARK    5  A    between atoms: C_19  and  C_20
REMARK                            x       y       z     vdW  Elec       q    Type
REMARK                         _______ _______ _______ _____ _____    ______ ____
ROOT
ATOM      1  C   UNL     1       4.718   6.338  16.501  0.00  0.00    +0.000 C 
ATOM      2  C   UNL     1       3.848   6.020  17.678  0.00  0.00    +0.000 A 
ATOM      3  C   UNL     1       3.338   7.008  18.496  0.00  0.00    +0.000 A 
ATOM      4  C   UNL     1       2.498   6.664  19.568  0.00  0.00    +0.000 A 
ATOM      5  C   UNL     1       2.242   5.276  19.822  0.00  0.00    +0.000 A 
ATOM      6  C   UNL     1       1.471   4.766  20.904  0.00  0.00    +0.000 A 
ATOM      7  C   UNL     1       1.226   3.412  21.097  0.00  0.00    +0.000 A 
ATOM      8  C   UNL     1       1.781   2.505  20.225  0.00  0.00    +0.000 A 
ATOM      9  C   UNL     1       2.580   2.950  19.159  0.00  0.00    +0.000 A 
ATOM     10  C   UNL     1       2.817   4.324  18.933  0.00  0.00    +0.000 A 
ATOM     11  N   UNL     1       3.592   4.716  17.893  0.00  0.00    +0.000 NA
ENDROOT
BRANCH   9  12
ATOM     12  C   UNL     1       3.161   1.861  18.311  0.00  0.00    +0.000 C 
ATOM     13  N   UNL     1       2.777   1.774  17.009  0.00  0.00    +0.000 N 
ATOM     14  O   UNL     1       3.975   1.060  18.760  0.00  0.00    +0.000 OA
ATOM     15  H   UNL     1       2.105   2.438  16.628  0.00  0.00    +0.000 HD
ATOM     16  H   UNL     1       3.169   1.054  16.421  0.00  0.00    +0.000 HD
ENDBRANCH   9  12
BRANCH   4  17
ATOM     17  N   UNL     1       2.072   7.776  20.329  0.00  0.00    +0.000 N 
ATOM     18  H   UNL     1       1.622   7.442  21.183  0.00  0.00    +0.000 HD
BRANCH  17  19
ATOM     19  C   UNL     1       1.312   8.876  19.748  0.00  0.00    +0.000 C 
BRANCH  19  20
ATOM     20  C   UNL     1       0.499   9.605  20.794  0.00  0.00    +0.000 A 
ATOM     21  C   UNL     1       0.207   8.933  21.996  0.00  0.00    +0.000 A 
ATOM     22  C   UNL     1      -0.467   9.573  23.033  0.00  0.00    +0.000 A 
ATOM     23  C   UNL     1      -0.864  10.899  22.888  0.00  0.00    +0.000 A 
ATOM     24  C   UNL     1      -0.577  11.592  21.709  0.00  0.00    +0.000 A 
ATOM     25 CL   UNL     1      -1.090  13.243  21.621  0.00  0.00    +0.000 Cl
ATOM     26  C   UNL     1       0.112  10.957  20.663  0.00  0.00    +0.000 A 
ATOM     27 CL   UNL     1       0.507  11.854  19.226  0.00  0.00    +0.000 Cl
ENDBRANCH  19  20
ENDBRANCH  17  19
ENDBRANCH   4  17
TORSDOF 4
ENDMDL
MODEL 9
REMARK VINA RESULT:      -8.1      3.855      7.265
REMARK  Name = 
REMARK  5 active torsions:
REMARK  status: ('A' for Active; 'I' for Inactive)
REMARK    1  A    between atoms: C_1  and  C_2
REMARK    2  A    between atoms: C_4  and  N_5
REMARK    3  A    between atoms: N_5  and  C_6
REMARK    4  A    between atoms: C_6  and  C_7
REMARK    5  A    between atoms: C_19  and  C_20
REMARK                            x       y       z     vdW  Elec       q    Type
REMARK                         _______ _______ _______ _____ _____    ______ ____
ROOT
ATOM      1  C   UNL     1       1.272   3.154  21.746  0.00  0.00    +0.000 C 
ATOM      2  C   UNL     1       1.674   4.046  20.611  0.00  0.00    +0.000 A 
ATOM      3  C   UNL     1       2.204   3.541  19.441  0.00  0.00    +0.000 A 
ATOM      4  C   UNL     1       2.535   4.413  18.391  0.00  0.00    +0.000 A 
ATOM      5  C   UNL     1       2.368   5.823  18.590  0.00  0.00    +0.000 A 
ATOM      6  C   UNL     1       2.718   6.835  17.652  0.00  0.00    +0.000 A 
ATOM      7  C   UNL     1       2.514   8.190  17.876  0.00  0.00    +0.000 A 
ATOM      8  C   UNL     1       1.979   8.592  19.078  0.00  0.00    +0.000 A 
ATOM      9  C   UNL     1       1.647   7.639  20.055  0.00  0.00    +0.000 A 
ATOM     10  C   UNL     1       1.823   6.256  19.832  0.00  0.00    +0.000 A 
ATOM     11  N   UNL     1       1.490   5.366  20.798  0.00  0.00    +0.000 NA
ENDROOT
BRANCH   9  12
ATOM     12  C   UNL     1       1.115   8.209  21.334  0.00  0.00    +0.000 C 
ATOM     13  N   UNL     1      -0.214   8.092  21.598  0.00  0.00    +0.000 N 
ATOM     14  O   UNL     1       1.850   8.765  22.145  0.00  0.00    +0.000 OA
ATOM     15  H   UNL     1      -0.829   7.628  20.931  0.00  0.00    +0.000 HD
ATOM     16  H   UNL     1      -0.585   8.459  22.461  0.00  0.00    +0.000 HD
ENDBRANCH   9  12
BRANCH   4  17
ATOM     17  N   UNL     1       3.088   3.757  17.267  0.00  0.00    +0.000 N 
ATOM     18  H   UNL     1       2.398   3.107  16.888  0.00  0.00    +0.000 HD
BRANCH  17  19
ATOM     19  C   UNL     1       4.409   3.141  17.293  0.00  0.00    +0.000 C 
BRANCH  19  20
ATOM     20  C   UNL     1       5.473   4.083  16.778  0.00  0.00    +0.000 A 
ATOM     21  C   UNL     1       5.758   4.073  15.399  0.00  0.00    +0.000 A 
ATOM     22  C   UNL     1       6.670   4.970  14.847  0.00  0.00    +0.000 A 
ATOM     23  C   UNL     1       7.315   5.894  15.663  0.00  0.00    +0.000 A 
ATOM     24  C   UNL     1       7.042   5.932  17.032  0.00  0.00    +0.000 A 
ATOM     25 CL   UNL     1       7.875   7.125  17.970  0.00  0.00    +0.000 Cl
ATOM     26  C   UNL     1       6.116   5.038  17.596  0.00  0.00    +0.000 A 
ATOM     27 CL   UNL     1       5.750   5.138  19.293  0.00  0.00    +0.000 Cl
ENDBRANCH  19  20
ENDBRANCH  17  19
ENDBRANCH   4  17
TORSDOF 4
ENDMDL
