MODEL 1
REMARK VINA RESULT:      -6.6      0.000      0.000
REMARK  Name = 
REMARK  5 active torsions:
REMARK  status: ('A' for Active; 'I' for Inactive)
REMARK    1  A    between atoms: C_1  and  C_2
REMARK    2  A    between atoms: C_5  and  C_6
REMARK    3  A    between atoms: C_8  and  S_9
REMARK    4  A    between atoms: C_11  and  O_12
REMARK    5  A    between atoms: C_13  and  C_14
REMARK                            x       y       z     vdW  Elec       q    Type
REMARK                         _______ _______ _______ _____ _____    ______ ____
ROOT
ATOM      1  C   UNL     1       2.914   5.744  19.526  0.00  0.00    +0.000 A 
ATOM      2  N   UNL     1       2.124   4.933  20.285  0.00  0.00    +0.000 NA
ATOM      3  C   UNL     1       2.547   3.680  20.521  0.00  0.00    +0.000 A 
ATOM      4  N   UNL     1       3.694   3.161  20.075  0.00  0.00    +0.000 NA
ATOM      5  C   UNL     1       4.433   3.984  19.327  0.00  0.00    +0.000 A 
ATOM      6  C   UNL     1       4.112   5.282  18.997  0.00  0.00    +0.000 A 
ENDROOT
BRANCH   1  11
ATOM      7  C   UNL     1       0.376  10.924  18.648  0.00  0.00    +0.000 C 
ATOM      8  C   UNL     1       1.092   9.627  18.879  0.00  0.00    +0.000 A 
ATOM      9  C   UNL     1       1.706   8.954  17.825  0.00  0.00    +0.000 A 
ATOM     10  C   UNL     1       2.344   7.726  18.038  0.00  0.00    +0.000 A 
ATOM     11  C   UNL     1       2.347   7.102  19.298  0.00  0.00    +0.000 A 
ATOM     12  C   UNL     1       1.768   7.825  20.360  0.00  0.00    +0.000 A 
ATOM     13  C   UNL     1       1.154   9.068  20.157  0.00  0.00    +0.000 A 
ENDBRANCH   1  11
BRANCH   3  14
ATOM     14  S   UNL     1       1.497   2.635  21.481  0.00  0.00    +0.000 S 
ATOM     15  H   UNL     1       0.803   3.650  22.006  0.00  0.00    +0.000 HD
ENDBRANCH   3  14
BRANCH   5  16
ATOM     16  O   UNL     1       5.583   3.406  18.888  0.00  0.00    +0.000 OA
ATOM     17  H   UNL     1       5.243   2.746  18.256  0.00  0.00    +0.000 HD
ENDBRANCH   5  16
BRANCH   6  18
ATOM     18  C   UNL     1       4.970   6.031  18.140  0.00  0.00    +0.000 C 
ATOM     19  N   UNL     1       5.684   6.617  17.435  0.00  0.00    +0.000 NA
ENDBRANCH   6  18
TORSDOF 4
ENDMDL
MODEL 2
REMARK VINA RESULT:      -6.6      2.330      3.104
REMARK  Name = 
REMARK  5 active torsions:
REMARK  status: ('A' for Active; 'I' for Inactive)
REMARK    1  A    between atoms: C_1  and  C_2
REMARK    2  A    between atoms: C_5  and  C_6
REMARK    3  A    between atoms: C_8  and  S_9
REMARK    4  A    between atoms: C_11  and  O_12
REMARK    5  A    between atoms: C_13  and  C_14
REMARK                            x       y       z     vdW  Elec       q    Type
REMARK                         _______ _______ _______ _____ _____    ______ ____
ROOT
ATOM      1  C   UNL     1       3.837   5.921  18.557  0.00  0.00    +0.000 A 
ATOM      2  N   UNL     1       5.121   6.217  18.907  0.00  0.00    +0.000 NA
ATOM      3  C   UNL     1       6.043   5.245  18.803  0.00  0.00    +0.000 A 
ATOM      4  N   UNL     1       5.803   4.002  18.375  0.00  0.00    +0.000 NA
ATOM      5  C   UNL     1       4.532   3.752  18.053  0.00  0.00    +0.000 A 
ATOM      6  C   UNL     1       3.489   4.648  18.126  0.00  0.00    +0.000 A 
ENDROOT
BRANCH   1  11
ATOM      7  C   UNL     1       0.381  10.567  19.281  0.00  0.00    +0.000 C 
ATOM      8  C   UNL     1       1.210   9.334  19.079  0.00  0.00    +0.000 A 
ATOM      9  C   UNL     1       1.371   8.406  20.107  0.00  0.00    +0.000 A 
ATOM     10  C   UNL     1       2.174   7.274  19.926  0.00  0.00    +0.000 A 
ATOM     11  C   UNL     1       2.886   7.053  18.733  0.00  0.00    +0.000 A 
ATOM     12  C   UNL     1       2.665   7.974  17.690  0.00  0.00    +0.000 A 
ATOM     13  C   UNL     1       1.840   9.094  17.856  0.00  0.00    +0.000 A 
ENDBRANCH   1  11
BRANCH   3  14
ATOM     14  S   UNL     1       7.694   5.637  19.288  0.00  0.00    +0.000 S 
ATOM     15  H   UNL     1       7.435   6.934  19.477  0.00  0.00    +0.000 HD
ENDBRANCH   3  14
BRANCH   5  16
ATOM     16  O   UNL     1       4.338   2.473  17.634  0.00  0.00    +0.000 OA
ATOM     17  H   UNL     1       3.415   2.507  17.319  0.00  0.00    +0.000 HD
ENDBRANCH   5  16
BRANCH   6  18
ATOM     18  C   UNL     1       2.166   4.227  17.804  0.00  0.00    +0.000 C 
ATOM     19  N   UNL     1       1.093   3.858  17.554  0.00  0.00    +0.000 NA
ENDBRANCH   6  18
TORSDOF 4
ENDMDL
MODEL 3
REMARK VINA RESULT:      -6.5      2.076      3.151
REMARK  Name = 
REMARK  5 active torsions:
REMARK  status: ('A' for Active; 'I' for Inactive)
REMARK    1  A    between atoms: C_1  and  C_2
REMARK    2  A    between atoms: C_5  and  C_6
REMARK    3  A    between atoms: C_8  and  S_9
REMARK    4  A    between atoms: C_11  and  O_12
REMARK    5  A    between atoms: C_13  and  C_14
REMARK                            x       y       z     vdW  Elec       q    Type
REMARK                         _______ _______ _______ _____ _____    ______ ____
ROOT
ATOM      1  C   UNL     1       3.572   5.798  19.141  0.00  0.00    +0.000 A 
ATOM      2  N   UNL     1       4.875   6.057  18.835  0.00  0.00    +0.000 NA
ATOM      3  C   UNL     1       5.748   5.037  18.877  0.00  0.00    +0.000 A 
ATOM      4  N   UNL     1       5.440   3.776  19.191  0.00  0.00    +0.000 NA
ATOM      5  C   UNL     1       4.157   3.567  19.495  0.00  0.00    +0.000 A 
ATOM      6  C   UNL     1       3.164   4.521  19.505  0.00  0.00    +0.000 A 
ENDROOT
BRANCH   1  11
ATOM      7  C   UNL     1       0.394  10.687  18.947  0.00  0.00    +0.000 C 
ATOM      8  C   UNL     1       1.149   9.393  18.988  0.00  0.00    +0.000 A 
ATOM      9  C   UNL     1       1.262   8.671  20.175  0.00  0.00    +0.000 A 
ATOM     10  C   UNL     1       1.998   7.480  20.218  0.00  0.00    +0.000 A 
ATOM     11  C   UNL     1       2.689   6.995  19.093  0.00  0.00    +0.000 A 
ATOM     12  C   UNL     1       2.516   7.711  17.892  0.00  0.00    +0.000 A 
ATOM     13  C   UNL     1       1.757   8.888  17.837  0.00  0.00    +0.000 A 
ENDBRANCH   1  11
BRANCH   3  14
ATOM     14  S   UNL     1       7.436   5.398  18.507  0.00  0.00    +0.000 S 
ATOM     15  H   UNL     1       7.165   5.907  17.301  0.00  0.00    +0.000 HD
ENDBRANCH   3  14
BRANCH   5  16
ATOM     16  O   UNL     1       3.897   2.272  19.818  0.00  0.00    +0.000 OA
ATOM     17  H   UNL     1       3.526   2.363  20.715  0.00  0.00    +0.000 HD
ENDBRANCH   5  16
BRANCH   6  18
ATOM     18  C   UNL     1       1.843   4.168  19.906  0.00  0.00    +0.000 C 
ATOM     19  N   UNL     1       0.775   3.877  20.261  0.00  0.00    +0.000 NA
ENDBRANCH   6  18
TORSDOF 4
ENDMDL
MODEL 4
REMARK VINA RESULT:      -6.4      2.341      2.896
REMARK  Name = 
REMARK  5 active torsions:
REMARK  status: ('A' for Active; 'I' for Inactive)
REMARK    1  A    between atoms: C_1  and  C_2
REMARK    2  A    between atoms: C_5  and  C_6
REMARK    3  A    between atoms: C_8  and  S_9
REMARK    4  A    between atoms: C_11  and  O_12
REMARK    5  A    between atoms: C_13  and  C_14
REMARK                            x       y       z     vdW  Elec       q    Type
REMARK                         _______ _______ _______ _____ _____    ______ ____
ROOT
ATOM      1  C   UNL     1       3.881   5.968  18.518  0.00  0.00    +0.000 A 
ATOM      2  N   UNL     1       5.168   6.230  18.882  0.00  0.00    +0.000 NA
ATOM      3  C   UNL     1       6.065   5.233  18.793  0.00  0.00    +0.000 A 
ATOM      4  N   UNL     1       5.797   3.996  18.365  0.00  0.00    +0.000 NA
ATOM      5  C   UNL     1       4.524   3.779  18.028  0.00  0.00    +0.000 A 
ATOM      6  C   UNL     1       3.504   4.703  18.085  0.00  0.00    +0.000 A 
ENDROOT
BRANCH   1  11
ATOM      7  C   UNL     1       0.003  10.286  19.115  0.00  0.00    +0.000 C 
ATOM      8  C   UNL     1       1.052   9.224  18.979  0.00  0.00    +0.000 A 
ATOM      9  C   UNL     1       1.768   9.077  17.792  0.00  0.00    +0.000 A 
ATOM     10  C   UNL     1       2.722   8.061  17.656  0.00  0.00    +0.000 A 
ATOM     11  C   UNL     1       2.959   7.126  18.679  0.00  0.00    +0.000 A 
ATOM     12  C   UNL     1       2.264   7.326  19.888  0.00  0.00    +0.000 A 
ATOM     13  C   UNL     1       1.328   8.359  20.039  0.00  0.00    +0.000 A 
ENDBRANCH   1  11
BRANCH   3  14
ATOM     14  S   UNL     1       7.720   5.582  19.298  0.00  0.00    +0.000 S 
ATOM     15  H   UNL     1       7.680   6.855  18.892  0.00  0.00    +0.000 HD
ENDBRANCH   3  14
BRANCH   5  16
ATOM     16  O   UNL     1       4.300   2.504  17.610  0.00  0.00    +0.000 OA
ATOM     17  H   UNL     1       3.326   2.479  17.567  0.00  0.00    +0.000 HD
ENDBRANCH   5  16
BRANCH   6  18
ATOM     18  C   UNL     1       2.175   4.317  17.748  0.00  0.00    +0.000 C 
ATOM     19  N   UNL     1       1.084   3.999  17.502  0.00  0.00    +0.000 NA
ENDBRANCH   6  18
TORSDOF 4
ENDMDL
MODEL 5
REMARK VINA RESULT:      -6.4      0.157      1.173
REMARK  Name = 
REMARK  5 active torsions:
REMARK  status: ('A' for Active; 'I' for Inactive)
REMARK    1  A    between atoms: C_1  and  C_2
REMARK    2  A    between atoms: C_5  and  C_6
REMARK    3  A    between atoms: C_8  and  S_9
REMARK    4  A    between atoms: C_11  and  O_12
REMARK    5  A    between atoms: C_13  and  C_14
REMARK                            x       y       z     vdW  Elec       q    Type
REMARK                         _______ _______ _______ _____ _____    ______ ____
ROOT
ATOM      1  C   UNL     1       2.908   5.717  19.566  0.00  0.00    +0.000 A 
ATOM      2  N   UNL     1       2.171   4.881  20.350  0.00  0.00    +0.000 NA
ATOM      3  C   UNL     1       2.642   3.642  20.569  0.00  0.00    +0.000 A 
ATOM      4  N   UNL     1       3.789   3.160  20.082  0.00  0.00    +0.000 NA
ATOM      5  C   UNL     1       4.475   4.007  19.311  0.00  0.00    +0.000 A 
ATOM      6  C   UNL     1       4.101   5.294  18.995  0.00  0.00    +0.000 A 
ENDROOT
BRANCH   1  11
ATOM      7  C   UNL     1       0.802  11.095  18.738  0.00  0.00    +0.000 C 
ATOM      8  C   UNL     1       1.275   9.688  18.945  0.00  0.00    +0.000 A 
ATOM      9  C   UNL     1       1.238   9.102  20.209  0.00  0.00    +0.000 A 
ATOM     10  C   UNL     1       1.713   7.799  20.406  0.00  0.00    +0.000 A 
ATOM     11  C   UNL     1       2.290   7.056  19.360  0.00  0.00    +0.000 A 
ATOM     12  C   UNL     1       2.267   7.646  18.081  0.00  0.00    +0.000 A 
ATOM     13  C   UNL     1       1.766   8.939  17.874  0.00  0.00    +0.000 A 
ENDBRANCH   1  11
BRANCH   3  14
ATOM     14  S   UNL     1       1.660   2.562  21.562  0.00  0.00    +0.000 S 
ATOM     15  H   UNL     1       1.523   1.643  20.601  0.00  0.00    +0.000 HD
ENDBRANCH   3  14
BRANCH   5  16
ATOM     16  O   UNL     1       5.627   3.467  18.832  0.00  0.00    +0.000 OA
ATOM     17  H   UNL     1       5.735   3.948  17.990  0.00  0.00    +0.000 HD
ENDBRANCH   5  16
BRANCH   6  18
ATOM     18  C   UNL     1       4.904   6.071  18.110  0.00  0.00    +0.000 C 
ATOM     19  N   UNL     1       5.568   6.680  17.375  0.00  0.00    +0.000 NA
ENDBRANCH   6  18
TORSDOF 4
ENDMDL
MODEL 6
REMARK VINA RESULT:      -6.4      2.085      2.947
REMARK  Name = 
REMARK  5 active torsions:
REMARK  status: ('A' for Active; 'I' for Inactive)
REMARK    1  A    between atoms: C_1  and  C_2
REMARK    2  A    between atoms: C_5  and  C_6
REMARK    3  A    between atoms: C_8  and  S_9
REMARK    4  A    between atoms: C_11  and  O_12
REMARK    5  A    between atoms: C_13  and  C_14
REMARK                            x       y       z     vdW  Elec       q    Type
REMARK                         _______ _______ _______ _____ _____    ______ ____
ROOT
ATOM      1  C   UNL     1       3.614   5.747  19.004  0.00  0.00    +0.000 A 
ATOM      2  N   UNL     1       4.909   5.913  18.613  0.00  0.00    +0.000 NA
ATOM      3  C   UNL     1       5.720   4.843  18.643  0.00  0.00    +0.000 A 
ATOM      4  N   UNL     1       5.356   3.614  19.021  0.00  0.00    +0.000 NA
ATOM      5  C   UNL     1       4.083   3.496  19.406  0.00  0.00    +0.000 A 
ATOM      6  C   UNL     1       3.152   4.511  19.438  0.00  0.00    +0.000 A 
ENDROOT
BRANCH   1  11
ATOM      7  C   UNL     1       0.155  10.443  18.847  0.00  0.00    +0.000 C 
ATOM      8  C   UNL     1       1.101   9.280  18.896  0.00  0.00    +0.000 A 
ATOM      9  C   UNL     1       1.785   8.869  17.754  0.00  0.00    +0.000 A 
ATOM     10  C   UNL     1       2.641   7.762  17.796  0.00  0.00    +0.000 A 
ATOM     11  C   UNL     1       2.804   6.995  18.964  0.00  0.00    +0.000 A 
ATOM     12  C   UNL     1       2.146   7.461  20.119  0.00  0.00    +0.000 A 
ATOM     13  C   UNL     1       1.311   8.586  20.089  0.00  0.00    +0.000 A 
ENDBRANCH   1  11
BRANCH   3  14
ATOM     14  S   UNL     1       7.402   5.084  18.162  0.00  0.00    +0.000 S 
ATOM     15  H   UNL     1       7.644   3.779  17.999  0.00  0.00    +0.000 HD
ENDBRANCH   3  14
BRANCH   5  16
ATOM     16  O   UNL     1       3.765   2.232  19.791  0.00  0.00    +0.000 OA
ATOM     17  H   UNL     1       2.792   2.280  19.841  0.00  0.00    +0.000 HD
ENDBRANCH   5  16
BRANCH   6  18
ATOM     18  C   UNL     1       1.839   4.255  19.928  0.00  0.00    +0.000 C 
ATOM     19  N   UNL     1       0.779   4.033  20.351  0.00  0.00    +0.000 NA
ENDBRANCH   6  18
TORSDOF 4
ENDMDL
MODEL 7
REMARK VINA RESULT:      -6.4      1.445      1.455
REMARK  Name = 
REMARK  5 active torsions:
REMARK  status: ('A' for Active; 'I' for Inactive)
REMARK    1  A    between atoms: C_1  and  C_2
REMARK    2  A    between atoms: C_5  and  C_6
REMARK    3  A    between atoms: C_8  and  S_9
REMARK    4  A    between atoms: C_11  and  O_12
REMARK    5  A    between atoms: C_13  and  C_14
REMARK                            x       y       z     vdW  Elec       q    Type
REMARK                         _______ _______ _______ _____ _____    ______ ____
ROOT
ATOM      1  C   UNL     1       3.152   5.733  18.286  0.00  0.00    +0.000 A 
ATOM      2  N   UNL     1       2.313   4.703  18.590  0.00  0.00    +0.000 NA
ATOM      3  C   UNL     1       2.734   3.452  18.341  0.00  0.00    +0.000 A 
ATOM      4  N   UNL     1       3.922   3.131  17.821  0.00  0.00    +0.000 NA
ATOM      5  C   UNL     1       4.709   4.169  17.529  0.00  0.00    +0.000 A 
ATOM      6  C   UNL     1       4.397   5.497  17.718  0.00  0.00    +0.000 A 
ENDROOT
BRANCH   1  11
ATOM      7  C   UNL     1       0.616  10.869  19.399  0.00  0.00    +0.000 C 
ATOM      8  C   UNL     1       1.332   9.581  19.124  0.00  0.00    +0.000 A 
ATOM      9  C   UNL     1       1.852   9.309  17.860  0.00  0.00    +0.000 A 
ATOM     10  C   UNL     1       2.489   8.091  17.598  0.00  0.00    +0.000 A 
ATOM     11  C   UNL     1       2.585   7.080  18.572  0.00  0.00    +0.000 A 
ATOM     12  C   UNL     1       2.102   7.397  19.857  0.00  0.00    +0.000 A 
ATOM     13  C   UNL     1       1.488   8.627  20.132  0.00  0.00    +0.000 A 
ENDBRANCH   1  11
BRANCH   3  14
ATOM     14  S   UNL     1       1.622   2.132  18.712  0.00  0.00    +0.000 S 
ATOM     15  H   UNL     1       1.981   1.401  17.651  0.00  0.00    +0.000 HD
ENDBRANCH   3  14
BRANCH   5  16
ATOM     16  O   UNL     1       5.900   3.792  16.994  0.00  0.00    +0.000 OA
ATOM     17  H   UNL     1       5.962   4.379  16.217  0.00  0.00    +0.000 HD
ENDBRANCH   5  16
BRANCH   6  18
ATOM     18  C   UNL     1       5.312   6.508  17.306  0.00  0.00    +0.000 C 
ATOM     19  N   UNL     1       6.078   7.312  16.961  0.00  0.00    +0.000 NA
ENDBRANCH   6  18
TORSDOF 4
ENDMDL
MODEL 8
REMARK VINA RESULT:      -6.3      2.499      3.333
REMARK  Name = 
REMARK  5 active torsions:
REMARK  status: ('A' for Active; 'I' for Inactive)
REMARK    1  A    between atoms: C_1  and  C_2
REMARK    2  A    between atoms: C_5  and  C_6
REMARK    3  A    between atoms: C_8  and  S_9
REMARK    4  A    between atoms: C_11  and  O_12
REMARK    5  A    between atoms: C_13  and  C_14
REMARK                            x       y       z     vdW  Elec       q    Type
REMARK                         _______ _______ _______ _____ _____    ______ ____
ROOT
ATOM      1  C   UNL     1       3.221   5.712  18.053  0.00  0.00    +0.000 A 
ATOM      2  N   UNL     1       4.334   5.974  17.311  0.00  0.00    +0.000 NA
ATOM      3  C   UNL     1       5.001   4.934  16.784  0.00  0.00    +0.000 A 
ATOM      4  N   UNL     1       4.656   3.651  16.923  0.00  0.00    +0.000 NA
ATOM      5  C   UNL     1       3.567   3.437  17.665  0.00  0.00    +0.000 A 
ATOM      6  C   UNL     1       2.801   4.406  18.274  0.00  0.00    +0.000 A 
ENDROOT
BRANCH   1  11
ATOM      7  C   UNL     1       0.370  10.290  20.278  0.00  0.00    +0.000 C 
ATOM      8  C   UNL     1       1.165   9.151  19.713  0.00  0.00    +0.000 A 
ATOM      9  C   UNL     1       1.503   9.119  18.362  0.00  0.00    +0.000 A 
ATOM     10  C   UNL     1       2.215   8.037  17.830  0.00  0.00    +0.000 A 
ATOM     11  C   UNL     1       2.569   6.925  18.617  0.00  0.00    +0.000 A 
ATOM     12  C   UNL     1       2.265   7.005  19.990  0.00  0.00    +0.000 A 
ATOM     13  C   UNL     1       1.578   8.099  20.532  0.00  0.00    +0.000 A 
ENDBRANCH   1  11
BRANCH   3  14
ATOM     14  S   UNL     1       6.457   5.291  15.852  0.00  0.00    +0.000 S 
ATOM     15  H   UNL     1       6.563   4.053  15.359  0.00  0.00    +0.000 HD
ENDBRANCH   3  14
BRANCH   5  16
ATOM     16  O   UNL     1       3.263   2.117  17.786  0.00  0.00    +0.000 OA
ATOM     17  H   UNL     1       3.920   1.823  18.444  0.00  0.00    +0.000 HD
ENDBRANCH   5  16
BRANCH   6  18
ATOM     18  C   UNL     1       1.693   4.031  19.087  0.00  0.00    +0.000 C 
ATOM     19  N   UNL     1       0.808   3.708  19.768  0.00  0.00    +0.000 NA
ENDBRANCH   6  18
TORSDOF 4
ENDMDL
MODEL 9
REMARK VINA RESULT:      -6.3      4.594      5.855
REMARK  Name = 
REMARK  5 active torsions:
REMARK  status: ('A' for Active; 'I' for Inactive)
REMARK    1  A    between atoms: C_1  and  C_2
REMARK    2  A    between atoms: C_5  and  C_6
REMARK    3  A    between atoms: C_8  and  S_9
REMARK    4  A    between atoms: C_11  and  O_12
REMARK    5  A    between atoms: C_13  and  C_14
REMARK                            x       y       z     vdW  Elec       q    Type
REMARK                         _______ _______ _______ _____ _____    ______ ____
ROOT
ATOM      1  C   UNL     1       5.071   4.180  16.483  0.00  0.00    +0.000 A 
ATOM      2  N   UNL     1       5.182   3.824  15.172  0.00  0.00    +0.000 NA
ATOM      3  C   UNL     1       6.212   4.322  14.468  0.00  0.00    +0.000 A 
ATOM      4  N   UNL     1       7.149   5.140  14.954  0.00  0.00    +0.000 NA
ATOM      5  C   UNL     1       6.998   5.473  16.238  0.00  0.00    +0.000 A 
ATOM      6  C   UNL     1       5.985   5.047  17.068  0.00  0.00    +0.000 A 
ENDROOT
BRANCH   1  11
ATOM      7  C   UNL     1       0.488   2.112  19.443  0.00  0.00    +0.000 C 
ATOM      8  C   UNL     1       1.643   2.606  18.625  0.00  0.00    +0.000 A 
ATOM      9  C   UNL     1       2.795   1.836  18.478  0.00  0.00    +0.000 A 
ATOM     10  C   UNL     1       3.885   2.316  17.742  0.00  0.00    +0.000 A 
ATOM     11  C   UNL     1       3.884   3.600  17.170  0.00  0.00    +0.000 A 
ATOM     12  C   UNL     1       2.690   4.339  17.283  0.00  0.00    +0.000 A 
ATOM     13  C   UNL     1       1.586   3.851  17.995  0.00  0.00    +0.000 A 
ENDBRANCH   1  11
BRANCH   3  14
ATOM     14  S   UNL     1       6.322   3.875  12.763  0.00  0.00    +0.000 S 
ATOM     15  H   UNL     1       6.891   5.028  12.397  0.00  0.00    +0.000 HD
ENDBRANCH   3  14
BRANCH   5  16
ATOM     16  O   UNL     1       7.970   6.314  16.681  0.00  0.00    +0.000 OA
ATOM     17  H   UNL     1       8.622   6.261  15.958  0.00  0.00    +0.000 HD
ENDBRANCH   5  16
BRANCH   6  18
ATOM     18  C   UNL     1       5.914   5.528  18.407  0.00  0.00    +0.000 C 
ATOM     19  N   UNL     1       5.846   5.894  19.508  0.00  0.00    +0.000 NA
ENDBRANCH   6  18
TORSDOF 4
ENDMDL
