MODEL 1
REMARK VINA RESULT:      -7.6      0.000      0.000
REMARK  Name = 
REMARK  10 active torsions:
REMARK  status: ('A' for Active; 'I' for Inactive)
REMARK    1  A    between atoms: C_1  and  C_2
REMARK    2  A    between atoms: C_2  and  C_3
REMARK    3  A    between atoms: C_2  and  C_4
REMARK    4  A    between atoms: C_2  and  N_5
REMARK    5  A    between atoms: C_6  and  C_8
REMARK    6  A    between atoms: C_8  and  S_9
REMARK    7  A    between atoms: S_9  and  C_10
REMARK    8  A    between atoms: C_14  and  N_15
REMARK    9  A    between atoms: C_16  and  C_18
REMARK   10  A    between atoms: C_25  and  O_26
REMARK                            x       y       z     vdW  Elec       q    Type
REMARK                         _______ _______ _______ _____ _____    ______ ____
ROOT
ATOM      1  C   UNL     1       2.970   7.282  18.175  0.00  0.00    +0.000 A 
ATOM      2  N   UNL     1       2.526   7.054  19.424  0.00  0.00    +0.000 NA
ATOM      3  C   UNL     1       1.838   8.050  19.998  0.00  0.00    +0.000 A 
ATOM      4  N   UNL     1       1.374   7.830  21.310  0.00  0.00    +0.000 N 
ATOM      5  C   UNL     1       1.552   9.258  19.367  0.00  0.00    +0.000 A 
ATOM      6  C   UNL     1       2.039   9.366  18.082  0.00  0.00    +0.000 A 
ATOM      7  N   UNL     1       2.743   8.401  17.470  0.00  0.00    +0.000 NA
ATOM      8  H   UNL     1       1.632   6.878  21.563  0.00  0.00    +0.000 HD
ATOM      9  H   UNL     1       0.368   7.965  21.370  0.00  0.00    +0.000 HD
ENDROOT
BRANCH   5  10
ATOM     10  N   UNL     1       0.862  10.244  20.118  0.00  0.00    +0.000 N 
ATOM     11  C   UNL     1      -0.468  10.559  19.981  0.00  0.00    +0.000 C 
ATOM     12  O   UNL     1      -1.179  10.097  19.092  0.00  0.00    +0.000 OA
ATOM     13  H   UNL     1       1.326  10.495  20.990  0.00  0.00    +0.000 HD
BRANCH  11  14
ATOM     14  C   UNL     1      -1.042  11.504  20.980  0.00  0.00    +0.000 A 
ATOM     15  C   UNL     1      -1.439  12.778  20.552  0.00  0.00    +0.000 A 
ATOM     16  C   UNL     1      -1.898  13.722  21.475  0.00  0.00    +0.000 A 
ATOM     17  C   UNL     1      -1.983  13.395  22.831  0.00  0.00    +0.000 A 
ATOM     18  C   UNL     1      -1.628  12.118  23.259  0.00  0.00    +0.000 A 
ATOM     19  C   UNL     1      -1.166  11.183  22.333  0.00  0.00    +0.000 A 
ATOM     20  F   UNL     1      -0.845   9.960  22.781  0.00  0.00    +0.000 F 
ENDBRANCH  11  14
ENDBRANCH   5  10
BRANCH   6  21
ATOM     21  O   UNL     1       1.981  10.531  17.368  0.00  0.00    +0.000 OA
ATOM     22  H   UNL     1       2.739  11.074  17.651  0.00  0.00    +0.000 HD
ENDBRANCH   6  21
BRANCH   1  23
ATOM     23  S   UNL     1       4.049   6.082  17.439  0.00  0.00    +0.000 S 
BRANCH  23  24
ATOM     24  C   UNL     1       4.916   5.507  18.926  0.00  0.00    +0.000 C 
BRANCH  24  26
ATOM     25  N   UNL     1       2.982   4.200  19.687  0.00  0.00    +0.000 N 
ATOM     26  C   UNL     1       4.338   4.184  19.398  0.00  0.00    +0.000 C 
ATOM     27  O   UNL     1       5.051   3.191  19.548  0.00  0.00    +0.000 OA
ATOM     28  H   UNL     1       2.467   5.015  19.369  0.00  0.00    +0.000 HD
BRANCH  25  30
ATOM     29  C   UNL     1       2.603   2.580  21.531  0.00  0.00    +0.000 C 
ATOM     30  C   UNL     1       2.200   3.026  20.116  0.00  0.00    +0.000 C 
ATOM     31  C   UNL     1       2.365   1.858  19.128  0.00  0.00    +0.000 C 
ATOM     32  C   UNL     1       0.709   3.413  20.150  0.00  0.00    +0.000 C 
ENDBRANCH  25  30
ENDBRANCH  24  26
ENDBRANCH  23  24
ENDBRANCH   1  23
TORSDOF 7
ENDMDL
MODEL 2
REMARK VINA RESULT:      -7.6      0.925      1.306
REMARK  Name = 
REMARK  10 active torsions:
REMARK  status: ('A' for Active; 'I' for Inactive)
REMARK    1  A    between atoms: C_1  and  C_2
REMARK    2  A    between atoms: C_2  and  C_3
REMARK    3  A    between atoms: C_2  and  C_4
REMARK    4  A    between atoms: C_2  and  N_5
REMARK    5  A    between atoms: C_6  and  C_8
REMARK    6  A    between atoms: C_8  and  S_9
REMARK    7  A    between atoms: S_9  and  C_10
REMARK    8  A    between atoms: C_14  and  N_15
REMARK    9  A    between atoms: C_16  and  C_18
REMARK   10  A    between atoms: C_25  and  O_26
REMARK                            x       y       z     vdW  Elec       q    Type
REMARK                         _______ _______ _______ _____ _____    ______ ____
ROOT
ATOM      1  C   UNL     1       2.977   7.239  18.157  0.00  0.00    +0.000 A 
ATOM      2  N   UNL     1       2.534   7.013  19.407  0.00  0.00    +0.000 NA
ATOM      3  C   UNL     1       1.842   8.008  19.978  0.00  0.00    +0.000 A 
ATOM      4  N   UNL     1       1.380   7.791  21.291  0.00  0.00    +0.000 N 
ATOM      5  C   UNL     1       1.551   9.212  19.343  0.00  0.00    +0.000 A 
ATOM      6  C   UNL     1       2.036   9.318  18.056  0.00  0.00    +0.000 A 
ATOM      7  N   UNL     1       2.744   8.354  17.448  0.00  0.00    +0.000 NA
ATOM      8  H   UNL     1       1.642   6.841  21.547  0.00  0.00    +0.000 HD
ATOM      9  H   UNL     1       0.373   7.921  21.351  0.00  0.00    +0.000 HD
ENDROOT
BRANCH   5  10
ATOM     10  N   UNL     1       0.857  10.198  20.090  0.00  0.00    +0.000 N 
ATOM     11  C   UNL     1      -0.469  10.524  19.936  0.00  0.00    +0.000 C 
ATOM     12  O   UNL     1      -1.170  10.073  19.034  0.00  0.00    +0.000 OA
ATOM     13  H   UNL     1       1.310  10.439  20.971  0.00  0.00    +0.000 HD
BRANCH  11  14
ATOM     14  C   UNL     1      -1.051  11.465  20.933  0.00  0.00    +0.000 A 
ATOM     15  C   UNL     1      -1.030  11.109  22.289  0.00  0.00    +0.000 A 
ATOM     16  C   UNL     1      -1.646  11.925  23.243  0.00  0.00    +0.000 A 
ATOM     17  C   UNL     1      -2.270  13.112  22.854  0.00  0.00    +0.000 A 
ATOM     18  C   UNL     1      -2.262  13.493  21.514  0.00  0.00    +0.000 A 
ATOM     19  C   UNL     1      -1.650  12.672  20.567  0.00  0.00    +0.000 A 
ATOM     20  F   UNL     1      -1.651  13.078  19.288  0.00  0.00    +0.000 F 
ENDBRANCH  11  14
ENDBRANCH   5  10
BRANCH   6  21
ATOM     21  O   UNL     1       1.972  10.480  17.338  0.00  0.00    +0.000 OA
ATOM     22  H   UNL     1       2.215  10.259  16.420  0.00  0.00    +0.000 HD
ENDBRANCH   6  21
BRANCH   1  23
ATOM     23  S   UNL     1       4.060   6.041  17.424  0.00  0.00    +0.000 S 
BRANCH  23  24
ATOM     24  C   UNL     1       4.932   5.476  18.912  0.00  0.00    +0.000 C 
BRANCH  24  26
ATOM     25  N   UNL     1       3.001   4.160  19.666  0.00  0.00    +0.000 N 
ATOM     26  C   UNL     1       4.359   4.153  19.390  0.00  0.00    +0.000 C 
ATOM     27  O   UNL     1       5.079   3.167  19.557  0.00  0.00    +0.000 OA
ATOM     28  H   UNL     1       2.483   4.968  19.336  0.00  0.00    +0.000 HD
BRANCH  25  30
ATOM     29  C   UNL     1       2.643   2.531  21.506  0.00  0.00    +0.000 C 
ATOM     30  C   UNL     1       2.224   2.984  20.099  0.00  0.00    +0.000 C 
ATOM     31  C   UNL     1       2.378   1.821  19.103  0.00  0.00    +0.000 C 
ATOM     32  C   UNL     1       0.733   3.371  20.151  0.00  0.00    +0.000 C 
ENDBRANCH  25  30
ENDBRANCH  24  26
ENDBRANCH  23  24
ENDBRANCH   1  23
TORSDOF 7
ENDMDL
MODEL 3
REMARK VINA RESULT:      -7.4      1.455      2.039
REMARK  Name = 
REMARK  10 active torsions:
REMARK  status: ('A' for Active; 'I' for Inactive)
REMARK    1  A    between atoms: C_1  and  C_2
REMARK    2  A    between atoms: C_2  and  C_3
REMARK    3  A    between atoms: C_2  and  C_4
REMARK    4  A    between atoms: C_2  and  N_5
REMARK    5  A    between atoms: C_6  and  C_8
REMARK    6  A    between atoms: C_8  and  S_9
REMARK    7  A    between atoms: S_9  and  C_10
REMARK    8  A    between atoms: C_14  and  N_15
REMARK    9  A    between atoms: C_16  and  C_18
REMARK   10  A    between atoms: C_25  and  O_26
REMARK                            x       y       z     vdW  Elec       q    Type
REMARK                         _______ _______ _______ _____ _____    ______ ____
ROOT
ATOM      1  C   UNL     1       2.920   7.523  18.230  0.00  0.00    +0.000 A 
ATOM      2  N   UNL     1       2.289   8.543  17.620  0.00  0.00    +0.000 NA
ATOM      3  C   UNL     1       1.390   9.209  18.359  0.00  0.00    +0.000 A 
ATOM      4  N   UNL     1       0.714  10.273  17.732  0.00  0.00    +0.000 N 
ATOM      5  C   UNL     1       1.112   8.914  19.691  0.00  0.00    +0.000 A 
ATOM      6  C   UNL     1       1.838   7.864  20.213  0.00  0.00    +0.000 A 
ATOM      7  N   UNL     1       2.739   7.161  19.509  0.00  0.00    +0.000 NA
ATOM      8  H   UNL     1       1.099  10.362  16.793  0.00  0.00    +0.000 HD
ATOM      9  H   UNL     1       0.827  11.138  18.256  0.00  0.00    +0.000 HD
ENDROOT
BRANCH   5  10
ATOM     10  N   UNL     1       0.095   9.666  20.332  0.00  0.00    +0.000 N 
ATOM     11  C   UNL     1       0.301  10.786  21.100  0.00  0.00    +0.000 C 
ATOM     12  O   UNL     1       1.419  11.186  21.418  0.00  0.00    +0.000 OA
ATOM     13  H   UNL     1      -0.833   9.521  19.937  0.00  0.00    +0.000 HD
BRANCH  11  14
ATOM     14  C   UNL     1      -0.911  11.531  21.544  0.00  0.00    +0.000 A 
ATOM     15  C   UNL     1      -1.457  12.500  20.691  0.00  0.00    +0.000 A 
ATOM     16  C   UNL     1      -2.539  13.280  21.110  0.00  0.00    +0.000 A 
ATOM     17  C   UNL     1      -3.097  13.085  22.376  0.00  0.00    +0.000 A 
ATOM     18  C   UNL     1      -2.584  12.099  23.214  0.00  0.00    +0.000 A 
ATOM     19  C   UNL     1      -1.502  11.327  22.792  0.00  0.00    +0.000 A 
ATOM     20  F   UNL     1      -1.044  10.378  23.622  0.00  0.00    +0.000 F 
ENDBRANCH  11  14
ENDBRANCH   5  10
BRANCH   6  21
ATOM     21  O   UNL     1       1.593   7.344  21.453  0.00  0.00    +0.000 OA
ATOM     22  H   UNL     1       1.989   7.957  22.100  0.00  0.00    +0.000 HD
ENDBRANCH   6  21
BRANCH   1  23
ATOM     23  S   UNL     1       3.974   6.487  17.250  0.00  0.00    +0.000 S 
BRANCH  23  24
ATOM     24  C   UNL     1       5.043   5.825  18.558  0.00  0.00    +0.000 C 
BRANCH  24  26
ATOM     25  N   UNL     1       3.255   4.155  18.778  0.00  0.00    +0.000 N 
ATOM     26  C   UNL     1       4.607   4.420  18.937  0.00  0.00    +0.000 C 
ATOM     27  O   UNL     1       5.407   3.602  19.394  0.00  0.00    +0.000 OA
ATOM     28  H   UNL     1       2.728   4.837  18.242  0.00  0.00    +0.000 HD
BRANCH  25  30
ATOM     29  C   UNL     1       3.390   1.711  18.360  0.00  0.00    +0.000 C 
ATOM     30  C   UNL     1       2.617   2.852  19.038  0.00  0.00    +0.000 C 
ATOM     31  C   UNL     1       1.151   2.849  18.569  0.00  0.00    +0.000 C 
ATOM     32  C   UNL     1       2.629   2.594  20.558  0.00  0.00    +0.000 C 
ENDBRANCH  25  30
ENDBRANCH  24  26
ENDBRANCH  23  24
ENDBRANCH   1  23
TORSDOF 7
ENDMDL
MODEL 4
REMARK VINA RESULT:      -7.4      1.678      2.373
REMARK  Name = 
REMARK  10 active torsions:
REMARK  status: ('A' for Active; 'I' for Inactive)
REMARK    1  A    between atoms: C_1  and  C_2
REMARK    2  A    between atoms: C_2  and  C_3
REMARK    3  A    between atoms: C_2  and  C_4
REMARK    4  A    between atoms: C_2  and  N_5
REMARK    5  A    between atoms: C_6  and  C_8
REMARK    6  A    between atoms: C_8  and  S_9
REMARK    7  A    between atoms: S_9  and  C_10
REMARK    8  A    between atoms: C_14  and  N_15
REMARK    9  A    between atoms: C_16  and  C_18
REMARK   10  A    between atoms: C_25  and  O_26
REMARK                            x       y       z     vdW  Elec       q    Type
REMARK                         _______ _______ _______ _____ _____    ______ ____
ROOT
ATOM      1  C   UNL     1       3.089   7.366  18.197  0.00  0.00    +0.000 A 
ATOM      2  N   UNL     1       2.602   8.474  17.608  0.00  0.00    +0.000 NA
ATOM      3  C   UNL     1       1.709   9.177  18.319  0.00  0.00    +0.000 A 
ATOM      4  N   UNL     1       1.182  10.334  17.711  0.00  0.00    +0.000 N 
ATOM      5  C   UNL     1       1.300   8.834  19.604  0.00  0.00    +0.000 A 
ATOM      6  C   UNL     1       1.885   7.693  20.111  0.00  0.00    +0.000 A 
ATOM      7  N   UNL     1       2.775   6.950  19.433  0.00  0.00    +0.000 NA
ATOM      8  H   UNL     1       1.648  10.439  16.812  0.00  0.00    +0.000 HD
ATOM      9  H   UNL     1       1.328  11.152  18.297  0.00  0.00    +0.000 HD
ENDROOT
BRANCH   5  10
ATOM     10  N   UNL     1       0.304   9.640  20.214  0.00  0.00    +0.000 N 
ATOM     11  C   UNL     1       0.453  10.328  21.393  0.00  0.00    +0.000 C 
ATOM     12  O   UNL     1       1.438  10.212  22.118  0.00  0.00    +0.000 OA
ATOM     13  H   UNL     1      -0.428   9.943  19.572  0.00  0.00    +0.000 HD
BRANCH  11  14
ATOM     14  C   UNL     1      -0.650  11.253  21.777  0.00  0.00    +0.000 A 
ATOM     15  C   UNL     1      -1.303  11.052  23.001  0.00  0.00    +0.000 A 
ATOM     16  C   UNL     1      -2.401  11.843  23.354  0.00  0.00    +0.000 A 
ATOM     17  C   UNL     1      -2.843  12.854  22.497  0.00  0.00    +0.000 A 
ATOM     18  C   UNL     1      -2.176  13.085  21.296  0.00  0.00    +0.000 A 
ATOM     19  C   UNL     1      -1.085  12.289  20.948  0.00  0.00    +0.000 A 
ATOM     20  F   UNL     1      -0.460  12.549  19.790  0.00  0.00    +0.000 F 
ENDBRANCH  11  14
ENDBRANCH   5  10
BRANCH   6  21
ATOM     21  O   UNL     1       1.495   7.128  21.293  0.00  0.00    +0.000 OA
ATOM     22  H   UNL     1       0.831   7.725  21.687  0.00  0.00    +0.000 HD
ENDBRANCH   6  21
BRANCH   1  23
ATOM     23  S   UNL     1       4.123   6.294  17.235  0.00  0.00    +0.000 S 
BRANCH  23  24
ATOM     24  C   UNL     1       5.173   5.627  18.556  0.00  0.00    +0.000 C 
BRANCH  24  26
ATOM     25  N   UNL     1       3.323   4.028  18.781  0.00  0.00    +0.000 N 
ATOM     26  C   UNL     1       4.674   4.259  18.989  0.00  0.00    +0.000 C 
ATOM     27  O   UNL     1       5.426   3.444  19.526  0.00  0.00    +0.000 OA
ATOM     28  H   UNL     1       2.844   4.695  18.185  0.00  0.00    +0.000 HD
BRANCH  25  30
ATOM     29  C   UNL     1       3.392   1.562  18.496  0.00  0.00    +0.000 C 
ATOM     30  C   UNL     1       2.631   2.761  19.081  0.00  0.00    +0.000 C 
ATOM     31  C   UNL     1       1.187   2.779  18.549  0.00  0.00    +0.000 C 
ATOM     32  C   UNL     1       2.572   2.583  20.611  0.00  0.00    +0.000 C 
ENDBRANCH  25  30
ENDBRANCH  24  26
ENDBRANCH  23  24
ENDBRANCH   1  23
TORSDOF 7
ENDMDL
MODEL 5
REMARK VINA RESULT:      -7.3      3.525      8.332
REMARK  Name = 
REMARK  10 active torsions:
REMARK  status: ('A' for Active; 'I' for Inactive)
REMARK    1  A    between atoms: C_1  and  C_2
REMARK    2  A    between atoms: C_2  and  C_3
REMARK    3  A    between atoms: C_2  and  C_4
REMARK    4  A    between atoms: C_2  and  N_5
REMARK    5  A    between atoms: C_6  and  C_8
REMARK    6  A    between atoms: C_8  and  S_9
REMARK    7  A    between atoms: S_9  and  C_10
REMARK    8  A    between atoms: C_14  and  N_15
REMARK    9  A    between atoms: C_16  and  C_18
REMARK   10  A    between atoms: C_25  and  O_26
REMARK                            x       y       z     vdW  Elec       q    Type
REMARK                         _______ _______ _______ _____ _____    ______ ____
ROOT
ATOM      1  C   UNL     1      -0.001  11.002  20.636  0.00  0.00    +0.000 A 
ATOM      2  N   UNL     1       0.184  10.761  19.326  0.00  0.00    +0.000 NA
ATOM      3  C   UNL     1       0.927   9.687  19.021  0.00  0.00    +0.000 A 
ATOM      4  N   UNL     1       1.138   9.427  17.653  0.00  0.00    +0.000 N 
ATOM      5  C   UNL     1       1.472   8.828  19.971  0.00  0.00    +0.000 A 
ATOM      6  C   UNL     1       1.194   9.165  21.280  0.00  0.00    +0.000 A 
ATOM      7  N   UNL     1       0.467  10.236  21.634  0.00  0.00    +0.000 NA
ATOM      8  H   UNL     1       0.613  10.126  17.131  0.00  0.00    +0.000 HD
ATOM      9  H   UNL     1       0.838   8.486  17.409  0.00  0.00    +0.000 HD
ENDROOT
BRANCH   5  10
ATOM     10  N   UNL     1       2.284   7.763  19.505  0.00  0.00    +0.000 N 
ATOM     11  C   UNL     1       2.128   6.441  19.840  0.00  0.00    +0.000 C 
ATOM     12  O   UNL     1       1.331   6.054  20.692  0.00  0.00    +0.000 OA
ATOM     13  H   UNL     1       2.801   7.983  18.654  0.00  0.00    +0.000 HD
BRANCH  11  14
ATOM     14  C   UNL     1       2.976   5.456  19.111  0.00  0.00    +0.000 A 
ATOM     15  C   UNL     1       4.341   5.383  19.422  0.00  0.00    +0.000 A 
ATOM     16  C   UNL     1       5.186   4.536  18.697  0.00  0.00    +0.000 A 
ATOM     17  C   UNL     1       4.670   3.741  17.670  0.00  0.00    +0.000 A 
ATOM     18  C   UNL     1       3.309   3.780  17.381  0.00  0.00    +0.000 A 
ATOM     19  C   UNL     1       2.473   4.630  18.104  0.00  0.00    +0.000 A 
ATOM     20  F   UNL     1       1.165   4.631  17.806  0.00  0.00    +0.000 F 
ENDBRANCH  11  14
ENDBRANCH   5  10
BRANCH   6  21
ATOM     21  O   UNL     1       1.767   8.523  22.343  0.00  0.00    +0.000 OA
ATOM     22  H   UNL     1       2.481   9.100  22.671  0.00  0.00    +0.000 HD
ENDBRANCH   6  21
BRANCH   1  23
ATOM     23  S   UNL     1      -0.808  12.511  21.103  0.00  0.00    +0.000 S 
BRANCH  23  24
ATOM     24  C   UNL     1      -1.312  13.100  19.462  0.00  0.00    +0.000 C 
BRANCH  24  26
ATOM     25  N   UNL     1      -2.378  11.876  17.619  0.00  0.00    +0.000 N 
ATOM     26  C   UNL     1      -2.479  12.279  18.941  0.00  0.00    +0.000 C 
ATOM     27  O   UNL     1      -3.458  12.037  19.649  0.00  0.00    +0.000 OA
ATOM     28  H   UNL     1      -1.465  11.985  17.189  0.00  0.00    +0.000 HD
BRANCH  25  30
ATOM     29  C   UNL     1      -3.463   9.643  17.556  0.00  0.00    +0.000 C 
ATOM     30  C   UNL     1      -3.366  11.037  16.917  0.00  0.00    +0.000 C 
ATOM     31  C   UNL     1      -3.022  10.909  15.422  0.00  0.00    +0.000 C 
ATOM     32  C   UNL     1      -4.750  11.707  17.030  0.00  0.00    +0.000 C 
ENDBRANCH  25  30
ENDBRANCH  24  26
ENDBRANCH  23  24
ENDBRANCH   1  23
TORSDOF 7
ENDMDL
MODEL 6
REMARK VINA RESULT:      -7.3      3.490      8.362
REMARK  Name = 
REMARK  10 active torsions:
REMARK  status: ('A' for Active; 'I' for Inactive)
REMARK    1  A    between atoms: C_1  and  C_2
REMARK    2  A    between atoms: C_2  and  C_3
REMARK    3  A    between atoms: C_2  and  C_4
REMARK    4  A    between atoms: C_2  and  N_5
REMARK    5  A    between atoms: C_6  and  C_8
REMARK    6  A    between atoms: C_8  and  S_9
REMARK    7  A    between atoms: S_9  and  C_10
REMARK    8  A    between atoms: C_14  and  N_15
REMARK    9  A    between atoms: C_16  and  C_18
REMARK   10  A    between atoms: C_25  and  O_26
REMARK                            x       y       z     vdW  Elec       q    Type
REMARK                         _______ _______ _______ _____ _____    ______ ____
ROOT
ATOM      1  C   UNL     1       0.195  10.971  20.532  0.00  0.00    +0.000 A 
ATOM      2  N   UNL     1       0.295  10.744  19.210  0.00  0.00    +0.000 NA
ATOM      3  C   UNL     1       0.951   9.632  18.849  0.00  0.00    +0.000 A 
ATOM      4  N   UNL     1       1.073   9.386  17.467  0.00  0.00    +0.000 N 
ATOM      5  C   UNL     1       1.490   8.722  19.755  0.00  0.00    +0.000 A 
ATOM      6  C   UNL     1       1.303   9.050  21.081  0.00  0.00    +0.000 A 
ATOM      7  N   UNL     1       0.665  10.158  21.491  0.00  0.00    +0.000 NA
ATOM      8  H   UNL     1       0.566  10.126  16.985  0.00  0.00    +0.000 HD
ATOM      9  H   UNL     1       0.701   8.470  17.225  0.00  0.00    +0.000 HD
ENDROOT
BRANCH   5  10
ATOM     10  N   UNL     1       2.207   7.618  19.228  0.00  0.00    +0.000 N 
ATOM     11  C   UNL     1       2.093   6.319  19.661  0.00  0.00    +0.000 C 
ATOM     12  O   UNL     1       1.439   5.996  20.649  0.00  0.00    +0.000 OA
ATOM     13  H   UNL     1       2.583   7.780  18.294  0.00  0.00    +0.000 HD
BRANCH  11  14
ATOM     14  C   UNL     1       2.805   5.280  18.865  0.00  0.00    +0.000 A 
ATOM     15  C   UNL     1       2.070   4.507  17.955  0.00  0.00    +0.000 A 
ATOM     16  C   UNL     1       2.686   3.463  17.257  0.00  0.00    +0.000 A 
ATOM     17  C   UNL     1       4.044   3.196  17.447  0.00  0.00    +0.000 A 
ATOM     18  C   UNL     1       4.789   3.983  18.320  0.00  0.00    +0.000 A 
ATOM     19  C   UNL     1       4.169   5.020  19.017  0.00  0.00    +0.000 A 
ATOM     20  F   UNL     1       4.922   5.765  19.840  0.00  0.00    +0.000 F 
ENDBRANCH  11  14
ENDBRANCH   5  10
BRANCH   6  21
ATOM     21  O   UNL     1       1.889   8.353  22.101  0.00  0.00    +0.000 OA
ATOM     22  H   UNL     1       1.559   8.739  22.934  0.00  0.00    +0.000 HD
ENDBRANCH   6  21
BRANCH   1  23
ATOM     23  S   UNL     1      -0.489  12.518  21.066  0.00  0.00    +0.000 S 
BRANCH  23  24
ATOM     24  C   UNL     1      -1.065  13.157  19.468  0.00  0.00    +0.000 C 
BRANCH  24  26
ATOM     25  N   UNL     1      -2.193  11.931  17.663  0.00  0.00    +0.000 N 
ATOM     26  C   UNL     1      -2.262  12.359  18.980  0.00  0.00    +0.000 C 
ATOM     27  O   UNL     1      -3.236  12.156  19.708  0.00  0.00    +0.000 OA
ATOM     28  H   UNL     1      -1.285  12.008  17.217  0.00  0.00    +0.000 HD
BRANCH  25  30
ATOM     29  C   UNL     1      -2.898  10.942  15.497  0.00  0.00    +0.000 C 
ATOM     30  C   UNL     1      -3.215  11.108  16.992  0.00  0.00    +0.000 C 
ATOM     31  C   UNL     1      -4.619  11.713  17.168  0.00  0.00    +0.000 C 
ATOM     32  C   UNL     1      -3.218   9.706  17.633  0.00  0.00    +0.000 C 
ENDBRANCH  25  30
ENDBRANCH  24  26
ENDBRANCH  23  24
ENDBRANCH   1  23
TORSDOF 7
ENDMDL
MODEL 7
REMARK VINA RESULT:      -7.3      1.563      2.170
REMARK  Name = 
REMARK  10 active torsions:
REMARK  status: ('A' for Active; 'I' for Inactive)
REMARK    1  A    between atoms: C_1  and  C_2
REMARK    2  A    between atoms: C_2  and  C_3
REMARK    3  A    between atoms: C_2  and  C_4
REMARK    4  A    between atoms: C_2  and  N_5
REMARK    5  A    between atoms: C_6  and  C_8
REMARK    6  A    between atoms: C_8  and  S_9
REMARK    7  A    between atoms: S_9  and  C_10
REMARK    8  A    between atoms: C_14  and  N_15
REMARK    9  A    between atoms: C_16  and  C_18
REMARK   10  A    between atoms: C_25  and  O_26
REMARK                            x       y       z     vdW  Elec       q    Type
REMARK                         _______ _______ _______ _____ _____    ______ ____
ROOT
ATOM      1  C   UNL     1       3.405   7.368  18.007  0.00  0.00    +0.000 A 
ATOM      2  N   UNL     1       2.863   8.469  17.456  0.00  0.00    +0.000 NA
ATOM      3  C   UNL     1       1.924   9.092  18.180  0.00  0.00    +0.000 A 
ATOM      4  N   UNL     1       1.339  10.241  17.612  0.00  0.00    +0.000 N 
ATOM      5  C   UNL     1       1.520   8.676  19.446  0.00  0.00    +0.000 A 
ATOM      6  C   UNL     1       2.163   7.550  19.915  0.00  0.00    +0.000 A 
ATOM      7  N   UNL     1       3.100   6.885  19.221  0.00  0.00    +0.000 NA
ATOM      8  H   UNL     1       1.809  10.408  16.724  0.00  0.00    +0.000 HD
ATOM      9  H   UNL     1       1.432  11.042  18.231  0.00  0.00    +0.000 HD
ENDROOT
BRANCH   5  10
ATOM     10  N   UNL     1       0.473   9.400  20.073  0.00  0.00    +0.000 N 
ATOM     11  C   UNL     1       0.586  10.095  21.252  0.00  0.00    +0.000 C 
ATOM     12  O   UNL     1       1.588  10.055  21.962  0.00  0.00    +0.000 OA
ATOM     13  H   UNL     1      -0.290   9.646  19.443  0.00  0.00    +0.000 HD
BRANCH  11  14
ATOM     14  C   UNL     1      -0.581  10.930  21.655  0.00  0.00    +0.000 A 
ATOM     15  C   UNL     1      -1.104  11.847  20.733  0.00  0.00    +0.000 A 
ATOM     16  C   UNL     1      -2.139  12.710  21.106  0.00  0.00    +0.000 A 
ATOM     17  C   UNL     1      -2.674  12.650  22.395  0.00  0.00    +0.000 A 
ATOM     18  C   UNL     1      -2.186  11.715  23.305  0.00  0.00    +0.000 A 
ATOM     19  C   UNL     1      -1.150  10.861  22.929  0.00  0.00    +0.000 A 
ATOM     20  F   UNL     1      -0.715   9.966  23.828  0.00  0.00    +0.000 F 
ENDBRANCH  11  14
ENDBRANCH   5  10
BRANCH   6  21
ATOM     21  O   UNL     1       1.792   6.917  21.069  0.00  0.00    +0.000 OA
ATOM     22  H   UNL     1       1.412   7.598  21.656  0.00  0.00    +0.000 HD
ENDBRANCH   6  21
BRANCH   1  23
ATOM     23  S   UNL     1       4.509   6.394  17.018  0.00  0.00    +0.000 S 
BRANCH  23  24
ATOM     24  C   UNL     1       4.916   5.093  18.217  0.00  0.00    +0.000 C 
BRANCH  24  26
ATOM     25  N   UNL     1       3.343   3.869  19.651  0.00  0.00    +0.000 N 
ATOM     26  C   UNL     1       3.759   4.118  18.352  0.00  0.00    +0.000 C 
ATOM     27  O   UNL     1       3.270   3.565  17.367  0.00  0.00    +0.000 OA
ATOM     28  H   UNL     1       3.700   4.499  20.362  0.00  0.00    +0.000 HD
BRANCH  25  30
ATOM     29  C   UNL     1       0.871   3.638  19.641  0.00  0.00    +0.000 C 
ATOM     30  C   UNL     1       2.215   2.995  20.019  0.00  0.00    +0.000 C 
ATOM     31  C   UNL     1       2.236   2.665  21.522  0.00  0.00    +0.000 C 
ATOM     32  C   UNL     1       2.342   1.671  19.240  0.00  0.00    +0.000 C 
ENDBRANCH  25  30
ENDBRANCH  24  26
ENDBRANCH  23  24
ENDBRANCH   1  23
TORSDOF 7
ENDMDL
MODEL 8
REMARK VINA RESULT:      -7.2      1.342      1.821
REMARK  Name = 
REMARK  10 active torsions:
REMARK  status: ('A' for Active; 'I' for Inactive)
REMARK    1  A    between atoms: C_1  and  C_2
REMARK    2  A    between atoms: C_2  and  C_3
REMARK    3  A    between atoms: C_2  and  C_4
REMARK    4  A    between atoms: C_2  and  N_5
REMARK    5  A    between atoms: C_6  and  C_8
REMARK    6  A    between atoms: C_8  and  S_9
REMARK    7  A    between atoms: S_9  and  C_10
REMARK    8  A    between atoms: C_14  and  N_15
REMARK    9  A    between atoms: C_16  and  C_18
REMARK   10  A    between atoms: C_25  and  O_26
REMARK                            x       y       z     vdW  Elec       q    Type
REMARK                         _______ _______ _______ _____ _____    ______ ____
ROOT
ATOM      1  C   UNL     1       3.181   7.456  18.052  0.00  0.00    +0.000 A 
ATOM      2  N   UNL     1       2.855   7.038  19.288  0.00  0.00    +0.000 NA
ATOM      3  C   UNL     1       1.925   7.760  19.930  0.00  0.00    +0.000 A 
ATOM      4  N   UNL     1       1.580   7.341  21.230  0.00  0.00    +0.000 N 
ATOM      5  C   UNL     1       1.288   8.868  19.378  0.00  0.00    +0.000 A 
ATOM      6  C   UNL     1       1.688   9.185  18.097  0.00  0.00    +0.000 A 
ATOM      7  N   UNL     1       2.624   8.500  17.420  0.00  0.00    +0.000 NA
ATOM      8  H   UNL     1       2.106   6.490  21.421  0.00  0.00    +0.000 HD
ATOM      9  H   UNL     1       0.579   7.176  21.307  0.00  0.00    +0.000 HD
ENDROOT
BRANCH   5  10
ATOM     10  N   UNL     1       0.365   9.569  20.195  0.00  0.00    +0.000 N 
ATOM     11  C   UNL     1       0.459  10.895  20.541  0.00  0.00    +0.000 C 
ATOM     12  O   UNL     1       1.437  11.590  20.276  0.00  0.00    +0.000 OA
ATOM     13  H   UNL     1      -0.549   9.122  20.259  0.00  0.00    +0.000 HD
BRANCH  11  14
ATOM     14  C   UNL     1      -0.701  11.486  21.266  0.00  0.00    +0.000 A 
ATOM     15  C   UNL     1      -0.869  11.188  22.625  0.00  0.00    +0.000 A 
ATOM     16  C   UNL     1      -1.994  11.651  23.316  0.00  0.00    +0.000 A 
ATOM     17  C   UNL     1      -2.949  12.431  22.659  0.00  0.00    +0.000 A 
ATOM     18  C   UNL     1      -2.769  12.764  21.319  0.00  0.00    +0.000 A 
ATOM     19  C   UNL     1      -1.648  12.295  20.635  0.00  0.00    +0.000 A 
ATOM     20  F   UNL     1      -1.503  12.647  19.349  0.00  0.00    +0.000 F 
ENDBRANCH  11  14
ENDBRANCH   5  10
BRANCH   6  21
ATOM     21  O   UNL     1       1.279  10.322  17.458  0.00  0.00    +0.000 OA
ATOM     22  H   UNL     1       2.057  10.906  17.394  0.00  0.00    +0.000 HD
ENDBRANCH   6  21
BRANCH   1  23
ATOM     23  S   UNL     1       4.538   6.661  17.232  0.00  0.00    +0.000 S 
BRANCH  23  24
ATOM     24  C   UNL     1       4.880   5.342  18.430  0.00  0.00    +0.000 C 
BRANCH  24  26
ATOM     25  N   UNL     1       3.336   4.034  19.822  0.00  0.00    +0.000 N 
ATOM     26  C   UNL     1       3.693   4.400  18.533  0.00  0.00    +0.000 C 
ATOM     27  O   UNL     1       3.128   3.969  17.527  0.00  0.00    +0.000 OA
ATOM     28  H   UNL     1       3.756   4.575  20.571  0.00  0.00    +0.000 HD
BRANCH  25  30
ATOM     29  C   UNL     1       2.148   1.927  19.261  0.00  0.00    +0.000 C 
ATOM     30  C   UNL     1       2.193   3.169  20.165  0.00  0.00    +0.000 C 
ATOM     31  C   UNL     1       0.865   3.940  20.068  0.00  0.00    +0.000 C 
ATOM     32  C   UNL     1       2.358   2.689  21.620  0.00  0.00    +0.000 C 
ENDBRANCH  25  30
ENDBRANCH  24  26
ENDBRANCH  23  24
ENDBRANCH   1  23
TORSDOF 7
ENDMDL
MODEL 9
REMARK VINA RESULT:      -7.2      1.704      2.292
REMARK  Name = 
REMARK  10 active torsions:
REMARK  status: ('A' for Active; 'I' for Inactive)
REMARK    1  A    between atoms: C_1  and  C_2
REMARK    2  A    between atoms: C_2  and  C_3
REMARK    3  A    between atoms: C_2  and  C_4
REMARK    4  A    between atoms: C_2  and  N_5
REMARK    5  A    between atoms: C_6  and  C_8
REMARK    6  A    between atoms: C_8  and  S_9
REMARK    7  A    between atoms: S_9  and  C_10
REMARK    8  A    between atoms: C_14  and  N_15
REMARK    9  A    between atoms: C_16  and  C_18
REMARK   10  A    between atoms: C_25  and  O_26
REMARK                            x       y       z     vdW  Elec       q    Type
REMARK                         _______ _______ _______ _____ _____    ______ ____
ROOT
ATOM      1  C   UNL     1       3.304   7.395  18.021  0.00  0.00    +0.000 A 
ATOM      2  N   UNL     1       2.810   8.524  17.482  0.00  0.00    +0.000 NA
ATOM      3  C   UNL     1       1.885   9.170  18.206  0.00  0.00    +0.000 A 
ATOM      4  N   UNL     1       1.350  10.349  17.649  0.00  0.00    +0.000 N 
ATOM      5  C   UNL     1       1.451   8.750  19.460  0.00  0.00    +0.000 A 
ATOM      6  C   UNL     1       2.046   7.594  19.918  0.00  0.00    +0.000 A 
ATOM      7  N   UNL     1       2.967   6.906  19.224  0.00  0.00    +0.000 NA
ATOM      8  H   UNL     1       1.836  10.512  16.769  0.00  0.00    +0.000 HD
ATOM      9  H   UNL     1       1.465  11.137  18.282  0.00  0.00    +0.000 HD
ENDROOT
BRANCH   5  10
ATOM     10  N   UNL     1       0.424   9.503  20.086  0.00  0.00    +0.000 N 
ATOM     11  C   UNL     1       0.533  10.134  21.301  0.00  0.00    +0.000 C 
ATOM     12  O   UNL     1       1.506  10.005  22.040  0.00  0.00    +0.000 OA
ATOM     13  H   UNL     1      -0.302   9.820  19.445  0.00  0.00    +0.000 HD
BRANCH  11  14
ATOM     14  C   UNL     1      -0.599  11.014  21.705  0.00  0.00    +0.000 A 
ATOM     15  C   UNL     1      -1.124  10.886  22.999  0.00  0.00    +0.000 A 
ATOM     16  C   UNL     1      -2.243  11.631  23.384  0.00  0.00    +0.000 A 
ATOM     17  C   UNL     1      -2.834  12.524  22.488  0.00  0.00    +0.000 A 
ATOM     18  C   UNL     1      -2.296  12.685  21.214  0.00  0.00    +0.000 A 
ATOM     19  C   UNL     1      -1.183  11.936  20.834  0.00  0.00    +0.000 A 
ATOM     20  F   UNL     1      -0.685  12.128  19.603  0.00  0.00    +0.000 F 
ENDBRANCH  11  14
ENDBRANCH   5  10
BRANCH   6  21
ATOM     21  O   UNL     1       1.639   6.957  21.058  0.00  0.00    +0.000 OA
ATOM     22  H   UNL     1       1.879   7.535  21.806  0.00  0.00    +0.000 HD
ENDBRANCH   6  21
BRANCH   1  23
ATOM     23  S   UNL     1       4.382   6.397  17.029  0.00  0.00    +0.000 S 
BRANCH  23  24
ATOM     24  C   UNL     1       4.850   5.148  18.260  0.00  0.00    +0.000 C 
BRANCH  24  26
ATOM     25  N   UNL     1       3.303   3.935  19.732  0.00  0.00    +0.000 N 
ATOM     26  C   UNL     1       3.736   4.129  18.430  0.00  0.00    +0.000 C 
ATOM     27  O   UNL     1       3.294   3.498  17.468  0.00  0.00    +0.000 OA
ATOM     28  H   UNL     1       3.615   4.621  20.412  0.00  0.00    +0.000 HD
BRANCH  25  30
ATOM     29  C   UNL     1       2.318   2.645  21.612  0.00  0.00    +0.000 C 
ATOM     30  C   UNL     1       2.208   3.032  20.128  0.00  0.00    +0.000 C 
ATOM     31  C   UNL     1       2.188   1.767  19.253  0.00  0.00    +0.000 C 
ATOM     32  C   UNL     1       0.868   3.768  19.931  0.00  0.00    +0.000 C 
ENDBRANCH  25  30
ENDBRANCH  24  26
ENDBRANCH  23  24
ENDBRANCH   1  23
TORSDOF 7
ENDMDL
