MODEL 1
REMARK VINA RESULT:      -9.0      0.000      0.000
REMARK  Name = 
REMARK  5 active torsions:
REMARK  status: ('A' for Active; 'I' for Inactive)
REMARK    1  A    between atoms: C_2  and  C_4
REMARK    2  A    between atoms: C_4  and  N_5
REMARK    3  A    between atoms: C_12  and  N_13
REMARK    4  A    between atoms: N_13  and  C_14
REMARK    5  A    between atoms: C_18  and  C_19
REMARK                            x       y       z     vdW  Elec       q    Type
REMARK                         _______ _______ _______ _____ _____    ______ ____
ROOT
ATOM      1  N   UNL     1       3.021   6.221  19.890  0.00  0.00    +0.000 N 
ATOM      2  H   UNL     1       4.028   6.354  19.893  0.00  0.00    +0.000 HD
ENDROOT
BRANCH   1  10
ATOM      3  N   UNL     1       3.953   3.794  18.022  0.00  0.00    +0.000 N 
ATOM      4  N   UNL     1       4.121   2.548  17.510  0.00  0.00    +0.000 NA
ATOM      5  C   UNL     1       3.222   1.820  18.177  0.00  0.00    +0.000 A 
ATOM      6  C   UNL     1       2.515   2.576  19.125  0.00  0.00    +0.000 A 
ATOM      7  N   UNL     1       1.535   2.197  19.978  0.00  0.00    +0.000 NA
ATOM      8  C   UNL     1       1.075   3.180  20.768  0.00  0.00    +0.000 A 
ATOM      9  C   UNL     1       1.529   4.490  20.754  0.00  0.00    +0.000 A 
ATOM     10  C   UNL     1       2.547   4.896  19.874  0.00  0.00    +0.000 A 
ATOM     11  C   UNL     1       3.029   3.872  19.040  0.00  0.00    +0.000 A 
BRANCH   3  12
ATOM     12  C   UNL     1       4.744   4.858  17.443  0.00  0.00    +0.000 C 
BRANCH  12  14
ATOM     13  N   UNL     1       7.051   4.205  17.871  0.00  0.00    +0.000 N 
ATOM     14  C   UNL     1       6.020   5.036  18.219  0.00  0.00    +0.000 C 
ATOM     15  O   UNL     1       6.141   5.883  19.101  0.00  0.00    +0.000 OA
ATOM     16  H   UNL     1       7.893   4.223  18.434  0.00  0.00    +0.000 HD
ATOM     17  H   UNL     1       6.876   3.366  17.321  0.00  0.00    +0.000 HD
ENDBRANCH  12  14
ENDBRANCH   3  12
ENDBRANCH   1  10
BRANCH   1  18
ATOM     18  C   UNL     1       2.331   7.398  19.519  0.00  0.00    +0.000 A 
ATOM     19  C   UNL     1       2.394   7.848  18.206  0.00  0.00    +0.000 A 
ATOM     20  C   UNL     1       1.752   9.031  17.881  0.00  0.00    +0.000 A 
ATOM     21  N   UNL     1       1.071   9.790  18.772  0.00  0.00    +0.000 NA
ATOM     22  C   UNL     1       1.028   9.366  20.057  0.00  0.00    +0.000 A 
ATOM     23  C   UNL     1       1.627   8.170  20.446  0.00  0.00    +0.000 A 
BRANCH  22  24
ATOM     24  C   UNL     1       0.325  10.251  21.005  0.00  0.00    +0.000 A 
ATOM     25  C   UNL     1       0.420  11.650  20.889  0.00  0.00    +0.000 A 
ATOM     26  C   UNL     1      -0.227  12.487  21.798  0.00  0.00    +0.000 A 
ATOM     27  F   UNL     1      -0.117  13.815  21.661  0.00  0.00    +0.000 F 
ATOM     28  C   UNL     1      -0.983  11.969  22.839  0.00  0.00    +0.000 A 
ATOM     29  C   UNL     1      -1.095  10.591  22.978  0.00  0.00    +0.000 A 
ATOM     30  C   UNL     1      -0.445   9.750  22.071  0.00  0.00    +0.000 A 
ATOM     31  F   UNL     1      -0.563   8.428  22.271  0.00  0.00    +0.000 F 
ENDBRANCH  22  24
ENDBRANCH   1  18
TORSDOF 5
ENDMDL
MODEL 2
REMARK VINA RESULT:      -9.0      0.926      1.591
REMARK  Name = 
REMARK  5 active torsions:
REMARK  status: ('A' for Active; 'I' for Inactive)
REMARK    1  A    between atoms: C_2  and  C_4
REMARK    2  A    between atoms: C_4  and  N_5
REMARK    3  A    between atoms: C_12  and  N_13
REMARK    4  A    between atoms: N_13  and  C_14
REMARK    5  A    between atoms: C_18  and  C_19
REMARK                            x       y       z     vdW  Elec       q    Type
REMARK                         _______ _______ _______ _____ _____    ______ ____
ROOT
ATOM      1  N   UNL     1       2.763   6.242  20.135  0.00  0.00    +0.000 N 
ATOM      2  H   UNL     1       3.716   6.372  20.464  0.00  0.00    +0.000 HD
ENDROOT
BRANCH   1  10
ATOM      3  N   UNL     1       4.147   4.050  18.258  0.00  0.00    +0.000 N 
ATOM      4  N   UNL     1       4.460   2.871  17.661  0.00  0.00    +0.000 NA
ATOM      5  C   UNL     1       3.464   2.065  18.037  0.00  0.00    +0.000 A 
ATOM      6  C   UNL     1       2.548   2.703  18.888  0.00  0.00    +0.000 A 
ATOM      7  N   UNL     1       1.423   2.222  19.465  0.00  0.00    +0.000 NA
ATOM      8  C   UNL     1       0.775   3.106  20.241  0.00  0.00    +0.000 A 
ATOM      9  C   UNL     1       1.179   4.413  20.467  0.00  0.00    +0.000 A 
ATOM     10  C   UNL     1       2.347   4.924  19.874  0.00  0.00    +0.000 A 
ATOM     11  C   UNL     1       3.027   4.004  19.056  0.00  0.00    +0.000 A 
BRANCH   3  12
ATOM     12  C   UNL     1       5.008   5.179  17.981  0.00  0.00    +0.000 C 
BRANCH  12  14
ATOM     13  N   UNL     1       7.292   4.338  17.880  0.00  0.00    +0.000 N 
ATOM     14  C   UNL     1       6.349   4.982  18.635  0.00  0.00    +0.000 C 
ATOM     15  O   UNL     1       6.592   5.384  19.770  0.00  0.00    +0.000 OA
ATOM     16  H   UNL     1       8.173   4.096  18.317  0.00  0.00    +0.000 HD
ATOM     17  H   UNL     1       7.019   3.807  17.054  0.00  0.00    +0.000 HD
ENDBRANCH  12  14
ENDBRANCH   3  12
ENDBRANCH   1  10
BRANCH   1  18
ATOM     18  C   UNL     1       2.199   7.446  19.654  0.00  0.00    +0.000 A 
ATOM     19  C   UNL     1       2.320   7.774  18.309  0.00  0.00    +0.000 A 
ATOM     20  C   UNL     1       1.804   8.983  17.875  0.00  0.00    +0.000 A 
ATOM     21  N   UNL     1       1.194   9.879  18.685  0.00  0.00    +0.000 NA
ATOM     22  C   UNL     1       1.096   9.573  20.001  0.00  0.00    +0.000 A 
ATOM     23  C   UNL     1       1.568   8.361  20.500  0.00  0.00    +0.000 A 
BRANCH  22  24
ATOM     24  C   UNL     1       0.477  10.601  20.858  0.00  0.00    +0.000 A 
ATOM     25  C   UNL     1      -0.478  10.251  21.830  0.00  0.00    +0.000 A 
ATOM     26  C   UNL     1      -1.078  11.226  22.625  0.00  0.00    +0.000 A 
ATOM     27  F   UNL     1      -1.984  10.859  23.541  0.00  0.00    +0.000 F 
ATOM     28  C   UNL     1      -0.753  12.567  22.486  0.00  0.00    +0.000 A 
ATOM     29  C   UNL     1       0.187  12.943  21.535  0.00  0.00    +0.000 A 
ATOM     30  C   UNL     1       0.788  11.969  20.734  0.00  0.00    +0.000 A 
ATOM     31  F   UNL     1       1.666  12.392  19.812  0.00  0.00    +0.000 F 
ENDBRANCH  22  24
ENDBRANCH   1  18
TORSDOF 5
ENDMDL
MODEL 3
REMARK VINA RESULT:      -8.6      1.027      1.035
REMARK  Name = 
REMARK  5 active torsions:
REMARK  status: ('A' for Active; 'I' for Inactive)
REMARK    1  A    between atoms: C_2  and  C_4
REMARK    2  A    between atoms: C_4  and  N_5
REMARK    3  A    between atoms: C_12  and  N_13
REMARK    4  A    between atoms: N_13  and  C_14
REMARK    5  A    between atoms: C_18  and  C_19
REMARK                            x       y       z     vdW  Elec       q    Type
REMARK                         _______ _______ _______ _____ _____    ______ ____
ROOT
ATOM      1  N   UNL     1       2.976   6.719  19.848  0.00  0.00    +0.000 N 
ATOM      2  H   UNL     1       3.959   6.935  19.703  0.00  0.00    +0.000 HD
ENDROOT
BRANCH   1  10
ATOM      3  N   UNL     1       4.827   4.139  19.441  0.00  0.00    +0.000 N 
ATOM      4  N   UNL     1       5.281   2.859  19.450  0.00  0.00    +0.000 NA
ATOM      5  C   UNL     1       4.194   2.152  19.766  0.00  0.00    +0.000 A 
ATOM      6  C   UNL     1       3.071   2.964  19.991  0.00  0.00    +0.000 A 
ATOM      7  N   UNL     1       1.805   2.619  20.323  0.00  0.00    +0.000 NA
ATOM      8  C   UNL     1       0.968   3.657  20.475  0.00  0.00    +0.000 A 
ATOM      9  C   UNL     1       1.316   4.990  20.318  0.00  0.00    +0.000 A 
ATOM     10  C   UNL     1       2.628   5.362  19.975  0.00  0.00    +0.000 A 
ATOM     11  C   UNL     1       3.508   4.278  19.809  0.00  0.00    +0.000 A 
BRANCH   3  12
ATOM     12  C   UNL     1       5.765   5.169  19.051  0.00  0.00    +0.000 C 
BRANCH  12  14
ATOM     13  N   UNL     1       7.780   4.275  18.015  0.00  0.00    +0.000 N 
ATOM     14  C   UNL     1       6.512   4.750  17.814  0.00  0.00    +0.000 C 
ATOM     15  O   UNL     1       6.015   4.814  16.693  0.00  0.00    +0.000 OA
ATOM     16  H   UNL     1       8.352   4.078  17.203  0.00  0.00    +0.000 HD
ATOM     17  H   UNL     1       8.263   4.445  18.896  0.00  0.00    +0.000 HD
ENDBRANCH  12  14
ENDBRANCH   3  12
ENDBRANCH   1  10
BRANCH   1  18
ATOM     18  C   UNL     1       2.139   7.807  19.509  0.00  0.00    +0.000 A 
ATOM     19  C   UNL     1       2.003   8.183  18.178  0.00  0.00    +0.000 A 
ATOM     20  C   UNL     1       1.218   9.283  17.880  0.00  0.00    +0.000 A 
ATOM     21  N   UNL     1       0.578  10.030  18.810  0.00  0.00    +0.000 NA
ATOM     22  C   UNL     1       0.727   9.680  20.110  0.00  0.00    +0.000 A 
ATOM     23  C   UNL     1       1.479   8.567  20.478  0.00  0.00    +0.000 A 
BRANCH  22  24
ATOM     24  C   UNL     1       0.061  10.553  21.093  0.00  0.00    +0.000 A 
ATOM     25  C   UNL     1       0.125  11.954  20.974  0.00  0.00    +0.000 A 
ATOM     26  C   UNL     1      -0.487  12.779  21.916  0.00  0.00    +0.000 A 
ATOM     27  F   UNL     1      -0.406  14.109  21.774  0.00  0.00    +0.000 F 
ATOM     28  C   UNL     1      -1.178  12.249  22.995  0.00  0.00    +0.000 A 
ATOM     29  C   UNL     1      -1.259  10.869  23.139  0.00  0.00    +0.000 A 
ATOM     30  C   UNL     1      -0.644  10.039  22.199  0.00  0.00    +0.000 A 
ATOM     31  F   UNL     1      -0.729   8.716  22.404  0.00  0.00    +0.000 F 
ENDBRANCH  22  24
ENDBRANCH   1  18
TORSDOF 5
ENDMDL
MODEL 4
REMARK VINA RESULT:      -8.6      1.359      1.514
REMARK  Name = 
REMARK  5 active torsions:
REMARK  status: ('A' for Active; 'I' for Inactive)
REMARK    1  A    between atoms: C_2  and  C_4
REMARK    2  A    between atoms: C_4  and  N_5
REMARK    3  A    between atoms: C_12  and  N_13
REMARK    4  A    between atoms: N_13  and  C_14
REMARK    5  A    between atoms: C_18  and  C_19
REMARK                            x       y       z     vdW  Elec       q    Type
REMARK                         _______ _______ _______ _____ _____    ______ ____
ROOT
ATOM      1  N   UNL     1       2.962   6.130  20.027  0.00  0.00    +0.000 N 
ATOM      2  H   UNL     1       3.916   6.261  20.351  0.00  0.00    +0.000 HD
ENDROOT
BRANCH   1  10
ATOM      3  N   UNL     1       4.048   3.743  18.191  0.00  0.00    +0.000 N 
ATOM      4  N   UNL     1       4.257   2.508  17.666  0.00  0.00    +0.000 NA
ATOM      5  C   UNL     1       3.301   1.769  18.234  0.00  0.00    +0.000 A 
ATOM      6  C   UNL     1       2.515   2.506  19.134  0.00  0.00    +0.000 A 
ATOM      7  N   UNL     1       1.463   2.112  19.889  0.00  0.00    +0.000 NA
ATOM      8  C   UNL     1       0.938   3.079  20.659  0.00  0.00    +0.000 A 
ATOM      9  C   UNL     1       1.395   4.387  20.715  0.00  0.00    +0.000 A 
ATOM     10  C   UNL     1       2.488   4.808  19.938  0.00  0.00    +0.000 A 
ATOM     11  C   UNL     1       3.039   3.801  19.125  0.00  0.00    +0.000 A 
BRANCH   3  12
ATOM     12  C   UNL     1       4.890   4.816  17.709  0.00  0.00    +0.000 C 
BRANCH  12  14
ATOM     13  N   UNL     1       7.246   4.303  18.049  0.00  0.00    +0.000 N 
ATOM     14  C   UNL     1       6.132   4.919  18.552  0.00  0.00    +0.000 C 
ATOM     15  O   UNL     1       6.155   5.530  19.618  0.00  0.00    +0.000 OA
ATOM     16  H   UNL     1       8.075   4.262  18.630  0.00  0.00    +0.000 HD
ATOM     17  H   UNL     1       7.164   3.613  17.304  0.00  0.00    +0.000 HD
ENDBRANCH  12  14
ENDBRANCH   3  12
ENDBRANCH   1  10
BRANCH   1  18
ATOM     18  C   UNL     1       2.459   7.282  19.379  0.00  0.00    +0.000 A 
ATOM     19  C   UNL     1       2.963   7.648  18.137  0.00  0.00    +0.000 A 
ATOM     20  C   UNL     1       2.489   8.810  17.549  0.00  0.00    +0.000 A 
ATOM     21  N   UNL     1       1.569   9.623  18.117  0.00  0.00    +0.000 NA
ATOM     22  C   UNL     1       1.093   9.280  19.338  0.00  0.00    +0.000 A 
ATOM     23  C   UNL     1       1.504   8.111  19.973  0.00  0.00    +0.000 A 
BRANCH  22  24
ATOM     24  C   UNL     1       0.136  10.224  19.945  0.00  0.00    +0.000 A 
ATOM     25  C   UNL     1       0.192  10.523  21.319  0.00  0.00    +0.000 A 
ATOM     26  C   UNL     1      -0.726  11.398  21.897  0.00  0.00    +0.000 A 
ATOM     27  F   UNL     1      -0.647  11.662  23.208  0.00  0.00    +0.000 F 
ATOM     28  C   UNL     1      -1.719  12.002  21.139  0.00  0.00    +0.000 A 
ATOM     29  C   UNL     1      -1.798  11.726  19.779  0.00  0.00    +0.000 A 
ATOM     30  C   UNL     1      -0.882  10.846  19.198  0.00  0.00    +0.000 A 
ATOM     31  F   UNL     1      -1.024  10.593  17.888  0.00  0.00    +0.000 F 
ENDBRANCH  22  24
ENDBRANCH   1  18
TORSDOF 5
ENDMDL
MODEL 5
REMARK VINA RESULT:      -8.6      1.463      1.549
REMARK  Name = 
REMARK  5 active torsions:
REMARK  status: ('A' for Active; 'I' for Inactive)
REMARK    1  A    between atoms: C_2  and  C_4
REMARK    2  A    between atoms: C_4  and  N_5
REMARK    3  A    between atoms: C_12  and  N_13
REMARK    4  A    between atoms: N_13  and  C_14
REMARK    5  A    between atoms: C_18  and  C_19
REMARK                            x       y       z     vdW  Elec       q    Type
REMARK                         _______ _______ _______ _____ _____    ______ ____
ROOT
ATOM      1  N   UNL     1       2.588   6.340  20.463  0.00  0.00    +0.000 N 
ATOM      2  H   UNL     1       3.365   6.579  21.073  0.00  0.00    +0.000 HD
ENDROOT
BRANCH   1  10
ATOM      3  N   UNL     1       4.591   4.062  19.439  0.00  0.00    +0.000 N 
ATOM      4  N   UNL     1       5.124   2.850  19.136  0.00  0.00    +0.000 NA
ATOM      5  C   UNL     1       4.090   2.018  19.275  0.00  0.00    +0.000 A 
ATOM      6  C   UNL     1       2.922   2.676  19.693  0.00  0.00    +0.000 A 
ATOM      7  N   UNL     1       1.687   2.179  19.935  0.00  0.00    +0.000 NA
ATOM      8  C   UNL     1       0.789   3.092  20.336  0.00  0.00    +0.000 A 
ATOM      9  C   UNL     1       1.049   4.443  20.505  0.00  0.00    +0.000 A 
ATOM     10  C   UNL     1       2.328   4.972  20.258  0.00  0.00    +0.000 A 
ATOM     11  C   UNL     1       3.273   4.021  19.833  0.00  0.00    +0.000 A 
BRANCH   3  12
ATOM     12  C   UNL     1       5.454   5.215  19.307  0.00  0.00    +0.000 C 
BRANCH  12  14
ATOM     13  N   UNL     1       7.415   4.410  18.107  0.00  0.00    +0.000 N 
ATOM     14  C   UNL     1       6.250   5.125  18.034  0.00  0.00    +0.000 C 
ATOM     15  O   UNL     1       5.875   5.645  16.986  0.00  0.00    +0.000 OA
ATOM     16  H   UNL     1       8.029   4.409  17.302  0.00  0.00    +0.000 HD
ATOM     17  H   UNL     1       7.831   4.190  19.012  0.00  0.00    +0.000 HD
ENDBRANCH  12  14
ENDBRANCH   3  12
ENDBRANCH   1  10
BRANCH   1  18
ATOM     18  C   UNL     1       2.188   7.433  19.660  0.00  0.00    +0.000 A 
ATOM     19  C   UNL     1       2.664   7.541  18.359  0.00  0.00    +0.000 A 
ATOM     20  C   UNL     1       2.297   8.649  17.612  0.00  0.00    +0.000 A 
ATOM     21  N   UNL     1       1.509   9.646  18.076  0.00  0.00    +0.000 NA
ATOM     22  C   UNL     1       1.063   9.554  19.352  0.00  0.00    +0.000 A 
ATOM     23  C   UNL     1       1.370   8.454  20.149  0.00  0.00    +0.000 A 
BRANCH  22  24
ATOM     24  C   UNL     1       0.256  10.689  19.837  0.00  0.00    +0.000 A 
ATOM     25  C   UNL     1       0.799  11.630  20.732  0.00  0.00    +0.000 A 
ATOM     26  C   UNL     1       0.029  12.691  21.206  0.00  0.00    +0.000 A 
ATOM     27  F   UNL     1       0.574  13.569  22.058  0.00  0.00    +0.000 F 
ATOM     28  C   UNL     1      -1.291  12.855  20.810  0.00  0.00    +0.000 A 
ATOM     29  C   UNL     1      -1.854  11.942  19.926  0.00  0.00    +0.000 A 
ATOM     30  C   UNL     1      -1.086  10.875  19.452  0.00  0.00    +0.000 A 
ATOM     31  F   UNL     1      -1.689  10.008  18.625  0.00  0.00    +0.000 F 
ENDBRANCH  22  24
ENDBRANCH   1  18
TORSDOF 5
ENDMDL
MODEL 6
REMARK VINA RESULT:      -8.5      1.088      1.108
REMARK  Name = 
REMARK  5 active torsions:
REMARK  status: ('A' for Active; 'I' for Inactive)
REMARK    1  A    between atoms: C_2  and  C_4
REMARK    2  A    between atoms: C_4  and  N_5
REMARK    3  A    between atoms: C_12  and  N_13
REMARK    4  A    between atoms: N_13  and  C_14
REMARK    5  A    between atoms: C_18  and  C_19
REMARK                            x       y       z     vdW  Elec       q    Type
REMARK                         _______ _______ _______ _____ _____    ______ ____
ROOT
ATOM      1  N   UNL     1       2.825   6.300  20.103  0.00  0.00    +0.000 N 
ATOM      2  H   UNL     1       3.810   6.461  20.298  0.00  0.00    +0.000 HD
ENDROOT
BRANCH   1  10
ATOM      3  N   UNL     1       4.017   4.109  18.098  0.00  0.00    +0.000 N 
ATOM      4  N   UNL     1       4.283   2.927  17.484  0.00  0.00    +0.000 NA
ATOM      5  C   UNL     1       3.366   2.104  17.996  0.00  0.00    +0.000 A 
ATOM      6  C   UNL     1       2.549   2.734  18.948  0.00  0.00    +0.000 A 
ATOM      7  N   UNL     1       1.520   2.237  19.672  0.00  0.00    +0.000 NA
ATOM      8  C   UNL     1       0.952   3.118  20.511  0.00  0.00    +0.000 A 
ATOM      9  C   UNL     1       1.347   4.438  20.663  0.00  0.00    +0.000 A 
ATOM     10  C   UNL     1       2.415   4.967  19.918  0.00  0.00    +0.000 A 
ATOM     11  C   UNL     1       3.010   4.050  19.034  0.00  0.00    +0.000 A 
BRANCH   3  12
ATOM     12  C   UNL     1       4.805   5.254  17.696  0.00  0.00    +0.000 C 
BRANCH  12  14
ATOM     13  N   UNL     1       6.804   4.184  16.806  0.00  0.00    +0.000 N 
ATOM     14  C   UNL     1       5.673   4.899  16.519  0.00  0.00    +0.000 C 
ATOM     15  O   UNL     1       5.382   5.215  15.368  0.00  0.00    +0.000 OA
ATOM     16  H   UNL     1       7.466   4.012  16.059  0.00  0.00    +0.000 HD
ATOM     17  H   UNL     1       7.156   4.133  17.762  0.00  0.00    +0.000 HD
ENDBRANCH  12  14
ENDBRANCH   3  12
ENDBRANCH   1  10
BRANCH   1  18
ATOM     18  C   UNL     1       2.167   7.481  19.689  0.00  0.00    +0.000 A 
ATOM     19  C   UNL     1       2.419   8.001  18.425  0.00  0.00    +0.000 A 
ATOM     20  C   UNL     1       1.801   9.187  18.064  0.00  0.00    +0.000 A 
ATOM     21  N   UNL     1       0.969   9.883  18.874  0.00  0.00    +0.000 NA
ATOM     22  C   UNL     1       0.741   9.390  20.115  0.00  0.00    +0.000 A 
ATOM     23  C   UNL     1       1.307   8.188  20.532  0.00  0.00    +0.000 A 
BRANCH  22  24
ATOM     24  C   UNL     1      -0.124  10.209  20.984  0.00  0.00    +0.000 A 
ATOM     25  C   UNL     1      -0.860  11.288  20.459  0.00  0.00    +0.000 A 
ATOM     26  C   UNL     1      -1.661  12.075  21.285  0.00  0.00    +0.000 A 
ATOM     27  F   UNL     1      -2.347  13.095  20.755  0.00  0.00    +0.000 F 
ATOM     28  C   UNL     1      -1.760  11.819  22.645  0.00  0.00    +0.000 A 
ATOM     29  C   UNL     1      -1.046  10.760  23.192  0.00  0.00    +0.000 A 
ATOM     30  C   UNL     1      -0.240   9.971  22.367  0.00  0.00    +0.000 A 
ATOM     31  F   UNL     1       0.451   8.981  22.953  0.00  0.00    +0.000 F 
ENDBRANCH  22  24
ENDBRANCH   1  18
TORSDOF 5
ENDMDL
MODEL 7
REMARK VINA RESULT:      -8.5      1.310      2.823
REMARK  Name = 
REMARK  5 active torsions:
REMARK  status: ('A' for Active; 'I' for Inactive)
REMARK    1  A    between atoms: C_2  and  C_4
REMARK    2  A    between atoms: C_4  and  N_5
REMARK    3  A    between atoms: C_12  and  N_13
REMARK    4  A    between atoms: N_13  and  C_14
REMARK    5  A    between atoms: C_18  and  C_19
REMARK                            x       y       z     vdW  Elec       q    Type
REMARK                         _______ _______ _______ _____ _____    ______ ____
ROOT
ATOM      1  N   UNL     1       2.954   6.389  19.660  0.00  0.00    +0.000 N 
ATOM      2  H   UNL     1       3.323   6.403  20.606  0.00  0.00    +0.000 HD
ENDROOT
BRANCH   1  10
ATOM      3  N   UNL     1       1.991   3.407  19.008  0.00  0.00    +0.000 N 
ATOM      4  N   UNL     1       1.856   2.192  18.415  0.00  0.00    +0.000 NA
ATOM      5  C   UNL     1       2.876   2.157  17.555  0.00  0.00    +0.000 A 
ATOM      6  C   UNL     1       3.632   3.340  17.568  0.00  0.00    +0.000 A 
ATOM      7  N   UNL     1       4.729   3.675  16.851  0.00  0.00    +0.000 NA
ATOM      8  C   UNL     1       5.205   4.905  17.103  0.00  0.00    +0.000 A 
ATOM      9  C   UNL     1       4.658   5.798  18.012  0.00  0.00    +0.000 A 
ATOM     10  C   UNL     1       3.518   5.463  18.763  0.00  0.00    +0.000 A 
ATOM     11  C   UNL     1       3.018   4.174  18.506  0.00  0.00    +0.000 A 
BRANCH   3  12
ATOM     12  C   UNL     1       1.063   3.730  20.069  0.00  0.00    +0.000 C 
BRANCH  12  14
ATOM     13  N   UNL     1       1.406   2.352  22.047  0.00  0.00    +0.000 N 
ATOM     14  C   UNL     1       1.714   3.523  21.409  0.00  0.00    +0.000 C 
ATOM     15  O   UNL     1       2.486   4.344  21.899  0.00  0.00    +0.000 OA
ATOM     16  H   UNL     1       1.742   2.218  22.993  0.00  0.00    +0.000 HD
ATOM     17  H   UNL     1       0.600   1.800  21.755  0.00  0.00    +0.000 HD
ENDBRANCH  12  14
ENDBRANCH   3  12
ENDBRANCH   1  10
BRANCH   1  18
ATOM     18  C   UNL     1       2.224   7.561  19.358  0.00  0.00    +0.000 A 
ATOM     19  C   UNL     1       2.215   8.051  18.057  0.00  0.00    +0.000 A 
ATOM     20  C   UNL     1       1.534   9.229  17.800  0.00  0.00    +0.000 A 
ATOM     21  N   UNL     1       0.882   9.947  18.744  0.00  0.00    +0.000 NA
ATOM     22  C   UNL     1       0.909   9.484  20.017  0.00  0.00    +0.000 A 
ATOM     23  C   UNL     1       1.550   8.291  20.340  0.00  0.00    +0.000 A 
BRANCH  22  24
ATOM     24  C   UNL     1       0.235  10.326  21.023  0.00  0.00    +0.000 A 
ATOM     25  C   UNL     1       0.334  11.729  20.972  0.00  0.00    +0.000 A 
ATOM     26  C   UNL     1      -0.285  12.523  21.935  0.00  0.00    +0.000 A 
ATOM     27  F   UNL     1      -0.172  13.856  21.859  0.00  0.00    +0.000 F 
ATOM     28  C   UNL     1      -1.018  11.960  22.970  0.00  0.00    +0.000 A 
ATOM     29  C   UNL     1      -1.133  10.577  23.045  0.00  0.00    +0.000 A 
ATOM     30  C   UNL     1      -0.511   9.777  22.083  0.00  0.00    +0.000 A 
ATOM     31  F   UNL     1      -0.630   8.448  22.223  0.00  0.00    +0.000 F 
ENDBRANCH  22  24
ENDBRANCH   1  18
TORSDOF 5
ENDMDL
MODEL 8
REMARK VINA RESULT:      -8.3      1.355      1.889
REMARK  Name = 
REMARK  5 active torsions:
REMARK  status: ('A' for Active; 'I' for Inactive)
REMARK    1  A    between atoms: C_2  and  C_4
REMARK    2  A    between atoms: C_4  and  N_5
REMARK    3  A    between atoms: C_12  and  N_13
REMARK    4  A    between atoms: N_13  and  C_14
REMARK    5  A    between atoms: C_18  and  C_19
REMARK                            x       y       z     vdW  Elec       q    Type
REMARK                         _______ _______ _______ _____ _____    ______ ____
ROOT
ATOM      1  N   UNL     1       2.641   6.539  20.135  0.00  0.00    +0.000 N 
ATOM      2  H   UNL     1       3.536   6.717  20.583  0.00  0.00    +0.000 HD
ENDROOT
BRANCH   1  10
ATOM      3  N   UNL     1       4.234   4.734  18.026  0.00  0.00    +0.000 N 
ATOM      4  N   UNL     1       4.669   3.669  17.304  0.00  0.00    +0.000 NA
ATOM      5  C   UNL     1       3.777   2.719  17.594  0.00  0.00    +0.000 A 
ATOM      6  C   UNL     1       2.808   3.153  18.513  0.00  0.00    +0.000 A 
ATOM      7  N   UNL     1       1.754   2.488  19.039  0.00  0.00    +0.000 NA
ATOM      8  C   UNL     1       1.022   3.203  19.908  0.00  0.00    +0.000 A 
ATOM      9  C   UNL     1       1.279   4.516  20.273  0.00  0.00    +0.000 A 
ATOM     10  C   UNL     1       2.372   5.218  19.734  0.00  0.00    +0.000 A 
ATOM     11  C   UNL     1       3.139   4.475  18.819  0.00  0.00    +0.000 A 
BRANCH   3  12
ATOM     12  C   UNL     1       4.957   5.977  17.870  0.00  0.00    +0.000 C 
BRANCH  12  14
ATOM     13  N   UNL     1       6.919   5.353  16.568  0.00  0.00    +0.000 N 
ATOM     14  C   UNL     1       5.703   5.983  16.564  0.00  0.00    +0.000 C 
ATOM     15  O   UNL     1       5.248   6.505  15.549  0.00  0.00    +0.000 OA
ATOM     16  H   UNL     1       7.497   5.420  15.739  0.00  0.00    +0.000 HD
ATOM     17  H   UNL     1       7.387   5.137  17.447  0.00  0.00    +0.000 HD
ENDBRANCH  12  14
ENDBRANCH   3  12
ENDBRANCH   1  10
BRANCH   1  18
ATOM     18  C   UNL     1       2.032   7.730  19.677  0.00  0.00    +0.000 A 
ATOM     19  C   UNL     1       2.083   8.054  18.326  0.00  0.00    +0.000 A 
ATOM     20  C   UNL     1       1.524   9.251  17.913  0.00  0.00    +0.000 A 
ATOM     21  N   UNL     1       0.936  10.140  18.748  0.00  0.00    +0.000 NA
ATOM     22  C   UNL     1       0.906   9.838  20.068  0.00  0.00    +0.000 A 
ATOM     23  C   UNL     1       1.424   8.637  20.548  0.00  0.00    +0.000 A 
BRANCH  22  24
ATOM     24  C   UNL     1       0.309  10.858  20.949  0.00  0.00    +0.000 A 
ATOM     25  C   UNL     1      -0.678  10.511  21.890  0.00  0.00    +0.000 A 
ATOM     26  C   UNL     1      -1.257  11.479  22.708  0.00  0.00    +0.000 A 
ATOM     27  F   UNL     1      -2.195  11.116  23.592  0.00  0.00    +0.000 F 
ATOM     28  C   UNL     1      -0.879  12.811  22.623  0.00  0.00    +0.000 A 
ATOM     29  C   UNL     1       0.094  13.185  21.704  0.00  0.00    +0.000 A 
ATOM     30  C   UNL     1       0.674  12.217  20.880  0.00  0.00    +0.000 A 
ATOM     31  F   UNL     1       1.586  12.638  19.991  0.00  0.00    +0.000 F 
ENDBRANCH  22  24
ENDBRANCH   1  18
TORSDOF 5
ENDMDL
MODEL 9
REMARK VINA RESULT:      -8.2      1.597      1.727
REMARK  Name = 
REMARK  5 active torsions:
REMARK  status: ('A' for Active; 'I' for Inactive)
REMARK    1  A    between atoms: C_2  and  C_4
REMARK    2  A    between atoms: C_4  and  N_5
REMARK    3  A    between atoms: C_12  and  N_13
REMARK    4  A    between atoms: N_13  and  C_14
REMARK    5  A    between atoms: C_18  and  C_19
REMARK                            x       y       z     vdW  Elec       q    Type
REMARK                         _______ _______ _______ _____ _____    ______ ____
ROOT
ATOM      1  N   UNL     1       2.715   6.457  20.352  0.00  0.00    +0.000 N 
ATOM      2  H   UNL     1       3.573   6.715  20.831  0.00  0.00    +0.000 HD
ENDROOT
BRANCH   1  10
ATOM      3  N   UNL     1       4.672   4.081  19.471  0.00  0.00    +0.000 N 
ATOM      4  N   UNL     1       5.183   2.843  19.247  0.00  0.00    +0.000 NA
ATOM      5  C   UNL     1       4.135   2.040  19.445  0.00  0.00    +0.000 A 
ATOM      6  C   UNL     1       2.981   2.745  19.824  0.00  0.00    +0.000 A 
ATOM      7  N   UNL     1       1.740   2.286  20.105  0.00  0.00    +0.000 NA
ATOM      8  C   UNL     1       0.859   3.239  20.449  0.00  0.00    +0.000 A 
ATOM      9  C   UNL     1       1.144   4.594  20.528  0.00  0.00    +0.000 A 
ATOM     10  C   UNL     1       2.430   5.083  20.240  0.00  0.00    +0.000 A 
ATOM     11  C   UNL     1       3.355   4.090  19.873  0.00  0.00    +0.000 A 
BRANCH   3  12
ATOM     12  C   UNL     1       5.554   5.208  19.260  0.00  0.00    +0.000 C 
BRANCH  12  14
ATOM     13  N   UNL     1       7.117   4.385  17.583  0.00  0.00    +0.000 N 
ATOM     14  C   UNL     1       6.059   5.213  17.842  0.00  0.00    +0.000 C 
ATOM     15  O   UNL     1       5.547   5.904  16.965  0.00  0.00    +0.000 OA
ATOM     16  H   UNL     1       7.551   4.433  16.669  0.00  0.00    +0.000 HD
ATOM     17  H   UNL     1       7.677   4.007  18.346  0.00  0.00    +0.000 HD
ENDBRANCH  12  14
ENDBRANCH   3  12
ENDBRANCH   1  10
BRANCH   1  18
ATOM     18  C   UNL     1       2.197   7.521  19.579  0.00  0.00    +0.000 A 
ATOM     19  C   UNL     1       2.681   7.736  18.294  0.00  0.00    +0.000 A 
ATOM     20  C   UNL     1       2.193   8.817  17.578  0.00  0.00    +0.000 A 
ATOM     21  N   UNL     1       1.276   9.690  18.058  0.00  0.00    +0.000 NA
ATOM     22  C   UNL     1       0.821   9.495  19.318  0.00  0.00    +0.000 A 
ATOM     23  C   UNL     1       1.247   8.412  20.083  0.00  0.00    +0.000 A 
BRANCH  22  24
ATOM     24  C   UNL     1      -0.132  10.502  19.822  0.00  0.00    +0.000 A 
ATOM     25  C   UNL     1      -1.253  10.879  19.059  0.00  0.00    +0.000 A 
ATOM     26  C   UNL     1      -2.142  11.846  19.526  0.00  0.00    +0.000 A 
ATOM     27  F   UNL     1      -3.199  12.183  18.776  0.00  0.00    +0.000 F 
ATOM     28  C   UNL     1      -1.952  12.463  20.754  0.00  0.00    +0.000 A 
ATOM     29  C   UNL     1      -0.854  12.111  21.530  0.00  0.00    +0.000 A 
ATOM     30  C   UNL     1       0.040  11.145  21.063  0.00  0.00    +0.000 A 
ATOM     31  F   UNL     1       1.098  10.866  21.839  0.00  0.00    +0.000 F 
ENDBRANCH  22  24
ENDBRANCH   1  18
TORSDOF 5
ENDMDL
