MODEL 1
REMARK VINA RESULT:      -7.9      0.000      0.000
REMARK  Name = 
REMARK  12 active torsions:
REMARK  status: ('A' for Active; 'I' for Inactive)
REMARK    1  A    between atoms: C_1  and  O_2
REMARK    2  A    between atoms: O_2  and  C_3
REMARK    3  A    between atoms: C_5  and  C_6
REMARK    4  A    between atoms: C_6  and  O_7
REMARK    5  A    between atoms: O_7  and  C_8
REMARK    6  A    between atoms: C_8  and  C_10
REMARK    7  A    between atoms: C_13  and  C_14
REMARK    8  A    between atoms: C_16  and  C_17
REMARK    9  A    between atoms: C_27  and  O_28
REMARK   10  A    between atoms: O_28  and  C_29
REMARK   11  A    between atoms: C_30  and  O_31
REMARK   12  A    between atoms: O_31  and  C_32
REMARK                            x       y       z     vdW  Elec       q    Type
REMARK                         _______ _______ _______ _____ _____    ______ ____
ROOT
ATOM      1  C   UNL     1       1.327  10.007  18.881  0.00  0.00    +0.000 C 
ATOM      2  O   UNL     1       1.828  10.682  17.990  0.00  0.00    +0.000 OA
ENDROOT
BRANCH   1   3
ATOM      3  C   UNL     1       1.758   8.676  19.245  0.00  0.00    +0.000 A 
ATOM      4  C   UNL     1       1.592   7.967  20.421  0.00  0.00    +0.000 A 
ATOM      5  C   UNL     1       2.233   6.715  20.238  0.00  0.00    +0.000 A 
ATOM      6  C   UNL     1       2.759   6.719  18.961  0.00  0.00    +0.000 A 
ATOM      7  O   UNL     1       2.442   7.898  18.349  0.00  0.00    +0.000 OA
BRANCH   6   8
ATOM      8  C   UNL     1       3.497   5.739  18.159  0.00  0.00    +0.000 A 
ATOM      9  C   UNL     1       4.853   5.994  17.864  0.00  0.00    +0.000 A 
ATOM     10  C   UNL     1       5.636   5.089  17.123  0.00  0.00    +0.000 A 
ATOM     11  C   UNL     1       5.055   3.896  16.680  0.00  0.00    +0.000 A 
ATOM     12  C   UNL     1       3.711   3.634  16.939  0.00  0.00    +0.000 A 
ATOM     13  C   UNL     1       2.932   4.553  17.654  0.00  0.00    +0.000 A 
ATOM     14 CL   UNL     1       1.256   4.168  17.795  0.00  0.00    +0.000 Cl
BRANCH  10  15
ATOM     15  C   UNL     1       7.081   5.382  16.795  0.00  0.00    +0.000 C 
ATOM     16  F   UNL     1       7.484   6.623  17.183  0.00  0.00    +0.000 F 
ATOM     17  F   UNL     1       7.936   4.505  17.386  0.00  0.00    +0.000 F 
ATOM     18  F   UNL     1       7.331   5.308  15.459  0.00  0.00    +0.000 F 
ENDBRANCH  10  15
ENDBRANCH   6   8
ENDBRANCH   1   3
BRANCH   1  19
ATOM     19  O   UNL     1       0.290  10.402  19.669  0.00  0.00    +0.000 OA
BRANCH  19  20
ATOM     20  C   UNL     1      -0.169  11.748  19.500  0.00  0.00    +0.000 C 
BRANCH  20  23
ATOM     21  C   UNL     1      -3.363  11.050  17.496  0.00  0.00    +0.000 A 
ATOM     22  C   UNL     1      -2.004  11.166  17.840  0.00  0.00    +0.000 A 
ATOM     23  C   UNL     1      -1.604  11.784  19.025  0.00  0.00    +0.000 A 
ATOM     24  C   UNL     1      -2.592  12.351  19.834  0.00  0.00    +0.000 A 
ATOM     25  C   UNL     1      -3.954  12.309  19.481  0.00  0.00    +0.000 A 
ATOM     26  C   UNL     1      -4.357  11.647  18.302  0.00  0.00    +0.000 A 
BRANCH  21  28
ATOM     27  C   UNL     1      -3.027  10.732  15.172  0.00  0.00    +0.000 C 
ATOM     28  O   UNL     1      -3.734  10.377  16.358  0.00  0.00    +0.000 OA
ENDBRANCH  21  28
BRANCH  25  29
ATOM     29  O   UNL     1      -4.730  12.937  20.425  0.00  0.00    +0.000 OA
ATOM     30  C   UNL     1      -4.497  14.305  20.721  0.00  0.00    +0.000 C 
ENDBRANCH  25  29
BRANCH  26  31
ATOM     31  O   UNL     1      -5.700  11.653  18.034  0.00  0.00    +0.000 OA
ATOM     32  C   UNL     1      -6.576  10.759  18.701  0.00  0.00    +0.000 C 
ENDBRANCH  26  31
ENDBRANCH  20  23
ENDBRANCH  19  20
ENDBRANCH   1  19
TORSDOF 9
ENDMDL
MODEL 2
REMARK VINA RESULT:      -7.9      2.837      3.368
REMARK  Name = 
REMARK  12 active torsions:
REMARK  status: ('A' for Active; 'I' for Inactive)
REMARK    1  A    between atoms: C_1  and  O_2
REMARK    2  A    between atoms: O_2  and  C_3
REMARK    3  A    between atoms: C_5  and  C_6
REMARK    4  A    between atoms: C_6  and  O_7
REMARK    5  A    between atoms: O_7  and  C_8
REMARK    6  A    between atoms: C_8  and  C_10
REMARK    7  A    between atoms: C_13  and  C_14
REMARK    8  A    between atoms: C_16  and  C_17
REMARK    9  A    between atoms: C_27  and  O_28
REMARK   10  A    between atoms: O_28  and  C_29
REMARK   11  A    between atoms: C_30  and  O_31
REMARK   12  A    between atoms: O_31  and  C_32
REMARK                            x       y       z     vdW  Elec       q    Type
REMARK                         _______ _______ _______ _____ _____    ______ ____
ROOT
ATOM      1  C   UNL     1       0.541  10.038  19.894  0.00  0.00    +0.000 C 
ATOM      2  O   UNL     1       0.212   9.781  21.046  0.00  0.00    +0.000 OA
ENDROOT
BRANCH   1   3
ATOM      3  C   UNL     1       1.386   9.199  19.074  0.00  0.00    +0.000 A 
ATOM      4  C   UNL     1       1.884   9.399  17.799  0.00  0.00    +0.000 A 
ATOM      5  C   UNL     1       2.641   8.244  17.471  0.00  0.00    +0.000 A 
ATOM      6  C   UNL     1       2.569   7.397  18.559  0.00  0.00    +0.000 A 
ATOM      7  O   UNL     1       1.832   7.993  19.543  0.00  0.00    +0.000 OA
BRANCH   6   8
ATOM      8  C   UNL     1       3.143   6.085  18.870  0.00  0.00    +0.000 A 
ATOM      9  C   UNL     1       2.380   5.181  19.639  0.00  0.00    +0.000 A 
ATOM     10  C   UNL     1       2.850   3.893  19.956  0.00  0.00    +0.000 A 
ATOM     11  C   UNL     1       4.105   3.494  19.481  0.00  0.00    +0.000 A 
ATOM     12  C   UNL     1       4.885   4.378  18.740  0.00  0.00    +0.000 A 
ATOM     13  C   UNL     1       4.421   5.668  18.453  0.00  0.00    +0.000 A 
ATOM     14 CL   UNL     1       5.535   6.704  17.638  0.00  0.00    +0.000 Cl
BRANCH  10  15
ATOM     15  C   UNL     1       2.034   2.941  20.798  0.00  0.00    +0.000 C 
ATOM     16  F   UNL     1       1.708   1.788  20.152  0.00  0.00    +0.000 F 
ATOM     17  F   UNL     1       2.682   2.568  21.935  0.00  0.00    +0.000 F 
ATOM     18  F   UNL     1       0.855   3.491  21.201  0.00  0.00    +0.000 F 
ENDBRANCH  10  15
ENDBRANCH   6   8
ENDBRANCH   1   3
BRANCH   1  19
ATOM     19  O   UNL     1       0.163  11.149  19.204  0.00  0.00    +0.000 OA
BRANCH  19  20
ATOM     20  C   UNL     1      -0.689  12.073  19.892  0.00  0.00    +0.000 C 
BRANCH  20  23
ATOM     21  C   UNL     1      -3.671  11.400  17.576  0.00  0.00    +0.000 A 
ATOM     22  C   UNL     1      -2.352  11.561  18.038  0.00  0.00    +0.000 A 
ATOM     23  C   UNL     1      -2.084  12.071  19.309  0.00  0.00    +0.000 A 
ATOM     24  C   UNL     1      -3.166  12.486  20.089  0.00  0.00    +0.000 A 
ATOM     25  C   UNL     1      -4.492  12.399  19.626  0.00  0.00    +0.000 A 
ATOM     26  C   UNL     1      -4.761  11.844  18.356  0.00  0.00    +0.000 A 
BRANCH  21  28
ATOM     27  C   UNL     1      -2.751  10.497  15.588  0.00  0.00    +0.000 C 
ATOM     28  O   UNL     1      -3.909  10.831  16.349  0.00  0.00    +0.000 OA
ENDBRANCH  21  28
BRANCH  25  29
ATOM     29  O   UNL     1      -5.377  12.872  20.563  0.00  0.00    +0.000 OA
ATOM     30  C   UNL     1      -5.726  14.248  20.562  0.00  0.00    +0.000 C 
ENDBRANCH  25  29
BRANCH  26  31
ATOM     31  O   UNL     1      -6.077  11.795  17.983  0.00  0.00    +0.000 OA
ATOM     32  C   UNL     1      -6.648  12.830  17.200  0.00  0.00    +0.000 C 
ENDBRANCH  26  31
ENDBRANCH  20  23
ENDBRANCH  19  20
ENDBRANCH   1  19
TORSDOF 9
ENDMDL
MODEL 3
REMARK VINA RESULT:      -7.8      1.067      2.660
REMARK  Name = 
REMARK  12 active torsions:
REMARK  status: ('A' for Active; 'I' for Inactive)
REMARK    1  A    between atoms: C_1  and  O_2
REMARK    2  A    between atoms: O_2  and  C_3
REMARK    3  A    between atoms: C_5  and  C_6
REMARK    4  A    between atoms: C_6  and  O_7
REMARK    5  A    between atoms: O_7  and  C_8
REMARK    6  A    between atoms: C_8  and  C_10
REMARK    7  A    between atoms: C_13  and  C_14
REMARK    8  A    between atoms: C_16  and  C_17
REMARK    9  A    between atoms: C_27  and  O_28
REMARK   10  A    between atoms: O_28  and  C_29
REMARK   11  A    between atoms: C_30  and  O_31
REMARK   12  A    between atoms: O_31  and  C_32
REMARK                            x       y       z     vdW  Elec       q    Type
REMARK                         _______ _______ _______ _____ _____    ______ ____
ROOT
ATOM      1  C   UNL     1       1.518   9.843  18.219  0.00  0.00    +0.000 C 
ATOM      2  O   UNL     1       2.376  10.631  17.839  0.00  0.00    +0.000 OA
ENDROOT
BRANCH   1   3
ATOM      3  C   UNL     1       1.791   8.578  18.863  0.00  0.00    +0.000 A 
ATOM      4  C   UNL     1       1.617   8.182  20.177  0.00  0.00    +0.000 A 
ATOM      5  C   UNL     1       2.068   6.840  20.262  0.00  0.00    +0.000 A 
ATOM      6  C   UNL     1       2.495   6.481  18.999  0.00  0.00    +0.000 A 
ATOM      7  O   UNL     1       2.297   7.528  18.145  0.00  0.00    +0.000 OA
BRANCH   6   8
ATOM      8  C   UNL     1       3.034   5.249  18.416  0.00  0.00    +0.000 A 
ATOM      9  C   UNL     1       4.156   5.342  17.566  0.00  0.00    +0.000 A 
ATOM     10  C   UNL     1       4.748   4.202  16.990  0.00  0.00    +0.000 A 
ATOM     11  C   UNL     1       4.217   2.941  17.282  0.00  0.00    +0.000 A 
ATOM     12  C   UNL     1       3.095   2.828  18.100  0.00  0.00    +0.000 A 
ATOM     13  C   UNL     1       2.495   3.970  18.648  0.00  0.00    +0.000 A 
ATOM     14 CL   UNL     1       1.041   3.702  19.537  0.00  0.00    +0.000 Cl
BRANCH  10  15
ATOM     15  C   UNL     1       5.936   4.314  16.063  0.00  0.00    +0.000 C 
ATOM     16  F   UNL     1       6.023   3.292  15.167  0.00  0.00    +0.000 F 
ATOM     17  F   UNL     1       5.915   5.459  15.329  0.00  0.00    +0.000 F 
ATOM     18  F   UNL     1       7.118   4.322  16.738  0.00  0.00    +0.000 F 
ENDBRANCH  10  15
ENDBRANCH   6   8
ENDBRANCH   1   3
BRANCH   1  19
ATOM     19  O   UNL     1       0.176  10.034  18.099  0.00  0.00    +0.000 OA
BRANCH  19  20
ATOM     20  C   UNL     1      -0.374  11.175  18.769  0.00  0.00    +0.000 C 
BRANCH  20  23
ATOM     21  C   UNL     1      -4.059  12.162  19.157  0.00  0.00    +0.000 A 
ATOM     22  C   UNL     1      -2.707  11.912  19.457  0.00  0.00    +0.000 A 
ATOM     23  C   UNL     1      -1.865  11.279  18.542  0.00  0.00    +0.000 A 
ATOM     24  C   UNL     1      -2.420  10.834  17.340  0.00  0.00    +0.000 A 
ATOM     25  C   UNL     1      -3.784  11.010  17.042  0.00  0.00    +0.000 A 
ATOM     26  C   UNL     1      -4.623  11.687  17.953  0.00  0.00    +0.000 A 
BRANCH  21  28
ATOM     27  C   UNL     1      -4.189  13.853  20.811  0.00  0.00    +0.000 C 
ATOM     28  O   UNL     1      -4.850  12.848  20.045  0.00  0.00    +0.000 OA
ENDBRANCH  21  28
BRANCH  25  29
ATOM     29  O   UNL     1      -4.094  10.484  15.812  0.00  0.00    +0.000 OA
ATOM     30  C   UNL     1      -3.086  10.391  14.818  0.00  0.00    +0.000 C 
ENDBRANCH  25  29
BRANCH  26  31
ATOM     31  O   UNL     1      -5.936  11.816  17.584  0.00  0.00    +0.000 OA
ATOM     32  C   UNL     1      -6.419  13.030  17.035  0.00  0.00    +0.000 C 
ENDBRANCH  26  31
ENDBRANCH  20  23
ENDBRANCH  19  20
ENDBRANCH   1  19
TORSDOF 9
ENDMDL
MODEL 4
REMARK VINA RESULT:      -7.8      5.938      9.979
REMARK  Name = 
REMARK  12 active torsions:
REMARK  status: ('A' for Active; 'I' for Inactive)
REMARK    1  A    between atoms: C_1  and  O_2
REMARK    2  A    between atoms: O_2  and  C_3
REMARK    3  A    between atoms: C_5  and  C_6
REMARK    4  A    between atoms: C_6  and  O_7
REMARK    5  A    between atoms: O_7  and  C_8
REMARK    6  A    between atoms: C_8  and  C_10
REMARK    7  A    between atoms: C_13  and  C_14
REMARK    8  A    between atoms: C_16  and  C_17
REMARK    9  A    between atoms: C_27  and  O_28
REMARK   10  A    between atoms: O_28  and  C_29
REMARK   11  A    between atoms: C_30  and  O_31
REMARK   12  A    between atoms: O_31  and  C_32
REMARK                            x       y       z     vdW  Elec       q    Type
REMARK                         _______ _______ _______ _____ _____    ______ ____
ROOT
ATOM      1  C   UNL     1       4.456   2.750  20.005  0.00  0.00    +0.000 C 
ATOM      2  O   UNL     1       4.780   1.780  20.678  0.00  0.00    +0.000 OA
ENDROOT
BRANCH   1   3
ATOM      3  C   UNL     1       3.219   3.483  20.160  0.00  0.00    +0.000 A 
ATOM      4  C   UNL     1       1.933   3.035  20.397  0.00  0.00    +0.000 A 
ATOM      5  C   UNL     1       1.101   4.183  20.440  0.00  0.00    +0.000 A 
ATOM      6  C   UNL     1       1.918   5.276  20.228  0.00  0.00    +0.000 A 
ATOM      7  O   UNL     1       3.209   4.850  20.090  0.00  0.00    +0.000 OA
BRANCH   6   8
ATOM      8  C   UNL     1       1.695   6.724  20.183  0.00  0.00    +0.000 A 
ATOM      9  C   UNL     1       0.994   7.330  21.247  0.00  0.00    +0.000 A 
ATOM     10  C   UNL     1       0.765   8.719  21.289  0.00  0.00    +0.000 A 
ATOM     11  C   UNL     1       1.259   9.520  20.254  0.00  0.00    +0.000 A 
ATOM     12  C   UNL     1       1.933   8.939  19.182  0.00  0.00    +0.000 A 
ATOM     13  C   UNL     1       2.134   7.553  19.134  0.00  0.00    +0.000 A 
ATOM     14 CL   UNL     1       2.869   6.949  17.694  0.00  0.00    +0.000 Cl
BRANCH  10  15
ATOM     15  C   UNL     1      -0.006   9.356  22.422  0.00  0.00    +0.000 C 
ATOM     16  F   UNL     1      -0.495  10.590  22.119  0.00  0.00    +0.000 F 
ATOM     17  F   UNL     1      -1.077   8.608  22.806  0.00  0.00    +0.000 F 
ATOM     18  F   UNL     1       0.757   9.519  23.537  0.00  0.00    +0.000 F 
ENDBRANCH  10  15
ENDBRANCH   6   8
ENDBRANCH   1   3
BRANCH   1  19
ATOM     19  O   UNL     1       5.207   3.293  19.008  0.00  0.00    +0.000 OA
BRANCH  19  20
ATOM     20  C   UNL     1       4.542   3.539  17.763  0.00  0.00    +0.000 C 
BRANCH  20  23
ATOM     21  C   UNL     1       6.363   3.939  14.412  0.00  0.00    +0.000 A 
ATOM     22  C   UNL     1       5.586   3.393  15.450  0.00  0.00    +0.000 A 
ATOM     23  C   UNL     1       5.515   4.002  16.703  0.00  0.00    +0.000 A 
ATOM     24  C   UNL     1       6.297   5.139  16.923  0.00  0.00    +0.000 A 
ATOM     25  C   UNL     1       7.135   5.668  15.924  0.00  0.00    +0.000 A 
ATOM     26  C   UNL     1       7.172   5.072  14.645  0.00  0.00    +0.000 A 
BRANCH  21  28
ATOM     27  C   UNL     1       5.128   3.430  12.455  0.00  0.00    +0.000 C 
ATOM     28  O   UNL     1       6.361   3.359  13.167  0.00  0.00    +0.000 OA
ENDBRANCH  21  28
BRANCH  25  29
ATOM     29  O   UNL     1       7.807   6.778  16.377  0.00  0.00    +0.000 OA
ATOM     30  C   UNL     1       7.375   7.417  17.569  0.00  0.00    +0.000 C 
ENDBRANCH  25  29
BRANCH  26  31
ATOM     31  O   UNL     1       8.013   5.651  13.733  0.00  0.00    +0.000 OA
ATOM     32  C   UNL     1       7.750   5.556  12.343  0.00  0.00    +0.000 C 
ENDBRANCH  26  31
ENDBRANCH  20  23
ENDBRANCH  19  20
ENDBRANCH   1  19
TORSDOF 9
ENDMDL
MODEL 5
REMARK VINA RESULT:      -7.7      3.785      5.480
REMARK  Name = 
REMARK  12 active torsions:
REMARK  status: ('A' for Active; 'I' for Inactive)
REMARK    1  A    between atoms: C_1  and  O_2
REMARK    2  A    between atoms: O_2  and  C_3
REMARK    3  A    between atoms: C_5  and  C_6
REMARK    4  A    between atoms: C_6  and  O_7
REMARK    5  A    between atoms: O_7  and  C_8
REMARK    6  A    between atoms: C_8  and  C_10
REMARK    7  A    between atoms: C_13  and  C_14
REMARK    8  A    between atoms: C_16  and  C_17
REMARK    9  A    between atoms: C_27  and  O_28
REMARK   10  A    between atoms: O_28  and  C_29
REMARK   11  A    between atoms: C_30  and  O_31
REMARK   12  A    between atoms: O_31  and  C_32
REMARK                            x       y       z     vdW  Elec       q    Type
REMARK                         _______ _______ _______ _____ _____    ______ ____
ROOT
ATOM      1  C   UNL     1       2.161   4.425  20.862  0.00  0.00    +0.000 C 
ATOM      2  O   UNL     1       2.295   3.639  21.792  0.00  0.00    +0.000 OA
ENDROOT
BRANCH   1   3
ATOM      3  C   UNL     1       2.447   4.119  19.478  0.00  0.00    +0.000 A 
ATOM      4  C   UNL     1       1.663   3.517  18.511  0.00  0.00    +0.000 A 
ATOM      5  C   UNL     1       2.451   3.448  17.333  0.00  0.00    +0.000 A 
ATOM      6  C   UNL     1       3.674   4.010  17.636  0.00  0.00    +0.000 A 
ATOM      7  O   UNL     1       3.658   4.445  18.931  0.00  0.00    +0.000 OA
BRANCH   6   8
ATOM      8  C   UNL     1       4.896   4.270  16.870  0.00  0.00    +0.000 A 
ATOM      9  C   UNL     1       4.913   3.946  15.497  0.00  0.00    +0.000 A 
ATOM     10  C   UNL     1       6.039   4.191  14.689  0.00  0.00    +0.000 A 
ATOM     11  C   UNL     1       7.168   4.788  15.261  0.00  0.00    +0.000 A 
ATOM     12  C   UNL     1       7.182   5.095  16.620  0.00  0.00    +0.000 A 
ATOM     13  C   UNL     1       6.067   4.823  17.423  0.00  0.00    +0.000 A 
ATOM     14 CL   UNL     1       6.261   5.133  19.110  0.00  0.00    +0.000 Cl
BRANCH  10  15
ATOM     15  C   UNL     1       6.053   3.819  13.224  0.00  0.00    +0.000 C 
ATOM     16  F   UNL     1       6.350   2.510  13.000  0.00  0.00    +0.000 F 
ATOM     17  F   UNL     1       4.855   4.044  12.620  0.00  0.00    +0.000 F 
ATOM     18  F   UNL     1       6.970   4.538  12.520  0.00  0.00    +0.000 F 
ENDBRANCH  10  15
ENDBRANCH   6   8
ENDBRANCH   1   3
BRANCH   1  19
ATOM     19  O   UNL     1       1.721   5.708  20.983  0.00  0.00    +0.000 OA
BRANCH  19  20
ATOM     20  C   UNL     1       2.199   6.646  20.011  0.00  0.00    +0.000 C 
BRANCH  20  23
ATOM     21  C   UNL     1       0.794   9.771  21.732  0.00  0.00    +0.000 A 
ATOM     22  C   UNL     1       1.175   8.438  21.495  0.00  0.00    +0.000 A 
ATOM     23  C   UNL     1       1.607   8.018  20.236  0.00  0.00    +0.000 A 
ATOM     24  C   UNL     1       1.585   8.947  19.193  0.00  0.00    +0.000 A 
ATOM     25  C   UNL     1       1.144  10.270  19.386  0.00  0.00    +0.000 A 
ATOM     26  C   UNL     1       0.747  10.701  20.670  0.00  0.00    +0.000 A 
BRANCH  21  28
ATOM     27  C   UNL     1      -0.963  10.259  23.246  0.00  0.00    +0.000 C 
ATOM     28  O   UNL     1       0.438  10.175  22.996  0.00  0.00    +0.000 OA
ENDBRANCH  21  28
BRANCH  25  29
ATOM     29  O   UNL     1       1.206  10.988  18.217  0.00  0.00    +0.000 OA
ATOM     30  C   UNL     1       2.415  11.641  17.862  0.00  0.00    +0.000 C 
ENDBRANCH  25  29
BRANCH  26  31
ATOM     31  O   UNL     1       0.334  12.003  20.770  0.00  0.00    +0.000 OA
ATOM     32  C   UNL     1       1.266  13.042  21.016  0.00  0.00    +0.000 C 
ENDBRANCH  26  31
ENDBRANCH  20  23
ENDBRANCH  19  20
ENDBRANCH   1  19
TORSDOF 9
ENDMDL
MODEL 6
REMARK VINA RESULT:      -7.7      2.864      4.866
REMARK  Name = 
REMARK  12 active torsions:
REMARK  status: ('A' for Active; 'I' for Inactive)
REMARK    1  A    between atoms: C_1  and  O_2
REMARK    2  A    between atoms: O_2  and  C_3
REMARK    3  A    between atoms: C_5  and  C_6
REMARK    4  A    between atoms: C_6  and  O_7
REMARK    5  A    between atoms: O_7  and  C_8
REMARK    6  A    between atoms: C_8  and  C_10
REMARK    7  A    between atoms: C_13  and  C_14
REMARK    8  A    between atoms: C_16  and  C_17
REMARK    9  A    between atoms: C_27  and  O_28
REMARK   10  A    between atoms: O_28  and  C_29
REMARK   11  A    between atoms: C_30  and  O_31
REMARK   12  A    between atoms: O_31  and  C_32
REMARK                            x       y       z     vdW  Elec       q    Type
REMARK                         _______ _______ _______ _____ _____    ______ ____
ROOT
ATOM      1  C   UNL     1       2.301   6.173  19.097  0.00  0.00    +0.000 C 
ATOM      2  O   UNL     1       2.162   6.185  20.314  0.00  0.00    +0.000 OA
ENDROOT
BRANCH   1   3
ATOM      3  C   UNL     1       2.989   5.137  18.359  0.00  0.00    +0.000 A 
ATOM      4  C   UNL     1       2.878   3.760  18.428  0.00  0.00    +0.000 A 
ATOM      5  C   UNL     1       3.804   3.228  17.493  0.00  0.00    +0.000 A 
ATOM      6  C   UNL     1       4.434   4.304  16.900  0.00  0.00    +0.000 A 
ATOM      7  O   UNL     1       3.915   5.462  17.405  0.00  0.00    +0.000 OA
BRANCH   6   8
ATOM      8  C   UNL     1       5.450   4.441  15.852  0.00  0.00    +0.000 A 
ATOM      9  C   UNL     1       5.188   3.885  14.583  0.00  0.00    +0.000 A 
ATOM     10  C   UNL     1       6.102   3.999  13.518  0.00  0.00    +0.000 A 
ATOM     11  C   UNL     1       7.298   4.696  13.722  0.00  0.00    +0.000 A 
ATOM     12  C   UNL     1       7.588   5.233  14.975  0.00  0.00    +0.000 A 
ATOM     13  C   UNL     1       6.684   5.092  16.037  0.00  0.00    +0.000 A 
ATOM     14 CL   UNL     1       7.220   5.690  17.564  0.00  0.00    +0.000 Cl
BRANCH  10  15
ATOM     15  C   UNL     1       5.821   3.381  12.168  0.00  0.00    +0.000 C 
ATOM     16  F   UNL     1       5.849   2.019  12.179  0.00  0.00    +0.000 F 
ATOM     17  F   UNL     1       4.599   3.730  11.682  0.00  0.00    +0.000 F 
ATOM     18  F   UNL     1       6.725   3.766  11.227  0.00  0.00    +0.000 F 
ENDBRANCH  10  15
ENDBRANCH   6   8
ENDBRANCH   1   3
BRANCH   1  19
ATOM     19  O   UNL     1       1.831   7.127  18.248  0.00  0.00    +0.000 OA
BRANCH  19  20
ATOM     20  C   UNL     1       2.273   8.469  18.481  0.00  0.00    +0.000 C 
BRANCH  20  23
ATOM     21  C   UNL     1       0.174  10.518  20.951  0.00  0.00    +0.000 A 
ATOM     22  C   UNL     1       1.095   9.587  20.436  0.00  0.00    +0.000 A 
ATOM     23  C   UNL     1       1.169   9.317  19.069  0.00  0.00    +0.000 A 
ATOM     24  C   UNL     1       0.250   9.948  18.227  0.00  0.00    +0.000 A 
ATOM     25  C   UNL     1      -0.726  10.831  18.723  0.00  0.00    +0.000 A 
ATOM     26  C   UNL     1      -0.771  11.133  20.101  0.00  0.00    +0.000 A 
BRANCH  21  28
ATOM     27  C   UNL     1      -0.652   9.985  23.106  0.00  0.00    +0.000 C 
ATOM     28  O   UNL     1       0.169  10.818  22.291  0.00  0.00    +0.000 OA
ENDBRANCH  21  28
BRANCH  25  29
ATOM     29  O   UNL     1      -1.516  11.317  17.709  0.00  0.00    +0.000 OA
ATOM     30  C   UNL     1      -2.719  10.642  17.377  0.00  0.00    +0.000 C 
ENDBRANCH  25  29
BRANCH  26  31
ATOM     31  O   UNL     1      -1.750  12.003  20.498  0.00  0.00    +0.000 OA
ATOM     32  C   UNL     1      -1.513  13.401  20.522  0.00  0.00    +0.000 C 
ENDBRANCH  26  31
ENDBRANCH  20  23
ENDBRANCH  19  20
ENDBRANCH   1  19
TORSDOF 9
ENDMDL
MODEL 7
REMARK VINA RESULT:      -7.7      2.518      4.185
REMARK  Name = 
REMARK  12 active torsions:
REMARK  status: ('A' for Active; 'I' for Inactive)
REMARK    1  A    between atoms: C_1  and  O_2
REMARK    2  A    between atoms: O_2  and  C_3
REMARK    3  A    between atoms: C_5  and  C_6
REMARK    4  A    between atoms: C_6  and  O_7
REMARK    5  A    between atoms: O_7  and  C_8
REMARK    6  A    between atoms: C_8  and  C_10
REMARK    7  A    between atoms: C_13  and  C_14
REMARK    8  A    between atoms: C_16  and  C_17
REMARK    9  A    between atoms: C_27  and  O_28
REMARK   10  A    between atoms: O_28  and  C_29
REMARK   11  A    between atoms: C_30  and  O_31
REMARK   12  A    between atoms: O_31  and  C_32
REMARK                            x       y       z     vdW  Elec       q    Type
REMARK                         _______ _______ _______ _____ _____    ______ ____
ROOT
ATOM      1  C   UNL     1       2.216   7.173  18.912  0.00  0.00    +0.000 C 
ATOM      2  O   UNL     1       2.188   7.359  20.122  0.00  0.00    +0.000 OA
ENDROOT
BRANCH   1   3
ATOM      3  C   UNL     1       2.748   5.989  18.274  0.00  0.00    +0.000 A 
ATOM      4  C   UNL     1       2.347   4.668  18.356  0.00  0.00    +0.000 A 
ATOM      5  C   UNL     1       3.236   3.920  17.540  0.00  0.00    +0.000 A 
ATOM      6  C   UNL     1       4.134   4.819  17.000  0.00  0.00    +0.000 A 
ATOM      7  O   UNL     1       3.816   6.079  17.423  0.00  0.00    +0.000 OA
BRANCH   6   8
ATOM      8  C   UNL     1       5.260   4.703  16.070  0.00  0.00    +0.000 A 
ATOM      9  C   UNL     1       5.014   4.207  14.773  0.00  0.00    +0.000 A 
ATOM     10  C   UNL     1       6.038   4.092  13.814  0.00  0.00    +0.000 A 
ATOM     11  C   UNL     1       7.334   4.495  14.154  0.00  0.00    +0.000 A 
ATOM     12  C   UNL     1       7.605   4.966  15.438  0.00  0.00    +0.000 A 
ATOM     13  C   UNL     1       6.585   5.051  16.394  0.00  0.00    +0.000 A 
ATOM     14 CL   UNL     1       7.078   5.528  17.978  0.00  0.00    +0.000 Cl
BRANCH  10  15
ATOM     15  C   UNL     1       5.767   3.539  12.434  0.00  0.00    +0.000 C 
ATOM     16  F   UNL     1       5.931   2.190  12.348  0.00  0.00    +0.000 F 
ATOM     17  F   UNL     1       4.499   3.793  12.013  0.00  0.00    +0.000 F 
ATOM     18  F   UNL     1       6.591   4.077  11.493  0.00  0.00    +0.000 F 
ENDBRANCH  10  15
ENDBRANCH   6   8
ENDBRANCH   1   3
BRANCH   1  19
ATOM     19  O   UNL     1       1.750   8.046  17.977  0.00  0.00    +0.000 OA
BRANCH  19  20
ATOM     20  C   UNL     1       1.930   9.440  18.253  0.00  0.00    +0.000 C 
BRANCH  20  23
ATOM     21  C   UNL     1      -0.727  12.093  19.031  0.00  0.00    +0.000 A 
ATOM     22  C   UNL     1       0.463  11.345  19.078  0.00  0.00    +0.000 A 
ATOM     23  C   UNL     1       0.602  10.153  18.367  0.00  0.00    +0.000 A 
ATOM     24  C   UNL     1      -0.505   9.682  17.658  0.00  0.00    +0.000 A 
ATOM     25  C   UNL     1      -1.730  10.374  17.648  0.00  0.00    +0.000 A 
ATOM     26  C   UNL     1      -1.853  11.601  18.335  0.00  0.00    +0.000 A 
BRANCH  21  28
ATOM     27  C   UNL     1      -0.326  14.427  18.963  0.00  0.00    +0.000 C 
ATOM     28  O   UNL     1      -0.814  13.298  19.684  0.00  0.00    +0.000 OA
ENDBRANCH  21  28
BRANCH  25  29
ATOM     29  O   UNL     1      -2.667   9.713  16.891  0.00  0.00    +0.000 OA
ATOM     30  C   UNL     1      -2.880  10.107  15.544  0.00  0.00    +0.000 C 
ENDBRANCH  25  29
BRANCH  26  31
ATOM     31  O   UNL     1      -3.078  12.209  18.273  0.00  0.00    +0.000 OA
ATOM     32  C   UNL     1      -4.039  12.011  19.297  0.00  0.00    +0.000 C 
ENDBRANCH  26  31
ENDBRANCH  20  23
ENDBRANCH  19  20
ENDBRANCH   1  19
TORSDOF 9
ENDMDL
MODEL 8
REMARK VINA RESULT:      -7.7      3.766      4.906
REMARK  Name = 
REMARK  12 active torsions:
REMARK  status: ('A' for Active; 'I' for Inactive)
REMARK    1  A    between atoms: C_1  and  O_2
REMARK    2  A    between atoms: O_2  and  C_3
REMARK    3  A    between atoms: C_5  and  C_6
REMARK    4  A    between atoms: C_6  and  O_7
REMARK    5  A    between atoms: O_7  and  C_8
REMARK    6  A    between atoms: C_8  and  C_10
REMARK    7  A    between atoms: C_13  and  C_14
REMARK    8  A    between atoms: C_16  and  C_17
REMARK    9  A    between atoms: C_27  and  O_28
REMARK   10  A    between atoms: O_28  and  C_29
REMARK   11  A    between atoms: C_30  and  O_31
REMARK   12  A    between atoms: O_31  and  C_32
REMARK                            x       y       z     vdW  Elec       q    Type
REMARK                         _______ _______ _______ _____ _____    ______ ____
ROOT
ATOM      1  C   UNL     1       2.390   6.505  19.249  0.00  0.00    +0.000 C 
ATOM      2  O   UNL     1       1.854   6.355  20.340  0.00  0.00    +0.000 OA
ENDROOT
BRANCH   1   3
ATOM      3  C   UNL     1       2.885   5.426  18.422  0.00  0.00    +0.000 A 
ATOM      4  C   UNL     1       2.471   4.111  18.318  0.00  0.00    +0.000 A 
ATOM      5  C   UNL     1       3.321   3.489  17.367  0.00  0.00    +0.000 A 
ATOM      6  C   UNL     1       4.210   4.453  16.936  0.00  0.00    +0.000 A 
ATOM      7  O   UNL     1       3.923   5.636  17.555  0.00  0.00    +0.000 OA
BRANCH   6   8
ATOM      8  C   UNL     1       5.302   4.470  15.959  0.00  0.00    +0.000 A 
ATOM      9  C   UNL     1       5.044   4.002  14.653  0.00  0.00    +0.000 A 
ATOM     10  C   UNL     1       6.033   4.013  13.651  0.00  0.00    +0.000 A 
ATOM     11  C   UNL     1       7.303   4.516  13.956  0.00  0.00    +0.000 A 
ATOM     12  C   UNL     1       7.586   4.961  15.246  0.00  0.00    +0.000 A 
ATOM     13  C   UNL     1       6.604   4.922  16.244  0.00  0.00    +0.000 A 
ATOM     14 CL   UNL     1       7.121   5.383  17.825  0.00  0.00    +0.000 Cl
BRANCH  10  15
ATOM     15  C   UNL     1       5.753   3.488  12.262  0.00  0.00    +0.000 C 
ATOM     16  F   UNL     1       6.576   4.008  11.310  0.00  0.00    +0.000 F 
ATOM     17  F   UNL     1       5.886   2.137  12.181  0.00  0.00    +0.000 F 
ATOM     18  F   UNL     1       4.485   3.766  11.853  0.00  0.00    +0.000 F 
ENDBRANCH  10  15
ENDBRANCH   6   8
ENDBRANCH   1   3
BRANCH   1  19
ATOM     19  O   UNL     1       2.602   7.704  18.642  0.00  0.00    +0.000 OA
BRANCH  19  20
ATOM     20  C   UNL     1       1.439   8.469  18.306  0.00  0.00    +0.000 C 
BRANCH  20  23
ATOM     21  C   UNL     1       1.002  12.084  19.510  0.00  0.00    +0.000 A 
ATOM     22  C   UNL     1       1.310  10.978  18.697  0.00  0.00    +0.000 A 
ATOM     23  C   UNL     1       1.299   9.678  19.203  0.00  0.00    +0.000 A 
ATOM     24  C   UNL     1       1.039   9.508  20.566  0.00  0.00    +0.000 A 
ATOM     25  C   UNL     1       0.795  10.602  21.416  0.00  0.00    +0.000 A 
ATOM     26  C   UNL     1       0.767  11.912  20.892  0.00  0.00    +0.000 A 
BRANCH  21  28
ATOM     27  C   UNL     1      -0.274  13.698  18.336  0.00  0.00    +0.000 C 
ATOM     28  O   UNL     1       0.953  13.346  18.972  0.00  0.00    +0.000 OA
ENDBRANCH  21  28
BRANCH  25  29
ATOM     29  O   UNL     1       0.575  10.186  22.707  0.00  0.00    +0.000 OA
ATOM     30  C   UNL     1      -0.751   9.932  23.143  0.00  0.00    +0.000 C 
ENDBRANCH  25  29
BRANCH  26  31
ATOM     31  O   UNL     1       0.520  12.917  21.788  0.00  0.00    +0.000 OA
ATOM     32  C   UNL     1      -0.796  13.405  21.987  0.00  0.00    +0.000 C 
ENDBRANCH  26  31
ENDBRANCH  20  23
ENDBRANCH  19  20
ENDBRANCH   1  19
TORSDOF 9
ENDMDL
MODEL 9
REMARK VINA RESULT:      -7.6      2.754      4.017
REMARK  Name = 
REMARK  12 active torsions:
REMARK  status: ('A' for Active; 'I' for Inactive)
REMARK    1  A    between atoms: C_1  and  O_2
REMARK    2  A    between atoms: O_2  and  C_3
REMARK    3  A    between atoms: C_5  and  C_6
REMARK    4  A    between atoms: C_6  and  O_7
REMARK    5  A    between atoms: O_7  and  C_8
REMARK    6  A    between atoms: C_8  and  C_10
REMARK    7  A    between atoms: C_13  and  C_14
REMARK    8  A    between atoms: C_16  and  C_17
REMARK    9  A    between atoms: C_27  and  O_28
REMARK   10  A    between atoms: O_28  and  C_29
REMARK   11  A    between atoms: C_30  and  O_31
REMARK   12  A    between atoms: O_31  and  C_32
REMARK                            x       y       z     vdW  Elec       q    Type
REMARK                         _______ _______ _______ _____ _____    ______ ____
ROOT
ATOM      1  C   UNL     1       0.758   9.884  20.745  0.00  0.00    +0.000 C 
ATOM      2  O   UNL     1       1.334  10.126  21.799  0.00  0.00    +0.000 OA
ENDROOT
BRANCH   1   3
ATOM      3  C   UNL     1       1.360   9.210  19.616  0.00  0.00    +0.000 A 
ATOM      4  C   UNL     1       1.640   9.667  18.341  0.00  0.00    +0.000 A 
ATOM      5  C   UNL     1       2.212   8.579  17.634  0.00  0.00    +0.000 A 
ATOM      6  C   UNL     1       2.255   7.512  18.509  0.00  0.00    +0.000 A 
ATOM      7  O   UNL     1       1.766   7.907  19.721  0.00  0.00    +0.000 OA
BRANCH   6   8
ATOM      8  C   UNL     1       2.748   6.135  18.415  0.00  0.00    +0.000 A 
ATOM      9  C   UNL     1       1.952   5.097  18.943  0.00  0.00    +0.000 A 
ATOM     10  C   UNL     1       2.344   3.747  18.866  0.00  0.00    +0.000 A 
ATOM     11  C   UNL     1       3.551   3.426  18.236  0.00  0.00    +0.000 A 
ATOM     12  C   UNL     1       4.364   4.437  17.728  0.00  0.00    +0.000 A 
ATOM     13  C   UNL     1       3.980   5.780  17.833  0.00  0.00    +0.000 A 
ATOM     14 CL   UNL     1       5.134   6.938  17.280  0.00  0.00    +0.000 Cl
BRANCH  10  15
ATOM     15  C   UNL     1       1.493   2.646  19.455  0.00  0.00    +0.000 C 
ATOM     16  F   UNL     1       0.267   2.538  18.873  0.00  0.00    +0.000 F 
ATOM     17  F   UNL     1       2.076   1.422  19.338  0.00  0.00    +0.000 F 
ATOM     18  F   UNL     1       1.262   2.827  20.784  0.00  0.00    +0.000 F 
ENDBRANCH  10  15
ENDBRANCH   6   8
ENDBRANCH   1   3
BRANCH   1  19
ATOM     19  O   UNL     1      -0.535  10.208  20.470  0.00  0.00    +0.000 OA
BRANCH  19  20
ATOM     20  C   UNL     1      -0.797  11.576  20.135  0.00  0.00    +0.000 C 
BRANCH  20  23
ATOM     21  C   UNL     1      -4.450  12.722  19.906  0.00  0.00    +0.000 A 
ATOM     22  C   UNL     1      -3.185  12.397  20.430  0.00  0.00    +0.000 A 
ATOM     23  C   UNL     1      -2.218  11.760  19.652  0.00  0.00    +0.000 A 
ATOM     24  C   UNL     1      -2.565  11.388  18.351  0.00  0.00    +0.000 A 
ATOM     25  C   UNL     1      -3.845  11.640  17.823  0.00  0.00    +0.000 A 
ATOM     26  C   UNL     1      -4.807  12.321  18.600  0.00  0.00    +0.000 A 
BRANCH  21  28
ATOM     27  C   UNL     1      -4.943  13.715  22.000  0.00  0.00    +0.000 C 
ATOM     28  O   UNL     1      -5.359  13.411  20.671  0.00  0.00    +0.000 OA
ENDBRANCH  21  28
BRANCH  25  29
ATOM     29  O   UNL     1      -3.950  11.178  16.534  0.00  0.00    +0.000 OA
ATOM     30  C   UNL     1      -3.000  10.242  16.049  0.00  0.00    +0.000 C 
ENDBRANCH  25  29
BRANCH  26  31
ATOM     31  O   UNL     1      -6.025  12.527  18.010  0.00  0.00    +0.000 OA
ATOM     32  C   UNL     1      -7.106  11.641  18.250  0.00  0.00    +0.000 C 
ENDBRANCH  26  31
ENDBRANCH  20  23
ENDBRANCH  19  20
ENDBRANCH   1  19
TORSDOF 9
ENDMDL
