MODEL 1
REMARK VINA RESULT:      -7.4      0.000      0.000
REMARK  Name = 
REMARK  6 active torsions:
REMARK  status: ('A' for Active; 'I' for Inactive)
REMARK    1  A    between atoms: C_1  and  C_2
REMARK    2  A    between atoms: C_8  and  C_10
REMARK    3  A    between atoms: C_10  and  C_11
REMARK    4  A    between atoms: C_11  and  N_12
REMARK    5  A    between atoms: C_11  and  C_13
REMARK    6  A    between atoms: C_13  and  C_14
REMARK                            x       y       z     vdW  Elec       q    Type
REMARK                         _______ _______ _______ _____ _____    ______ ____
ROOT
ATOM      1  C   UNL     1       6.432   4.761  16.819  0.00  0.00    +0.000 C 
ENDROOT
BRANCH   1   2
ATOM      2  N   UNL     1       7.430   4.362  17.835  0.00  0.00    +0.000 NA
ATOM      3  H   UNL     1       8.305   4.081  17.397  0.00  0.00    +0.000 HD
ATOM      4  H   UNL     1       7.645   5.164  18.425  0.00  0.00    +0.000 HD
ENDBRANCH   1   2
BRANCH   1   5
ATOM      5  C   UNL     1       5.351   5.650  17.470  0.00  0.00    +0.000 C 
BRANCH   5  13
ATOM      6  C   UNL     1       1.466   4.465  17.615  0.00  0.00    +0.000 C 
ATOM      7  C   UNL     1       2.907   3.936  17.640  0.00  0.00    +0.000 C 
ATOM      8  C   UNL     1       2.933   2.382  17.619  0.00  0.00    +0.000 C 
ATOM      9  N   UNL     1       2.456   1.768  18.874  0.00  0.00    +0.000 NA
ATOM     10  C   UNL     1       3.230   2.296  20.016  0.00  0.00    +0.000 C 
ATOM     11  C   UNL     1       3.201   3.834  20.094  0.00  0.00    +0.000 C 
ATOM     12  N   UNL     1       3.646   4.429  18.826  0.00  0.00    +0.000 N 
ATOM     13  C   UNL     1       4.847   5.130  18.811  0.00  0.00    +0.000 C 
ATOM     14  O   UNL     1       5.459   5.377  19.853  0.00  0.00    +0.000 OA
ATOM     15  H   UNL     1       2.592   0.759  18.824  0.00  0.00    +0.000 HD
ENDBRANCH   5  13
ENDBRANCH   1   5
BRANCH   1  16
ATOM     16  C   UNL     1       7.155   5.337  15.571  0.00  0.00    +0.000 C 
BRANCH  16  17
ATOM     17  C   UNL     1       6.859   4.712  14.230  0.00  0.00    +0.000 A 
ATOM     18  C   UNL     1       5.731   3.888  14.058  0.00  0.00    +0.000 A 
ATOM     19  C   UNL     1       5.425   3.340  12.809  0.00  0.00    +0.000 A 
ATOM     20  C   UNL     1       6.251   3.593  11.710  0.00  0.00    +0.000 A 
ATOM     21  C   UNL     1       7.368   4.407  11.863  0.00  0.00    +0.000 A 
ATOM     22  C   UNL     1       7.653   4.968  13.108  0.00  0.00    +0.000 A 
ATOM     23  F   UNL     1       8.706   5.794  13.197  0.00  0.00    +0.000 F 
ENDBRANCH  16  17
ENDBRANCH   1  16
TORSDOF 5
ENDMDL
MODEL 2
REMARK VINA RESULT:      -7.1      1.552      2.236
REMARK  Name = 
REMARK  6 active torsions:
REMARK  status: ('A' for Active; 'I' for Inactive)
REMARK    1  A    between atoms: C_1  and  C_2
REMARK    2  A    between atoms: C_8  and  C_10
REMARK    3  A    between atoms: C_10  and  C_11
REMARK    4  A    between atoms: C_11  and  N_12
REMARK    5  A    between atoms: C_11  and  C_13
REMARK    6  A    between atoms: C_13  and  C_14
REMARK                            x       y       z     vdW  Elec       q    Type
REMARK                         _______ _______ _______ _____ _____    ______ ____
ROOT
ATOM      1  C   UNL     1       6.777   4.567  17.366  0.00  0.00    +0.000 C 
ENDROOT
BRANCH   1   2
ATOM      2  N   UNL     1       8.135   4.143  17.772  0.00  0.00    +0.000 NA
ATOM      3  H   UNL     1       8.445   4.652  18.597  0.00  0.00    +0.000 HD
ATOM      4  H   UNL     1       8.115   3.158  18.029  0.00  0.00    +0.000 HD
ENDBRANCH   1   2
BRANCH   1   5
ATOM      5  C   UNL     1       5.997   5.073  18.598  0.00  0.00    +0.000 C 
BRANCH   5  13
ATOM      6  C   UNL     1       3.686   1.773  18.064  0.00  0.00    +0.000 C 
ATOM      7  C   UNL     1       3.981   2.913  19.049  0.00  0.00    +0.000 C 
ATOM      8  C   UNL     1       3.199   2.719  20.379  0.00  0.00    +0.000 C 
ATOM      9  N   UNL     1       1.744   2.923  20.241  0.00  0.00    +0.000 NA
ATOM     10  C   UNL     1       1.477   4.254  19.658  0.00  0.00    +0.000 C 
ATOM     11  C   UNL     1       2.206   4.474  18.320  0.00  0.00    +0.000 C 
ATOM     12  N   UNL     1       3.649   4.234  18.466  0.00  0.00    +0.000 N 
ATOM     13  C   UNL     1       4.515   5.314  18.337  0.00  0.00    +0.000 C 
ATOM     14  O   UNL     1       4.112   6.420  17.968  0.00  0.00    +0.000 OA
ATOM     15  H   UNL     1       1.311   2.876  21.163  0.00  0.00    +0.000 HD
ENDBRANCH   5  13
ENDBRANCH   1   5
BRANCH   1  16
ATOM     16  C   UNL     1       6.869   5.529  16.150  0.00  0.00    +0.000 C 
BRANCH  16  17
ATOM     17  C   UNL     1       6.688   4.946  14.770  0.00  0.00    +0.000 A 
ATOM     18  C   UNL     1       7.654   5.161  13.770  0.00  0.00    +0.000 A 
ATOM     19  C   UNL     1       7.515   4.588  12.502  0.00  0.00    +0.000 A 
ATOM     20  C   UNL     1       6.399   3.802  12.205  0.00  0.00    +0.000 A 
ATOM     21  C   UNL     1       5.436   3.578  13.184  0.00  0.00    +0.000 A 
ATOM     22  C   UNL     1       5.594   4.135  14.453  0.00  0.00    +0.000 A 
ATOM     23  F   UNL     1       4.673   3.845  15.383  0.00  0.00    +0.000 F 
ENDBRANCH  16  17
ENDBRANCH   1  16
TORSDOF 5
ENDMDL
MODEL 3
REMARK VINA RESULT:      -7.1      1.125      1.288
REMARK  Name = 
REMARK  6 active torsions:
REMARK  status: ('A' for Active; 'I' for Inactive)
REMARK    1  A    between atoms: C_1  and  C_2
REMARK    2  A    between atoms: C_8  and  C_10
REMARK    3  A    between atoms: C_10  and  C_11
REMARK    4  A    between atoms: C_11  and  N_12
REMARK    5  A    between atoms: C_11  and  C_13
REMARK    6  A    between atoms: C_13  and  C_14
REMARK                            x       y       z     vdW  Elec       q    Type
REMARK                         _______ _______ _______ _____ _____    ______ ____
ROOT
ATOM      1  C   UNL     1       6.732   4.802  16.796  0.00  0.00    +0.000 C 
ENDROOT
BRANCH   1   2
ATOM      2  N   UNL     1       7.945   4.229  17.422  0.00  0.00    +0.000 NA
ATOM      3  H   UNL     1       7.737   3.346  17.880  0.00  0.00    +0.000 HD
ATOM      4  H   UNL     1       8.630   4.025  16.696  0.00  0.00    +0.000 HD
ENDBRANCH   1   2
BRANCH   1   5
ATOM      5  C   UNL     1       5.956   5.641  17.833  0.00  0.00    +0.000 C 
BRANCH   5  13
ATOM      6  C   UNL     1       2.348   6.915  19.200  0.00  0.00    +0.000 C 
ATOM      7  C   UNL     1       3.023   5.803  18.387  0.00  0.00    +0.000 C 
ATOM      8  C   UNL     1       1.968   4.846  17.764  0.00  0.00    +0.000 C 
ATOM      9  N   UNL     1       1.281   3.999  18.759  0.00  0.00    +0.000 NA
ATOM     10  C   UNL     1       2.276   3.249  19.551  0.00  0.00    +0.000 C 
ATOM     11  C   UNL     1       3.321   4.164  20.216  0.00  0.00    +0.000 C 
ATOM     12  N   UNL     1       3.972   5.023  19.217  0.00  0.00    +0.000 N 
ATOM     13  C   UNL     1       5.320   4.817  18.947  0.00  0.00    +0.000 C 
ATOM     14  O   UNL     1       5.999   4.038  19.620  0.00  0.00    +0.000 OA
ATOM     15  H   UNL     1       0.679   3.335  18.273  0.00  0.00    +0.000 HD
ENDBRANCH   5  13
ENDBRANCH   1   5
BRANCH   1  16
ATOM     16  C   UNL     1       7.112   5.506  15.465  0.00  0.00    +0.000 C 
BRANCH  16  17
ATOM     17  C   UNL     1       6.821   4.783  14.173  0.00  0.00    +0.000 A 
ATOM     18  C   UNL     1       5.688   3.955  14.056  0.00  0.00    +0.000 A 
ATOM     19  C   UNL     1       5.387   3.315  12.850  0.00  0.00    +0.000 A 
ATOM     20  C   UNL     1       6.223   3.478  11.742  0.00  0.00    +0.000 A 
ATOM     21  C   UNL     1       7.345   4.294  11.841  0.00  0.00    +0.000 A 
ATOM     22  C   UNL     1       7.625   4.947  13.041  0.00  0.00    +0.000 A 
ATOM     23  F   UNL     1       8.683   5.769  13.075  0.00  0.00    +0.000 F 
ENDBRANCH  16  17
ENDBRANCH   1  16
TORSDOF 5
ENDMDL
MODEL 4
REMARK VINA RESULT:      -7.1      3.342      6.707
REMARK  Name = 
REMARK  6 active torsions:
REMARK  status: ('A' for Active; 'I' for Inactive)
REMARK    1  A    between atoms: C_1  and  C_2
REMARK    2  A    between atoms: C_8  and  C_10
REMARK    3  A    between atoms: C_10  and  C_11
REMARK    4  A    between atoms: C_11  and  N_12
REMARK    5  A    between atoms: C_11  and  C_13
REMARK    6  A    between atoms: C_13  and  C_14
REMARK                            x       y       z     vdW  Elec       q    Type
REMARK                         _______ _______ _______ _____ _____    ______ ____
ROOT
ATOM      1  C   UNL     1       2.661   4.705  18.124  0.00  0.00    +0.000 C 
ENDROOT
BRANCH   1   2
ATOM      2  N   UNL     1       1.364   4.368  17.496  0.00  0.00    +0.000 NA
ATOM      3  H   UNL     1       0.720   5.154  17.545  0.00  0.00    +0.000 HD
ATOM      4  H   UNL     1       1.512   4.176  16.507  0.00  0.00    +0.000 HD
ENDBRANCH   1   2
BRANCH   1   5
ATOM      5  C   UNL     1       3.745   3.717  17.645  0.00  0.00    +0.000 C 
BRANCH   5  13
ATOM      6  C   UNL     1       6.822   4.456  15.096  0.00  0.00    +0.000 C 
ATOM      7  C   UNL     1       5.921   5.117  16.148  0.00  0.00    +0.000 C 
ATOM      8  C   UNL     1       6.188   6.646  16.232  0.00  0.00    +0.000 C 
ATOM      9  N   UNL     1       7.497   6.983  16.826  0.00  0.00    +0.000 NA
ATOM     10  C   UNL     1       7.623   6.349  18.154  0.00  0.00    +0.000 C 
ATOM     11  C   UNL     1       7.401   4.826  18.109  0.00  0.00    +0.000 C 
ATOM     12  N   UNL     1       6.109   4.506  17.485  0.00  0.00    +0.000 N 
ATOM     13  C   UNL     1       5.114   3.944  18.277  0.00  0.00    +0.000 C 
ATOM     14  O   UNL     1       5.340   3.586  19.436  0.00  0.00    +0.000 OA
ATOM     15  H   UNL     1       7.562   7.995  16.938  0.00  0.00    +0.000 HD
ENDBRANCH   5  13
ENDBRANCH   1   5
BRANCH   1  16
ATOM     16  C   UNL     1       2.958   6.218  17.935  0.00  0.00    +0.000 C 
BRANCH  16  17
ATOM     17  C   UNL     1       2.254   7.196  18.843  0.00  0.00    +0.000 A 
ATOM     18  C   UNL     1       1.963   6.852  20.177  0.00  0.00    +0.000 A 
ATOM     19  C   UNL     1       1.349   7.768  21.037  0.00  0.00    +0.000 A 
ATOM     20  C   UNL     1       1.000   9.040  20.576  0.00  0.00    +0.000 A 
ATOM     21  C   UNL     1       1.283   9.395  19.260  0.00  0.00    +0.000 A 
ATOM     22  C   UNL     1       1.916   8.484  18.416  0.00  0.00    +0.000 A 
ATOM     23  F   UNL     1       2.222   8.888  17.174  0.00  0.00    +0.000 F 
ENDBRANCH  16  17
ENDBRANCH   1  16
TORSDOF 5
ENDMDL
MODEL 5
REMARK VINA RESULT:      -7.0      1.406      1.543
REMARK  Name = 
REMARK  6 active torsions:
REMARK  status: ('A' for Active; 'I' for Inactive)
REMARK    1  A    between atoms: C_1  and  C_2
REMARK    2  A    between atoms: C_8  and  C_10
REMARK    3  A    between atoms: C_10  and  C_11
REMARK    4  A    between atoms: C_11  and  N_12
REMARK    5  A    between atoms: C_11  and  C_13
REMARK    6  A    between atoms: C_13  and  C_14
REMARK                            x       y       z     vdW  Elec       q    Type
REMARK                         _______ _______ _______ _____ _____    ______ ____
ROOT
ATOM      1  C   UNL     1       5.536   5.808  16.430  0.00  0.00    +0.000 C 
ENDROOT
BRANCH   1   2
ATOM      2  N   UNL     1       4.957   6.915  15.637  0.00  0.00    +0.000 NA
ATOM      3  H   UNL     1       5.683   7.550  15.312  0.00  0.00    +0.000 HD
ATOM      4  H   UNL     1       4.513   6.532  14.804  0.00  0.00    +0.000 HD
ENDBRANCH   1   2
BRANCH   1   5
ATOM      5  C   UNL     1       5.082   5.926  17.900  0.00  0.00    +0.000 C 
BRANCH   5  13
ATOM      6  C   UNL     1       1.657   4.496  19.556  0.00  0.00    +0.000 C 
ATOM      7  C   UNL     1       2.680   4.231  18.442  0.00  0.00    +0.000 C 
ATOM      8  C   UNL     1       2.228   3.050  17.538  0.00  0.00    +0.000 C 
ATOM      9  N   UNL     1       2.294   1.737  18.208  0.00  0.00    +0.000 NA
ATOM     10  C   UNL     1       3.655   1.511  18.736  0.00  0.00    +0.000 C 
ATOM     11  C   UNL     1       4.128   2.643  19.667  0.00  0.00    +0.000 C 
ATOM     12  N   UNL     1       4.024   3.947  18.996  0.00  0.00    +0.000 N 
ATOM     13  C   UNL     1       5.198   4.628  18.691  0.00  0.00    +0.000 C 
ATOM     14  O   UNL     1       6.294   4.231  19.093  0.00  0.00    +0.000 OA
ATOM     15  H   UNL     1       2.079   1.005  17.531  0.00  0.00    +0.000 HD
ENDBRANCH   5  13
ENDBRANCH   1   5
BRANCH   1  16
ATOM     16  C   UNL     1       5.264   4.455  15.718  0.00  0.00    +0.000 C 
BRANCH  16  17
ATOM     17  C   UNL     1       5.860   4.244  14.348  0.00  0.00    +0.000 A 
ATOM     18  C   UNL     1       5.145   3.546  13.356  0.00  0.00    +0.000 A 
ATOM     19  C   UNL     1       5.672   3.383  12.071  0.00  0.00    +0.000 A 
ATOM     20  C   UNL     1       6.931   3.902  11.758  0.00  0.00    +0.000 A 
ATOM     21  C   UNL     1       7.649   4.596  12.727  0.00  0.00    +0.000 A 
ATOM     22  C   UNL     1       7.106   4.773  13.999  0.00  0.00    +0.000 A 
ATOM     23  F   UNL     1       7.807   5.498  14.884  0.00  0.00    +0.000 F 
ENDBRANCH  16  17
ENDBRANCH   1  16
TORSDOF 5
ENDMDL
MODEL 6
REMARK VINA RESULT:      -7.0      2.902      3.769
REMARK  Name = 
REMARK  6 active torsions:
REMARK  status: ('A' for Active; 'I' for Inactive)
REMARK    1  A    between atoms: C_1  and  C_2
REMARK    2  A    between atoms: C_8  and  C_10
REMARK    3  A    between atoms: C_10  and  C_11
REMARK    4  A    between atoms: C_11  and  N_12
REMARK    5  A    between atoms: C_11  and  C_13
REMARK    6  A    between atoms: C_13  and  C_14
REMARK                            x       y       z     vdW  Elec       q    Type
REMARK                         _______ _______ _______ _____ _____    ______ ____
ROOT
ATOM      1  C   UNL     1       3.209   7.368  17.827  0.00  0.00    +0.000 C 
ENDROOT
BRANCH   1   2
ATOM      2  N   UNL     1       2.291   8.478  17.488  0.00  0.00    +0.000 NA
ATOM      3  H   UNL     1       1.320   8.191  17.585  0.00  0.00    +0.000 HD
ATOM      4  H   UNL     1       2.435   9.242  18.146  0.00  0.00    +0.000 HD
ENDBRANCH   1   2
BRANCH   1   5
ATOM      5  C   UNL     1       2.395   6.101  18.163  0.00  0.00    +0.000 C 
BRANCH   5  13
ATOM      6  C   UNL     1       0.708   2.452  18.762  0.00  0.00    +0.000 C 
ATOM      7  C   UNL     1       1.959   3.144  18.204  0.00  0.00    +0.000 C 
ATOM      8  C   UNL     1       2.911   2.116  17.529  0.00  0.00    +0.000 C 
ATOM      9  N   UNL     1       3.574   1.210  18.486  0.00  0.00    +0.000 NA
ATOM     10  C   UNL     1       4.286   1.998  19.512  0.00  0.00    +0.000 C 
ATOM     11  C   UNL     1       3.369   3.005  20.232  0.00  0.00    +0.000 C 
ATOM     12  N   UNL     1       2.692   3.878  19.262  0.00  0.00    +0.000 N 
ATOM     13  C   UNL     1       3.024   5.228  19.244  0.00  0.00    +0.000 C 
ATOM     14  O   UNL     1       3.757   5.721  20.105  0.00  0.00    +0.000 OA
ATOM     15  H   UNL     1       4.251   0.633  17.987  0.00  0.00    +0.000 HD
ENDBRANCH   5  13
ENDBRANCH   1   5
BRANCH   1  16
ATOM     16  C   UNL     1       4.296   7.231  16.726  0.00  0.00    +0.000 C 
BRANCH  16  17
ATOM     17  C   UNL     1       5.475   6.332  17.003  0.00  0.00    +0.000 A 
ATOM     18  C   UNL     1       6.551   6.785  17.789  0.00  0.00    +0.000 A 
ATOM     19  C   UNL     1       7.628   5.944  18.086  0.00  0.00    +0.000 A 
ATOM     20  C   UNL     1       7.657   4.639  17.590  0.00  0.00    +0.000 A 
ATOM     21  C   UNL     1       6.599   4.175  16.813  0.00  0.00    +0.000 A 
ATOM     22  C   UNL     1       5.519   5.013  16.540  0.00  0.00    +0.000 A 
ATOM     23  F   UNL     1       4.495   4.507  15.838  0.00  0.00    +0.000 F 
ENDBRANCH  16  17
ENDBRANCH   1  16
TORSDOF 5
ENDMDL
MODEL 7
REMARK VINA RESULT:      -6.9      3.742      6.701
REMARK  Name = 
REMARK  6 active torsions:
REMARK  status: ('A' for Active; 'I' for Inactive)
REMARK    1  A    between atoms: C_1  and  C_2
REMARK    2  A    between atoms: C_8  and  C_10
REMARK    3  A    between atoms: C_10  and  C_11
REMARK    4  A    between atoms: C_11  and  N_12
REMARK    5  A    between atoms: C_11  and  C_13
REMARK    6  A    between atoms: C_13  and  C_14
REMARK                            x       y       z     vdW  Elec       q    Type
REMARK                         _______ _______ _______ _____ _____    ______ ____
ROOT
ATOM      1  C   UNL     1       2.599   4.750  18.844  0.00  0.00    +0.000 C 
ENDROOT
BRANCH   1   2
ATOM      2  N   UNL     1       1.507   5.043  17.890  0.00  0.00    +0.000 NA
ATOM      3  H   UNL     1       1.171   4.191  17.447  0.00  0.00    +0.000 HD
ATOM      4  H   UNL     1       0.717   5.438  18.397  0.00  0.00    +0.000 HD
ENDBRANCH   1   2
BRANCH   1   5
ATOM      5  C   UNL     1       3.505   3.638  18.276  0.00  0.00    +0.000 C 
BRANCH   5  13
ATOM      6  C   UNL     1       5.818   4.385  15.019  0.00  0.00    +0.000 C 
ATOM      7  C   UNL     1       5.223   5.042  16.273  0.00  0.00    +0.000 C 
ATOM      8  C   UNL     1       5.509   6.570  16.293  0.00  0.00    +0.000 C 
ATOM      9  N   UNL     1       6.928   6.900  16.528  0.00  0.00    +0.000 NA
ATOM     10  C   UNL     1       7.393   6.257  17.774  0.00  0.00    +0.000 C 
ATOM     11  C   UNL     1       7.160   4.735  17.780  0.00  0.00    +0.000 C 
ATOM     12  N   UNL     1       5.750   4.422  17.511  0.00  0.00    +0.000 N 
ATOM     13  C   UNL     1       4.992   3.857  18.532  0.00  0.00    +0.000 C 
ATOM     14  O   UNL     1       5.510   3.491  19.590  0.00  0.00    +0.000 OA
ATOM     15  H   UNL     1       7.024   7.911  16.625  0.00  0.00    +0.000 HD
ENDBRANCH   5  13
ENDBRANCH   1   5
BRANCH   1  16
ATOM     16  C   UNL     1       3.295   6.073  19.267  0.00  0.00    +0.000 C 
BRANCH  16  17
ATOM     17  C   UNL     1       2.512   7.357  19.137  0.00  0.00    +0.000 A 
ATOM     18  C   UNL     1       2.533   8.089  17.934  0.00  0.00    +0.000 A 
ATOM     19  C   UNL     1       1.778   9.256  17.791  0.00  0.00    +0.000 A 
ATOM     20  C   UNL     1       0.998   9.723  18.852  0.00  0.00    +0.000 A 
ATOM     21  C   UNL     1       0.965   9.009  20.046  0.00  0.00    +0.000 A 
ATOM     22  C   UNL     1       1.704   7.834  20.173  0.00  0.00    +0.000 A 
ATOM     23  F   UNL     1       1.597   7.147  21.320  0.00  0.00    +0.000 F 
ENDBRANCH  16  17
ENDBRANCH   1  16
TORSDOF 5
ENDMDL
MODEL 8
REMARK VINA RESULT:      -6.9      1.155      1.673
REMARK  Name = 
REMARK  6 active torsions:
REMARK  status: ('A' for Active; 'I' for Inactive)
REMARK    1  A    between atoms: C_1  and  C_2
REMARK    2  A    between atoms: C_8  and  C_10
REMARK    3  A    between atoms: C_10  and  C_11
REMARK    4  A    between atoms: C_11  and  N_12
REMARK    5  A    between atoms: C_11  and  C_13
REMARK    6  A    between atoms: C_13  and  C_14
REMARK                            x       y       z     vdW  Elec       q    Type
REMARK                         _______ _______ _______ _____ _____    ______ ____
ROOT
ATOM      1  C   UNL     1       6.365   4.611  17.112  0.00  0.00    +0.000 C 
ENDROOT
BRANCH   1   2
ATOM      2  N   UNL     1       7.680   4.143  17.607  0.00  0.00    +0.000 NA
ATOM      3  H   UNL     1       7.652   3.153  17.836  0.00  0.00    +0.000 HD
ATOM      4  H   UNL     1       8.373   4.252  16.868  0.00  0.00    +0.000 HD
ENDBRANCH   1   2
BRANCH   1   5
ATOM      5  C   UNL     1       5.579   5.272  18.262  0.00  0.00    +0.000 C 
BRANCH   5  13
ATOM      6  C   UNL     1       3.693   1.673  18.241  0.00  0.00    +0.000 C 
ATOM      7  C   UNL     1       3.873   2.953  19.068  0.00  0.00    +0.000 C 
ATOM      8  C   UNL     1       3.168   2.832  20.448  0.00  0.00    +0.000 C 
ATOM      9  N   UNL     1       1.695   2.837  20.360  0.00  0.00    +0.000 NA
ATOM     10  C   UNL     1       1.240   4.041  19.637  0.00  0.00    +0.000 C 
ATOM     11  C   UNL     1       1.888   4.181  18.247  0.00  0.00    +0.000 C 
ATOM     12  N   UNL     1       3.354   4.141  18.348  0.00  0.00    +0.000 N 
ATOM     13  C   UNL     1       4.070   5.295  18.049  0.00  0.00    +0.000 C 
ATOM     14  O   UNL     1       3.515   6.288  17.571  0.00  0.00    +0.000 OA
ATOM     15  H   UNL     1       1.304   2.852  21.301  0.00  0.00    +0.000 HD
ENDBRANCH   5  13
ENDBRANCH   1   5
BRANCH   1  16
ATOM     16  C   UNL     1       6.561   5.452  15.821  0.00  0.00    +0.000 C 
BRANCH  16  17
ATOM     17  C   UNL     1       6.430   4.749  14.492  0.00  0.00    +0.000 A 
ATOM     18  C   UNL     1       5.300   3.959  14.208  0.00  0.00    +0.000 A 
ATOM     19  C   UNL     1       5.151   3.339  12.963  0.00  0.00    +0.000 A 
ATOM     20  C   UNL     1       6.137   3.485  11.984  0.00  0.00    +0.000 A 
ATOM     21  C   UNL     1       7.258   4.265  12.249  0.00  0.00    +0.000 A 
ATOM     22  C   UNL     1       7.388   4.897  13.484  0.00  0.00    +0.000 A 
ATOM     23  F   UNL     1       8.456   5.686  13.675  0.00  0.00    +0.000 F 
ENDBRANCH  16  17
ENDBRANCH   1  16
TORSDOF 5
ENDMDL
MODEL 9
REMARK VINA RESULT:      -6.8      4.932      6.889
REMARK  Name = 
REMARK  6 active torsions:
REMARK  status: ('A' for Active; 'I' for Inactive)
REMARK    1  A    between atoms: C_1  and  C_2
REMARK    2  A    between atoms: C_8  and  C_10
REMARK    3  A    between atoms: C_10  and  C_11
REMARK    4  A    between atoms: C_11  and  N_12
REMARK    5  A    between atoms: C_11  and  C_13
REMARK    6  A    between atoms: C_13  and  C_14
REMARK                            x       y       z     vdW  Elec       q    Type
REMARK                         _______ _______ _______ _____ _____    ______ ____
ROOT
ATOM      1  C   UNL     1       2.582   7.004  18.305  0.00  0.00    +0.000 C 
ENDROOT
BRANCH   1   2
ATOM      2  N   UNL     1       3.570   6.524  17.313  0.00  0.00    +0.000 NA
ATOM      3  H   UNL     1       3.106   6.156  16.485  0.00  0.00    +0.000 HD
ATOM      4  H   UNL     1       4.140   7.309  17.002  0.00  0.00    +0.000 HD
ENDBRANCH   1   2
BRANCH   1   5
ATOM      5  C   UNL     1       2.839   6.327  19.668  0.00  0.00    +0.000 C 
BRANCH   5  13
ATOM      6  C   UNL     1       1.305   2.883  21.186  0.00  0.00    +0.000 C 
ATOM      7  C   UNL     1       1.681   3.578  19.870  0.00  0.00    +0.000 C 
ATOM      8  C   UNL     1       1.249   2.726  18.644  0.00  0.00    +0.000 C 
ATOM      9  N   UNL     1       2.044   1.494  18.472  0.00  0.00    +0.000 NA
ATOM     10  C   UNL     1       3.480   1.830  18.405  0.00  0.00    +0.000 C 
ATOM     11  C   UNL     1       3.959   2.645  19.620  0.00  0.00    +0.000 C 
ATOM     12  N   UNL     1       3.136   3.850  19.797  0.00  0.00    +0.000 N 
ATOM     13  C   UNL     1       3.728   5.091  19.588  0.00  0.00    +0.000 C 
ATOM     14  O   UNL     1       4.943   5.200  19.402  0.00  0.00    +0.000 OA
ATOM     15  H   UNL     1       1.772   1.039  17.601  0.00  0.00    +0.000 HD
ENDBRANCH   5  13
ENDBRANCH   1   5
BRANCH   1  16
ATOM     16  C   UNL     1       2.537   8.556  18.291  0.00  0.00    +0.000 C 
BRANCH  16  17
ATOM     17  C   UNL     1       1.247   9.231  18.689  0.00  0.00    +0.000 A 
ATOM     18  C   UNL     1       0.343   9.681  17.708  0.00  0.00    +0.000 A 
ATOM     19  C   UNL     1      -0.873  10.269  18.069  0.00  0.00    +0.000 A 
ATOM     20  C   UNL     1      -1.202  10.431  19.417  0.00  0.00    +0.000 A 
ATOM     21  C   UNL     1      -0.320   9.988  20.398  0.00  0.00    +0.000 A 
ATOM     22  C   UNL     1       0.881   9.384  20.029  0.00  0.00    +0.000 A 
ATOM     23  F   UNL     1       1.674   8.920  21.006  0.00  0.00    +0.000 F 
ENDBRANCH  16  17
ENDBRANCH   1  16
TORSDOF 5
ENDMDL
