MODEL 1
REMARK VINA RESULT:      -8.8      0.000      0.000
REMARK  Name = 
REMARK  6 active torsions:
REMARK  status: ('A' for Active; 'I' for Inactive)
REMARK    1  A    between atoms: C_1  and  O_2
REMARK    2  A    between atoms: O_2  and  C_3
REMARK    3  A    between atoms: C_11  and  O_12
REMARK    4  A    between atoms: O_12  and  C_13
REMARK    5  A    between atoms: C_16  and  O_17
REMARK    6  A    between atoms: O_17  and  C_18
REMARK                            x       y       z     vdW  Elec       q    Type
REMARK                         _______ _______ _______ _____ _____    ______ ____
ROOT
ATOM      1  C   UNL     1      -0.774  11.801  20.701  0.00  0.00    +0.000 A 
ATOM      2  C   UNL     1      -1.466  12.124  21.874  0.00  0.00    +0.000 A 
ATOM      3  C   UNL     1      -1.385  11.302  22.997  0.00  0.00    +0.000 A 
ATOM      4  C   UNL     1      -0.630  10.135  22.958  0.00  0.00    +0.000 A 
ATOM      5  C   UNL     1       0.032   9.762  21.782  0.00  0.00    +0.000 A 
ATOM      6  N   UNL     1       0.824   8.595  21.774  0.00  0.00    +0.000 N 
ATOM      7  C   UNL     1       1.408   8.089  20.601  0.00  0.00    +0.000 A 
ATOM      8  C   UNL     1       2.130   6.891  20.615  0.00  0.00    +0.000 A 
ATOM      9  C   UNL     1       2.750   6.427  19.450  0.00  0.00    +0.000 A 
ATOM     10  C   UNL     1       2.587   7.119  18.247  0.00  0.00    +0.000 A 
ATOM     11  C   UNL     1       1.937   8.353  18.242  0.00  0.00    +0.000 A 
ATOM     12  C   UNL     1       1.374   8.846  19.423  0.00  0.00    +0.000 A 
ATOM     13  C   UNL     1       0.742  10.190  19.440  0.00  0.00    +0.000 A 
ATOM     14  O   UNL     1       0.896  10.917  18.465  0.00  0.00    +0.000 OA
ATOM     15  C   UNL     1      -0.023  10.609  20.654  0.00  0.00    +0.000 A 
ATOM     16  H   UNL     1       0.611   7.911  22.490  0.00  0.00    +0.000 HD
ENDROOT
BRANCH   1  18
ATOM     17  C   UNL     1      -0.371  13.898  19.684  0.00  0.00    +0.000 C 
ATOM     18  O   UNL     1      -0.878  12.572  19.574  0.00  0.00    +0.000 OA
ENDBRANCH   1  18
BRANCH   9  19
ATOM     19  O   UNL     1       3.495   5.271  19.552  0.00  0.00    +0.000 OA
BRANCH  19  20
ATOM     20  C   UNL     1       4.487   5.038  18.619  0.00  0.00    +0.000 A 
ATOM     21  C   UNL     1       5.773   5.579  18.691  0.00  0.00    +0.000 A 
ATOM     22  C   UNL     1       6.690   5.345  17.665  0.00  0.00    +0.000 A 
ATOM     23  C   UNL     1       6.363   4.506  16.600  0.00  0.00    +0.000 A 
ATOM     24  C   UNL     1       5.092   3.935  16.543  0.00  0.00    +0.000 A 
ATOM     25  C   UNL     1       4.161   4.189  17.560  0.00  0.00    +0.000 A 
BRANCH  23  26
ATOM     26  O   UNL     1       7.308   4.406  15.627  0.00  0.00    +0.000 OA
BRANCH  26  27
ATOM     27  C   UNL     1       6.948   4.741  14.293  0.00  0.00    +0.000 C 
ATOM     28  F   UNL     1       6.542   3.696  13.544  0.00  0.00    +0.000 F 
ATOM     29  F   UNL     1       5.953   5.654  14.330  0.00  0.00    +0.000 F 
ATOM     30  F   UNL     1       8.014   5.307  13.684  0.00  0.00    +0.000 F 
ENDBRANCH  26  27
ENDBRANCH  23  26
ENDBRANCH  19  20
ENDBRANCH   9  19
TORSDOF 5
ENDMDL
MODEL 2
REMARK VINA RESULT:      -8.7      0.791      1.218
REMARK  Name = 
REMARK  6 active torsions:
REMARK  status: ('A' for Active; 'I' for Inactive)
REMARK    1  A    between atoms: C_1  and  O_2
REMARK    2  A    between atoms: O_2  and  C_3
REMARK    3  A    between atoms: C_11  and  O_12
REMARK    4  A    between atoms: O_12  and  C_13
REMARK    5  A    between atoms: C_16  and  O_17
REMARK    6  A    between atoms: O_17  and  C_18
REMARK                            x       y       z     vdW  Elec       q    Type
REMARK                         _______ _______ _______ _____ _____    ______ ____
ROOT
ATOM      1  C   UNL     1      -0.969  12.445  20.842  0.00  0.00    +0.000 A 
ATOM      2  C   UNL     1      -1.731  12.797  21.962  0.00  0.00    +0.000 A 
ATOM      3  C   UNL     1      -1.788  11.960  23.075  0.00  0.00    +0.000 A 
ATOM      4  C   UNL     1      -1.102  10.750  23.078  0.00  0.00    +0.000 A 
ATOM      5  C   UNL     1      -0.372  10.350  21.953  0.00  0.00    +0.000 A 
ATOM      6  N   UNL     1       0.348   9.138  21.989  0.00  0.00    +0.000 N 
ATOM      7  C   UNL     1       0.993   8.610  20.860  0.00  0.00    +0.000 A 
ATOM      8  C   UNL     1       1.641   7.371  20.913  0.00  0.00    +0.000 A 
ATOM      9  C   UNL     1       2.323   6.883  19.793  0.00  0.00    +0.000 A 
ATOM     10  C   UNL     1       2.296   7.596  18.592  0.00  0.00    +0.000 A 
ATOM     11  C   UNL     1       1.722   8.866  18.553  0.00  0.00    +0.000 A 
ATOM     12  C   UNL     1       1.097   9.380  19.693  0.00  0.00    +0.000 A 
ATOM     13  C   UNL     1       0.546  10.759  19.681  0.00  0.00    +0.000 A 
ATOM     14  O   UNL     1       0.819  11.486  18.732  0.00  0.00    +0.000 OA
ATOM     15  C   UNL     1      -0.287  11.210  20.836  0.00  0.00    +0.000 A 
ATOM     16  H   UNL     1       0.039   8.461  22.677  0.00  0.00    +0.000 HD
ENDROOT
BRANCH   1  18
ATOM     17  C   UNL     1      -0.546  14.586  19.929  0.00  0.00    +0.000 C 
ATOM     18  O   UNL     1      -0.937  13.232  19.722  0.00  0.00    +0.000 OA
ENDBRANCH   1  18
BRANCH   9  19
ATOM     19  O   UNL     1       2.988   5.684  19.936  0.00  0.00    +0.000 OA
BRANCH  19  20
ATOM     20  C   UNL     1       3.696   5.186  18.859  0.00  0.00    +0.000 A 
ATOM     21  C   UNL     1       3.147   4.359  17.876  0.00  0.00    +0.000 A 
ATOM     22  C   UNL     1       3.956   3.847  16.860  0.00  0.00    +0.000 A 
ATOM     23  C   UNL     1       5.298   4.216  16.769  0.00  0.00    +0.000 A 
ATOM     24  C   UNL     1       5.840   5.069  17.729  0.00  0.00    +0.000 A 
ATOM     25  C   UNL     1       5.036   5.566  18.763  0.00  0.00    +0.000 A 
BRANCH  23  26
ATOM     26  O   UNL     1       6.003   3.601  15.781  0.00  0.00    +0.000 OA
BRANCH  26  27
ATOM     27  C   UNL     1       6.215   4.301  14.562  0.00  0.00    +0.000 C 
ATOM     28  F   UNL     1       6.061   3.551  13.452  0.00  0.00    +0.000 F 
ATOM     29  F   UNL     1       5.350   5.337  14.501  0.00  0.00    +0.000 F 
ATOM     30  F   UNL     1       7.471   4.802  14.561  0.00  0.00    +0.000 F 
ENDBRANCH  26  27
ENDBRANCH  23  26
ENDBRANCH  19  20
ENDBRANCH   9  19
TORSDOF 5
ENDMDL
MODEL 3
REMARK VINA RESULT:      -8.5      0.954      1.232
REMARK  Name = 
REMARK  6 active torsions:
REMARK  status: ('A' for Active; 'I' for Inactive)
REMARK    1  A    between atoms: C_1  and  O_2
REMARK    2  A    between atoms: O_2  and  C_3
REMARK    3  A    between atoms: C_11  and  O_12
REMARK    4  A    between atoms: O_12  and  C_13
REMARK    5  A    between atoms: C_16  and  O_17
REMARK    6  A    between atoms: O_17  and  C_18
REMARK                            x       y       z     vdW  Elec       q    Type
REMARK                         _______ _______ _______ _____ _____    ______ ____
ROOT
ATOM      1  C   UNL     1      -0.406  12.854  20.458  0.00  0.00    +0.000 A 
ATOM      2  C   UNL     1      -1.190  13.320  21.520  0.00  0.00    +0.000 A 
ATOM      3  C   UNL     1      -1.416  12.522  22.640  0.00  0.00    +0.000 A 
ATOM      4  C   UNL     1      -0.880  11.240  22.708  0.00  0.00    +0.000 A 
ATOM      5  C   UNL     1      -0.134  10.730  21.639  0.00  0.00    +0.000 A 
ATOM      6  N   UNL     1       0.433   9.443  21.742  0.00  0.00    +0.000 N 
ATOM      7  C   UNL     1       1.080   8.817  20.665  0.00  0.00    +0.000 A 
ATOM      8  C   UNL     1       1.571   7.512  20.780  0.00  0.00    +0.000 A 
ATOM      9  C   UNL     1       2.259   6.920  19.715  0.00  0.00    +0.000 A 
ATOM     10  C   UNL     1       2.394   7.603  18.503  0.00  0.00    +0.000 A 
ATOM     11  C   UNL     1       1.978   8.930  18.407  0.00  0.00    +0.000 A 
ATOM     12  C   UNL     1       1.348   9.541  19.496  0.00  0.00    +0.000 A 
ATOM     13  C   UNL     1       0.967  10.974  19.425  0.00  0.00    +0.000 A 
ATOM     14  O   UNL     1       1.384  11.641  18.485  0.00  0.00    +0.000 OA
ATOM     15  C   UNL     1       0.123  11.548  20.517  0.00  0.00    +0.000 A 
ATOM     16  H   UNL     1       0.003   8.824  22.418  0.00  0.00    +0.000 HD
ENDROOT
BRANCH   1  18
ATOM     17  C   UNL     1      -0.461  15.000  19.466  0.00  0.00    +0.000 C 
ATOM     18  O   UNL     1      -0.210  13.605  19.330  0.00  0.00    +0.000 OA
ENDBRANCH   1  18
BRANCH   9  19
ATOM     19  O   UNL     1       2.767   5.654  19.921  0.00  0.00    +0.000 OA
BRANCH  19  20
ATOM     20  C   UNL     1       3.592   5.107  18.957  0.00  0.00    +0.000 A 
ATOM     21  C   UNL     1       4.969   5.331  18.886  0.00  0.00    +0.000 A 
ATOM     22  C   UNL     1       5.713   4.792  17.835  0.00  0.00    +0.000 A 
ATOM     23  C   UNL     1       5.108   3.961  16.892  0.00  0.00    +0.000 A 
ATOM     24  C   UNL     1       3.740   3.706  16.981  0.00  0.00    +0.000 A 
ATOM     25  C   UNL     1       2.987   4.267  18.021  0.00  0.00    +0.000 A 
BRANCH  23  26
ATOM     26  O   UNL     1       5.916   3.550  15.877  0.00  0.00    +0.000 OA
BRANCH  26  27
ATOM     27  C   UNL     1       6.135   4.433  14.784  0.00  0.00    +0.000 C 
ATOM     28  F   UNL     1       5.224   5.420  14.671  0.00  0.00    +0.000 F 
ATOM     29  F   UNL     1       7.358   4.992  14.918  0.00  0.00    +0.000 F 
ATOM     30  F   UNL     1       6.125   3.716  13.638  0.00  0.00    +0.000 F 
ENDBRANCH  26  27
ENDBRANCH  23  26
ENDBRANCH  19  20
ENDBRANCH   9  19
TORSDOF 5
ENDMDL
MODEL 4
REMARK VINA RESULT:      -8.3      0.863      1.400
REMARK  Name = 
REMARK  6 active torsions:
REMARK  status: ('A' for Active; 'I' for Inactive)
REMARK    1  A    between atoms: C_1  and  O_2
REMARK    2  A    between atoms: O_2  and  C_3
REMARK    3  A    between atoms: C_11  and  O_12
REMARK    4  A    between atoms: O_12  and  C_13
REMARK    5  A    between atoms: C_16  and  O_17
REMARK    6  A    between atoms: O_17  and  C_18
REMARK                            x       y       z     vdW  Elec       q    Type
REMARK                         _______ _______ _______ _____ _____    ______ ____
ROOT
ATOM      1  C   UNL     1      -0.657  11.443  20.861  0.00  0.00    +0.000 A 
ATOM      2  C   UNL     1      -1.300  11.677  22.083  0.00  0.00    +0.000 A 
ATOM      3  C   UNL     1      -1.121  10.809  23.158  0.00  0.00    +0.000 A 
ATOM      4  C   UNL     1      -0.317   9.683  23.024  0.00  0.00    +0.000 A 
ATOM      5  C   UNL     1       0.297   9.397  21.799  0.00  0.00    +0.000 A 
ATOM      6  N   UNL     1       1.140   8.271  21.693  0.00  0.00    +0.000 N 
ATOM      7  C   UNL     1       1.683   7.849  20.469  0.00  0.00    +0.000 A 
ATOM      8  C   UNL     1       2.460   6.688  20.387  0.00  0.00    +0.000 A 
ATOM      9  C   UNL     1       3.037   6.309  19.170  0.00  0.00    +0.000 A 
ATOM     10  C   UNL     1       2.779   7.048  18.013  0.00  0.00    +0.000 A 
ATOM     11  C   UNL     1       2.073   8.248  18.101  0.00  0.00    +0.000 A 
ATOM     12  C   UNL     1       1.552   8.658  19.332  0.00  0.00    +0.000 A 
ATOM     13  C   UNL     1       0.862   9.967  19.448  0.00  0.00    +0.000 A 
ATOM     14  O   UNL     1       0.930  10.746  18.503  0.00  0.00    +0.000 OA
ATOM     15  C   UNL     1       0.144  10.292  20.718  0.00  0.00    +0.000 A 
ATOM     16  H   UNL     1       0.997   7.545  22.385  0.00  0.00    +0.000 HD
ENDROOT
BRANCH   1  18
ATOM     17  C   UNL     1      -2.152  12.207  19.195  0.00  0.00    +0.000 C 
ATOM     18  O   UNL     1      -0.856  12.260  19.780  0.00  0.00    +0.000 OA
ENDBRANCH   1  18
BRANCH   9  19
ATOM     19  O   UNL     1       3.838   5.187  19.177  0.00  0.00    +0.000 OA
BRANCH  19  20
ATOM     20  C   UNL     1       4.544   4.869  18.033  0.00  0.00    +0.000 A 
ATOM     21  C   UNL     1       4.153   3.888  17.118  0.00  0.00    +0.000 A 
ATOM     22  C   UNL     1       4.965   3.586  16.024  0.00  0.00    +0.000 A 
ATOM     23  C   UNL     1       6.132   4.312  15.787  0.00  0.00    +0.000 A 
ATOM     24  C   UNL     1       6.507   5.316  16.678  0.00  0.00    +0.000 A 
ATOM     25  C   UNL     1       5.706   5.604  17.791  0.00  0.00    +0.000 A 
BRANCH  23  26
ATOM     26  O   UNL     1       6.877   3.885  14.732  0.00  0.00    +0.000 OA
BRANCH  26  27
ATOM     27  C   UNL     1       6.342   4.021  13.422  0.00  0.00    +0.000 C 
ATOM     28  F   UNL     1       5.155   4.659  13.367  0.00  0.00    +0.000 F 
ATOM     29  F   UNL     1       7.228   4.699  12.660  0.00  0.00    +0.000 F 
ATOM     30  F   UNL     1       6.183   2.790  12.886  0.00  0.00    +0.000 F 
ENDBRANCH  26  27
ENDBRANCH  23  26
ENDBRANCH  19  20
ENDBRANCH   9  19
TORSDOF 5
ENDMDL
MODEL 5
REMARK VINA RESULT:      -8.3      5.135      9.361
REMARK  Name = 
REMARK  6 active torsions:
REMARK  status: ('A' for Active; 'I' for Inactive)
REMARK    1  A    between atoms: C_1  and  O_2
REMARK    2  A    between atoms: O_2  and  C_3
REMARK    3  A    between atoms: C_11  and  O_12
REMARK    4  A    between atoms: O_12  and  C_13
REMARK    5  A    between atoms: C_16  and  O_17
REMARK    6  A    between atoms: O_17  and  C_18
REMARK                            x       y       z     vdW  Elec       q    Type
REMARK                         _______ _______ _______ _____ _____    ______ ____
ROOT
ATOM      1  C   UNL     1       3.504   3.386  19.346  0.00  0.00    +0.000 A 
ATOM      2  C   UNL     1       3.414   2.463  20.395  0.00  0.00    +0.000 A 
ATOM      3  C   UNL     1       2.736   2.784  21.569  0.00  0.00    +0.000 A 
ATOM      4  C   UNL     1       2.157   4.038  21.723  0.00  0.00    +0.000 A 
ATOM      5  C   UNL     1       2.274   4.999  20.711  0.00  0.00    +0.000 A 
ATOM      6  N   UNL     1       1.646   6.252  20.869  0.00  0.00    +0.000 N 
ATOM      7  C   UNL     1       1.828   7.306  19.960  0.00  0.00    +0.000 A 
ATOM      8  C   UNL     1       1.246   8.558  20.183  0.00  0.00    +0.000 A 
ATOM      9  C   UNL     1       1.394   9.583  19.242  0.00  0.00    +0.000 A 
ATOM     10  C   UNL     1       2.188   9.384  18.109  0.00  0.00    +0.000 A 
ATOM     11  C   UNL     1       2.704   8.116  17.841  0.00  0.00    +0.000 A 
ATOM     12  C   UNL     1       2.500   7.076  18.752  0.00  0.00    +0.000 A 
ATOM     13  C   UNL     1       2.986   5.708  18.439  0.00  0.00    +0.000 A 
ATOM     14  O   UNL     1       3.389   5.480  17.304  0.00  0.00    +0.000 OA
ATOM     15  C   UNL     1       2.933   4.665  19.508  0.00  0.00    +0.000 A 
ATOM     16  H   UNL     1       1.436   6.523  21.822  0.00  0.00    +0.000 HD
ENDROOT
BRANCH   1  18
ATOM     17  C   UNL     1       3.743   1.984  17.456  0.00  0.00    +0.000 C 
ATOM     18  O   UNL     1       4.204   3.105  18.203  0.00  0.00    +0.000 OA
ENDBRANCH   1  18
BRANCH   9  19
ATOM     19  O   UNL     1       0.743  10.771  19.499  0.00  0.00    +0.000 OA
BRANCH  19  20
ATOM     20  C   UNL     1      -0.558  10.922  19.061  0.00  0.00    +0.000 A 
ATOM     21  C   UNL     1      -1.137  10.155  18.047  0.00  0.00    +0.000 A 
ATOM     22  C   UNL     1      -2.439  10.424  17.621  0.00  0.00    +0.000 A 
ATOM     23  C   UNL     1      -3.202  11.406  18.253  0.00  0.00    +0.000 A 
ATOM     24  C   UNL     1      -2.639  12.150  19.289  0.00  0.00    +0.000 A 
ATOM     25  C   UNL     1      -1.324  11.898  19.702  0.00  0.00    +0.000 A 
BRANCH  23  26
ATOM     26  O   UNL     1      -4.429  11.627  17.708  0.00  0.00    +0.000 OA
BRANCH  26  27
ATOM     27  C   UNL     1      -5.577  11.169  18.411  0.00  0.00    +0.000 C 
ATOM     28  F   UNL     1      -5.701  11.662  19.660  0.00  0.00    +0.000 F 
ATOM     29  F   UNL     1      -6.679  11.506  17.706  0.00  0.00    +0.000 F 
ATOM     30  F   UNL     1      -5.527   9.820  18.494  0.00  0.00    +0.000 F 
ENDBRANCH  26  27
ENDBRANCH  23  26
ENDBRANCH  19  20
ENDBRANCH   9  19
TORSDOF 5
ENDMDL
MODEL 6
REMARK VINA RESULT:      -8.1      1.125      1.218
REMARK  Name = 
REMARK  6 active torsions:
REMARK  status: ('A' for Active; 'I' for Inactive)
REMARK    1  A    between atoms: C_1  and  O_2
REMARK    2  A    between atoms: O_2  and  C_3
REMARK    3  A    between atoms: C_11  and  O_12
REMARK    4  A    between atoms: O_12  and  C_13
REMARK    5  A    between atoms: C_16  and  O_17
REMARK    6  A    between atoms: O_17  and  C_18
REMARK                            x       y       z     vdW  Elec       q    Type
REMARK                         _______ _______ _______ _____ _____    ______ ____
ROOT
ATOM      1  C   UNL     1      -1.367  12.168  21.109  0.00  0.00    +0.000 A 
ATOM      2  C   UNL     1      -1.994  12.346  22.349  0.00  0.00    +0.000 A 
ATOM      3  C   UNL     1      -1.753  11.462  23.400  0.00  0.00    +0.000 A 
ATOM      4  C   UNL     1      -0.902  10.377  23.223  0.00  0.00    +0.000 A 
ATOM      5  C   UNL     1      -0.301  10.148  21.980  0.00  0.00    +0.000 A 
ATOM      6  N   UNL     1       0.590   9.064  21.831  0.00  0.00    +0.000 N 
ATOM      7  C   UNL     1       1.126   8.695  20.587  0.00  0.00    +0.000 A 
ATOM      8  C   UNL     1       1.953   7.573  20.463  0.00  0.00    +0.000 A 
ATOM      9  C   UNL     1       2.521   7.249  19.226  0.00  0.00    +0.000 A 
ATOM     10  C   UNL     1       2.205   8.000  18.092  0.00  0.00    +0.000 A 
ATOM     11  C   UNL     1       1.448   9.164  18.222  0.00  0.00    +0.000 A 
ATOM     12  C   UNL     1       0.934   9.522  19.472  0.00  0.00    +0.000 A 
ATOM     13  C   UNL     1       0.188  10.796  19.632  0.00  0.00    +0.000 A 
ATOM     14  O   UNL     1       0.201  11.598  18.704  0.00  0.00    +0.000 OA
ATOM     15  C   UNL     1      -0.517  11.058  20.923  0.00  0.00    +0.000 A 
ATOM     16  H   UNL     1       0.494   8.317  22.509  0.00  0.00    +0.000 HD
ENDROOT
BRANCH   1  18
ATOM     17  C   UNL     1      -1.449  14.390  20.302  0.00  0.00    +0.000 C 
ATOM     18  O   UNL     1      -1.625  12.999  20.052  0.00  0.00    +0.000 OA
ENDBRANCH   1  18
BRANCH   9  19
ATOM     19  O   UNL     1       3.372   6.164  19.192  0.00  0.00    +0.000 OA
BRANCH  19  20
ATOM     20  C   UNL     1       3.926   5.795  17.981  0.00  0.00    +0.000 A 
ATOM     21  C   UNL     1       4.735   6.628  17.203  0.00  0.00    +0.000 A 
ATOM     22  C   UNL     1       5.195   6.195  15.958  0.00  0.00    +0.000 A 
ATOM     23  C   UNL     1       4.919   4.903  15.512  0.00  0.00    +0.000 A 
ATOM     24  C   UNL     1       4.141   4.057  16.301  0.00  0.00    +0.000 A 
ATOM     25  C   UNL     1       3.658   4.498  17.541  0.00  0.00    +0.000 A 
BRANCH  23  26
ATOM     26  O   UNL     1       5.358   4.616  14.256  0.00  0.00    +0.000 OA
BRANCH  26  27
ATOM     27  C   UNL     1       6.729   4.286  14.076  0.00  0.00    +0.000 C 
ATOM     28  F   UNL     1       6.958   3.332  13.152  0.00  0.00    +0.000 F 
ATOM     29  F   UNL     1       7.399   5.402  13.713  0.00  0.00    +0.000 F 
ATOM     30  F   UNL     1       7.233   3.859  15.256  0.00  0.00    +0.000 F 
ENDBRANCH  26  27
ENDBRANCH  23  26
ENDBRANCH  19  20
ENDBRANCH   9  19
TORSDOF 5
ENDMDL
MODEL 7
REMARK VINA RESULT:      -8.0      4.066      5.648
REMARK  Name = 
REMARK  6 active torsions:
REMARK  status: ('A' for Active; 'I' for Inactive)
REMARK    1  A    between atoms: C_1  and  O_2
REMARK    2  A    between atoms: O_2  and  C_3
REMARK    3  A    between atoms: C_11  and  O_12
REMARK    4  A    between atoms: O_12  and  C_13
REMARK    5  A    between atoms: C_16  and  O_17
REMARK    6  A    between atoms: O_17  and  C_18
REMARK                            x       y       z     vdW  Elec       q    Type
REMARK                         _______ _______ _______ _____ _____    ______ ____
ROOT
ATOM      1  C   UNL     1      -4.781  12.751  19.307  0.00  0.00    +0.000 A 
ATOM      2  C   UNL     1      -5.843  12.714  18.395  0.00  0.00    +0.000 A 
ATOM      3  C   UNL     1      -5.768  11.928  17.247  0.00  0.00    +0.000 A 
ATOM      4  C   UNL     1      -4.624  11.183  16.981  0.00  0.00    +0.000 A 
ATOM      5  C   UNL     1      -3.528  11.239  17.850  0.00  0.00    +0.000 A 
ATOM      6  N   UNL     1      -2.392  10.447  17.584  0.00  0.00    +0.000 N 
ATOM      7  C   UNL     1      -1.210  10.549  18.334  0.00  0.00    +0.000 A 
ATOM      8  C   UNL     1      -0.077   9.798  18.000  0.00  0.00    +0.000 A 
ATOM      9  C   UNL     1       1.076   9.872  18.789  0.00  0.00    +0.000 A 
ATOM     10  C   UNL     1       1.129  10.754  19.871  0.00  0.00    +0.000 A 
ATOM     11  C   UNL     1      -0.019  11.445  20.257  0.00  0.00    +0.000 A 
ATOM     12  C   UNL     1      -1.191  11.320  19.504  0.00  0.00    +0.000 A 
ATOM     13  C   UNL     1      -2.435  11.996  19.949  0.00  0.00    +0.000 A 
ATOM     14  O   UNL     1      -2.458  12.496  21.069  0.00  0.00    +0.000 OA
ATOM     15  C   UNL     1      -3.614  12.010  19.030  0.00  0.00    +0.000 A 
ATOM     16  H   UNL     1      -2.280  10.144  16.624  0.00  0.00    +0.000 HD
ENDROOT
BRANCH   1  18
ATOM     17  C   UNL     1      -5.919  13.339  21.296  0.00  0.00    +0.000 C 
ATOM     18  O   UNL     1      -4.819  13.552  20.417  0.00  0.00    +0.000 OA
ENDBRANCH   1  18
BRANCH   9  19
ATOM     19  O   UNL     1       2.132   9.059  18.435  0.00  0.00    +0.000 OA
BRANCH  19  20
ATOM     20  C   UNL     1       2.173   7.771  18.933  0.00  0.00    +0.000 A 
ATOM     21  C   UNL     1       1.848   7.429  20.248  0.00  0.00    +0.000 A 
ATOM     22  C   UNL     1       1.984   6.110  20.683  0.00  0.00    +0.000 A 
ATOM     23  C   UNL     1       2.368   5.106  19.793  0.00  0.00    +0.000 A 
ATOM     24  C   UNL     1       2.659   5.439  18.471  0.00  0.00    +0.000 A 
ATOM     25  C   UNL     1       2.546   6.767  18.038  0.00  0.00    +0.000 A 
BRANCH  23  26
ATOM     26  O   UNL     1       2.534   3.874  20.345  0.00  0.00    +0.000 OA
BRANCH  26  27
ATOM     27  C   UNL     1       1.404   3.018  20.447  0.00  0.00    +0.000 C 
ATOM     28  F   UNL     1       1.522   1.852  19.781  0.00  0.00    +0.000 F 
ATOM     29  F   UNL     1       1.184   2.745  21.753  0.00  0.00    +0.000 F 
ATOM     30  F   UNL     1       0.320   3.670  19.968  0.00  0.00    +0.000 F 
ENDBRANCH  26  27
ENDBRANCH  23  26
ENDBRANCH  19  20
ENDBRANCH   9  19
TORSDOF 5
ENDMDL
MODEL 8
REMARK VINA RESULT:      -8.0      4.931      9.665
REMARK  Name = 
REMARK  6 active torsions:
REMARK  status: ('A' for Active; 'I' for Inactive)
REMARK    1  A    between atoms: C_1  and  O_2
REMARK    2  A    between atoms: O_2  and  C_3
REMARK    3  A    between atoms: C_11  and  O_12
REMARK    4  A    between atoms: O_12  and  C_13
REMARK    5  A    between atoms: C_16  and  O_17
REMARK    6  A    between atoms: O_17  and  C_18
REMARK                            x       y       z     vdW  Elec       q    Type
REMARK                         _______ _______ _______ _____ _____    ______ ____
ROOT
ATOM      1  C   UNL     1       4.588   3.876  18.045  0.00  0.00    +0.000 A 
ATOM      2  C   UNL     1       5.304   3.679  16.857  0.00  0.00    +0.000 A 
ATOM      3  C   UNL     1       5.439   4.710  15.930  0.00  0.00    +0.000 A 
ATOM      4  C   UNL     1       4.844   5.946  16.163  0.00  0.00    +0.000 A 
ATOM      5  C   UNL     1       4.081   6.154  17.318  0.00  0.00    +0.000 A 
ATOM      6  N   UNL     1       3.518   7.426  17.556  0.00  0.00    +0.000 N 
ATOM      7  C   UNL     1       2.637   7.672  18.621  0.00  0.00    +0.000 A 
ATOM      8  C   UNL     1       2.042   8.927  18.788  0.00  0.00    +0.000 A 
ATOM      9  C   UNL     1       1.207   9.172  19.884  0.00  0.00    +0.000 A 
ATOM     10  C   UNL     1       0.903   8.141  20.776  0.00  0.00    +0.000 A 
ATOM     11  C   UNL     1       1.554   6.913  20.662  0.00  0.00    +0.000 A 
ATOM     12  C   UNL     1       2.438   6.692  19.602  0.00  0.00    +0.000 A 
ATOM     13  C   UNL     1       3.187   5.413  19.514  0.00  0.00    +0.000 A 
ATOM     14  O   UNL     1       3.156   4.653  20.476  0.00  0.00    +0.000 OA
ATOM     15  C   UNL     1       3.970   5.122  18.274  0.00  0.00    +0.000 A 
ATOM     16  H   UNL     1       3.401   8.016  16.741  0.00  0.00    +0.000 HD
ENDROOT
BRANCH   1  18
ATOM     17  C   UNL     1       3.569   1.794  18.518  0.00  0.00    +0.000 C 
ATOM     18  O   UNL     1       4.407   2.862  18.947  0.00  0.00    +0.000 OA
ENDBRANCH   1  18
BRANCH   9  19
ATOM     19  O   UNL     1       0.704  10.449  20.016  0.00  0.00    +0.000 OA
BRANCH  19  20
ATOM     20  C   UNL     1      -0.495  10.756  19.401  0.00  0.00    +0.000 A 
ATOM     21  C   UNL     1      -0.915  10.207  18.187  0.00  0.00    +0.000 A 
ATOM     22  C   UNL     1      -2.111  10.628  17.604  0.00  0.00    +0.000 A 
ATOM     23  C   UNL     1      -2.938  11.539  18.263  0.00  0.00    +0.000 A 
ATOM     24  C   UNL     1      -2.538  12.062  19.492  0.00  0.00    +0.000 A 
ATOM     25  C   UNL     1      -1.325  11.659  20.067  0.00  0.00    +0.000 A 
BRANCH  23  26
ATOM     26  O   UNL     1      -4.042  11.927  17.569  0.00  0.00    +0.000 OA
BRANCH  26  27
ATOM     27  C   UNL     1      -5.319  11.513  18.038  0.00  0.00    +0.000 C 
ATOM     28  F   UNL     1      -6.321  11.676  17.151  0.00  0.00    +0.000 F 
ATOM     29  F   UNL     1      -5.253  10.206  18.375  0.00  0.00    +0.000 F 
ATOM     30  F   UNL     1      -5.623  12.218  19.151  0.00  0.00    +0.000 F 
ENDBRANCH  26  27
ENDBRANCH  23  26
ENDBRANCH  19  20
ENDBRANCH   9  19
TORSDOF 5
ENDMDL
MODEL 9
REMARK VINA RESULT:      -7.8      4.955      9.632
REMARK  Name = 
REMARK  6 active torsions:
REMARK  status: ('A' for Active; 'I' for Inactive)
REMARK    1  A    between atoms: C_1  and  O_2
REMARK    2  A    between atoms: O_2  and  C_3
REMARK    3  A    between atoms: C_11  and  O_12
REMARK    4  A    between atoms: O_12  and  C_13
REMARK    5  A    between atoms: C_16  and  O_17
REMARK    6  A    between atoms: O_17  and  C_18
REMARK                            x       y       z     vdW  Elec       q    Type
REMARK                         _______ _______ _______ _____ _____    ______ ____
ROOT
ATOM      1  C   UNL     1       4.284   4.129  18.346  0.00  0.00    +0.000 A 
ATOM      2  C   UNL     1       5.037   3.903  17.187  0.00  0.00    +0.000 A 
ATOM      3  C   UNL     1       5.216   4.917  16.247  0.00  0.00    +0.000 A 
ATOM      4  C   UNL     1       4.629   6.163  16.439  0.00  0.00    +0.000 A 
ATOM      5  C   UNL     1       3.831   6.400  17.564  0.00  0.00    +0.000 A 
ATOM      6  N   UNL     1       3.276   7.682  17.761  0.00  0.00    +0.000 N 
ATOM      7  C   UNL     1       2.362   7.957  18.790  0.00  0.00    +0.000 A 
ATOM      8  C   UNL     1       1.778   9.223  18.916  0.00  0.00    +0.000 A 
ATOM      9  C   UNL     1       0.909   9.496  19.978  0.00  0.00    +0.000 A 
ATOM     10  C   UNL     1       0.562   8.485  20.877  0.00  0.00    +0.000 A 
ATOM     11  C   UNL     1       1.201   7.247  20.806  0.00  0.00    +0.000 A 
ATOM     12  C   UNL     1       2.118   6.997  19.781  0.00  0.00    +0.000 A 
ATOM     13  C   UNL     1       2.853   5.708  19.740  0.00  0.00    +0.000 A 
ATOM     14  O   UNL     1       2.781   4.965  20.713  0.00  0.00    +0.000 OA
ATOM     15  C   UNL     1       3.674   5.386  18.533  0.00  0.00    +0.000 A 
ATOM     16  H   UNL     1       3.193   8.260  16.932  0.00  0.00    +0.000 HD
ENDROOT
BRANCH   1  18
ATOM     17  C   UNL     1       3.485   1.938  18.741  0.00  0.00    +0.000 C 
ATOM     18  O   UNL     1       4.060   3.133  19.258  0.00  0.00    +0.000 OA
ENDBRANCH   1  18
BRANCH   9  19
ATOM     19  O   UNL     1       0.418  10.781  20.072  0.00  0.00    +0.000 OA
BRANCH  19  20
ATOM     20  C   UNL     1      -0.811  11.063  19.507  0.00  0.00    +0.000 A 
ATOM     21  C   UNL     1      -1.674  12.061  19.967  0.00  0.00    +0.000 A 
ATOM     22  C   UNL     1      -2.928  12.230  19.377  0.00  0.00    +0.000 A 
ATOM     23  C   UNL     1      -3.301  11.460  18.275  0.00  0.00    +0.000 A 
ATOM     24  C   UNL     1      -2.428  10.487  17.791  0.00  0.00    +0.000 A 
ATOM     25  C   UNL     1      -1.178  10.300  18.398  0.00  0.00    +0.000 A 
BRANCH  23  26
ATOM     26  O   UNL     1      -4.570  11.664  17.828  0.00  0.00    +0.000 OA
BRANCH  26  27
ATOM     27  C   UNL     1      -5.636  10.978  18.473  0.00  0.00    +0.000 C 
ATOM     28  F   UNL     1      -5.472   9.643  18.558  0.00  0.00    +0.000 F 
ATOM     29  F   UNL     1      -5.775  11.473  19.723  0.00  0.00    +0.000 F 
ATOM     30  F   UNL     1      -6.781  11.220  17.796  0.00  0.00    +0.000 F 
ENDBRANCH  26  27
ENDBRANCH  23  26
ENDBRANCH  19  20
ENDBRANCH   9  19
TORSDOF 5
ENDMDL
