MODEL 1
REMARK VINA RESULT:      -8.2      0.000      0.000
REMARK  Name = 
REMARK  9 active torsions:
REMARK  status: ('A' for Active; 'I' for Inactive)
REMARK    1  A    between atoms: C_2  and  C_3
REMARK    2  A    between atoms: C_3  and  N_4
REMARK    3  A    between atoms: C_10  and  C_11
REMARK    4  A    between atoms: N_13  and  C_14
REMARK    5  A    between atoms: C_14  and  C_15
REMARK    6  A    between atoms: C_15  and  C_16
REMARK    7  A    between atoms: C_15  and  N_22
REMARK    8  A    between atoms: N_22  and  C_23
REMARK    9  A    between atoms: N_22  and  C_24
REMARK                            x       y       z     vdW  Elec       q    Type
REMARK                         _______ _______ _______ _____ _____    ______ ____
ROOT
ATOM      1  C   UNL     1       2.319   6.368  20.162  0.00  0.00    +0.000 C 
ATOM      2  O   UNL     1       1.691   5.474  20.712  0.00  0.00    +0.000 OA
ATOM      3  N   UNL     1       3.545   6.177  19.558  0.00  0.00    +0.000 N 
ATOM      4  H   UNL     1       4.111   6.966  19.279  0.00  0.00    +0.000 HD
ENDROOT
BRANCH   1  11
ATOM      5  N   UNL     1      -0.421  11.490  21.739  0.00  0.00    +0.000 N 
ATOM      6  C   UNL     1      -0.017  11.555  20.436  0.00  0.00    +0.000 C 
ATOM      7  O   UNL     1      -0.056  12.483  19.645  0.00  0.00    +0.000 OA
ATOM      8  C   UNL     1       0.606  10.265  20.127  0.00  0.00    +0.000 A 
ATOM      9  C   UNL     1       1.130   9.790  18.943  0.00  0.00    +0.000 A 
ATOM     10  C   UNL     1       1.699   8.510  18.948  0.00  0.00    +0.000 A 
ATOM     11  C   UNL     1       1.751   7.747  20.140  0.00  0.00    +0.000 A 
ATOM     12  C   UNL     1       1.210   8.260  21.337  0.00  0.00    +0.000 A 
ATOM     13  C   UNL     1       0.641   9.522  21.292  0.00  0.00    +0.000 A 
ATOM     14  C   UNL     1       0.015  10.337  22.337  0.00  0.00    +0.000 C 
ATOM     15  O   UNL     1      -0.018  10.018  23.513  0.00  0.00    +0.000 OA
BRANCH   5  16
ATOM     16  C   UNL     1      -0.927  12.621  22.498  0.00  0.00    +0.000 C 
BRANCH  16  18
ATOM     17  C   UNL     1      -3.144  12.197  23.607  0.00  0.00    +0.000 C 
ATOM     18  C   UNL     1      -2.431  12.630  22.556  0.00  0.00    +0.000 C 
ENDBRANCH  16  18
ENDBRANCH   5  16
ENDBRANCH   1  11
BRANCH   3  19
ATOM     19  C   UNL     1       4.179   4.860  19.540  0.00  0.00    +0.000 C 
BRANCH  19  20
ATOM     20  C   UNL     1       3.944   4.032  18.222  0.00  0.00    +0.000 C 
BRANCH  20  21
ATOM     21  C   UNL     1       5.075   4.306  17.206  0.00  0.00    +0.000 A 
ATOM     22  C   UNL     1       6.403   4.544  17.596  0.00  0.00    +0.000 A 
ATOM     23  C   UNL     1       7.400   4.765  16.630  0.00  0.00    +0.000 A 
ATOM     24  C   UNL     1       7.095   4.717  15.277  0.00  0.00    +0.000 A 
ATOM     25  C   UNL     1       5.787   4.477  14.871  0.00  0.00    +0.000 A 
ATOM     26  C   UNL     1       4.781   4.296  15.828  0.00  0.00    +0.000 A 
ENDBRANCH  20  21
BRANCH  20  27
ATOM     27  N   UNL     1       3.736   2.573  18.505  0.00  0.00    +0.000 NA
ATOM     28  C   UNL     1       4.127   2.234  19.885  0.00  0.00    +0.000 C 
ATOM     29  C   UNL     1       2.329   2.171  18.344  0.00  0.00    +0.000 C 
ENDBRANCH  20  27
ENDBRANCH  19  20
ENDBRANCH   3  19
TORSDOF 7
ENDMDL
MODEL 2
REMARK VINA RESULT:      -7.7      1.223      1.356
REMARK  Name = 
REMARK  9 active torsions:
REMARK  status: ('A' for Active; 'I' for Inactive)
REMARK    1  A    between atoms: C_2  and  C_3
REMARK    2  A    between atoms: C_3  and  N_4
REMARK    3  A    between atoms: C_10  and  C_11
REMARK    4  A    between atoms: N_13  and  C_14
REMARK    5  A    between atoms: C_14  and  C_15
REMARK    6  A    between atoms: C_15  and  C_16
REMARK    7  A    between atoms: C_15  and  N_22
REMARK    8  A    between atoms: N_22  and  C_23
REMARK    9  A    between atoms: N_22  and  C_24
REMARK                            x       y       z     vdW  Elec       q    Type
REMARK                         _______ _______ _______ _____ _____    ______ ____
ROOT
ATOM      1  C   UNL     1       2.551   7.489  19.060  0.00  0.00    +0.000 C 
ATOM      2  O   UNL     1       3.242   7.575  18.053  0.00  0.00    +0.000 OA
ATOM      3  N   UNL     1       2.614   6.427  19.938  0.00  0.00    +0.000 N 
ATOM      4  H   UNL     1       1.907   6.304  20.650  0.00  0.00    +0.000 HD
ENDROOT
BRANCH   1  11
ATOM      5  N   UNL     1      -1.183  11.234  21.935  0.00  0.00    +0.000 N 
ATOM      6  C   UNL     1      -1.203  11.488  20.593  0.00  0.00    +0.000 C 
ATOM      7  O   UNL     1      -1.768  12.370  19.968  0.00  0.00    +0.000 OA
ATOM      8  C   UNL     1      -0.300  10.518  19.971  0.00  0.00    +0.000 A 
ATOM      9  C   UNL     1       0.002  10.306  18.641  0.00  0.00    +0.000 A 
ATOM     10  C   UNL     1       0.941   9.314  18.334  0.00  0.00    +0.000 A 
ATOM     11  C   UNL     1       1.574   8.574  19.363  0.00  0.00    +0.000 A 
ATOM     12  C   UNL     1       1.249   8.815  20.715  0.00  0.00    +0.000 A 
ATOM     13  C   UNL     1       0.303   9.792  20.981  0.00  0.00    +0.000 A 
ATOM     14  C   UNL     1      -0.240  10.290  22.247  0.00  0.00    +0.000 C 
ATOM     15  O   UNL     1       0.164   9.936  23.342  0.00  0.00    +0.000 OA
BRANCH   5  16
ATOM     16  C   UNL     1      -1.804  12.080  22.940  0.00  0.00    +0.000 C 
BRANCH  16  18
ATOM     17  C   UNL     1      -1.552  14.581  22.996  0.00  0.00    +0.000 C 
ATOM     18  C   UNL     1      -1.033  13.355  23.156  0.00  0.00    +0.000 C 
ENDBRANCH  16  18
ENDBRANCH   5  16
ENDBRANCH   1  11
BRANCH   3  19
ATOM     19  C   UNL     1       3.537   5.317  19.713  0.00  0.00    +0.000 C 
BRANCH  19  20
ATOM     20  C   UNL     1       3.350   4.571  18.339  0.00  0.00    +0.000 C 
BRANCH  20  21
ATOM     21  C   UNL     1       4.688   4.523  17.567  0.00  0.00    +0.000 A 
ATOM     22  C   UNL     1       5.919   4.843  18.163  0.00  0.00    +0.000 A 
ATOM     23  C   UNL     1       7.111   4.760  17.422  0.00  0.00    +0.000 A 
ATOM     24  C   UNL     1       7.095   4.329  16.103  0.00  0.00    +0.000 A 
ATOM     25  C   UNL     1       5.886   4.002  15.498  0.00  0.00    +0.000 A 
ATOM     26  C   UNL     1       4.690   4.121  16.217  0.00  0.00    +0.000 A 
ENDBRANCH  20  21
BRANCH  20  27
ATOM     27  N   UNL     1       2.712   3.225  18.513  0.00  0.00    +0.000 NA
ATOM     28  C   UNL     1       3.275   2.512  19.674  0.00  0.00    +0.000 C 
ATOM     29  C   UNL     1       1.259   3.322  18.728  0.00  0.00    +0.000 C 
ENDBRANCH  20  27
ENDBRANCH  19  20
ENDBRANCH   3  19
TORSDOF 7
ENDMDL
MODEL 3
REMARK VINA RESULT:      -7.7      1.198      1.590
REMARK  Name = 
REMARK  9 active torsions:
REMARK  status: ('A' for Active; 'I' for Inactive)
REMARK    1  A    between atoms: C_2  and  C_3
REMARK    2  A    between atoms: C_3  and  N_4
REMARK    3  A    between atoms: C_10  and  C_11
REMARK    4  A    between atoms: N_13  and  C_14
REMARK    5  A    between atoms: C_14  and  C_15
REMARK    6  A    between atoms: C_15  and  C_16
REMARK    7  A    between atoms: C_15  and  N_22
REMARK    8  A    between atoms: N_22  and  C_23
REMARK    9  A    between atoms: N_22  and  C_24
REMARK                            x       y       z     vdW  Elec       q    Type
REMARK                         _______ _______ _______ _____ _____    ______ ____
ROOT
ATOM      1  C   UNL     1       2.431   7.251  19.537  0.00  0.00    +0.000 C 
ATOM      2  O   UNL     1       3.171   7.221  18.562  0.00  0.00    +0.000 OA
ATOM      3  N   UNL     1       2.332   6.222  20.450  0.00  0.00    +0.000 N 
ATOM      4  H   UNL     1       1.586   6.206  21.130  0.00  0.00    +0.000 HD
ENDROOT
BRANCH   1  11
ATOM      5  N   UNL     1      -1.014  11.466  22.107  0.00  0.00    +0.000 N 
ATOM      6  C   UNL     1      -0.903  11.702  20.766  0.00  0.00    +0.000 C 
ATOM      7  O   UNL     1      -1.306  12.638  20.096  0.00  0.00    +0.000 OA
ATOM      8  C   UNL     1      -0.083  10.620  20.217  0.00  0.00    +0.000 A 
ATOM      9  C   UNL     1       0.288  10.354  18.915  0.00  0.00    +0.000 A 
ATOM     10  C   UNL     1       1.118   9.250  18.685  0.00  0.00    +0.000 A 
ATOM     11  C   UNL     1       1.576   8.453  19.761  0.00  0.00    +0.000 A 
ATOM     12  C   UNL     1       1.185   8.750  21.083  0.00  0.00    +0.000 A 
ATOM     13  C   UNL     1       0.350   9.839  21.273  0.00  0.00    +0.000 A 
ATOM     14  C   UNL     1      -0.220  10.417  22.493  0.00  0.00    +0.000 C 
ATOM     15  O   UNL     1       0.055  10.031  23.616  0.00  0.00    +0.000 OA
BRANCH   5  16
ATOM     16  C   UNL     1      -1.598  12.396  23.058  0.00  0.00    +0.000 C 
BRANCH  16  18
ATOM     17  C   UNL     1      -4.048  12.812  22.677  0.00  0.00    +0.000 C 
ATOM     18  C   UNL     1      -3.063  12.128  23.278  0.00  0.00    +0.000 C 
ENDBRANCH  16  18
ENDBRANCH   5  16
ENDBRANCH   1  11
BRANCH   3  19
ATOM     19  C   UNL     1       3.127   5.004  20.301  0.00  0.00    +0.000 C 
BRANCH  19  20
ATOM     20  C   UNL     1       2.870   4.205  18.969  0.00  0.00    +0.000 C 
BRANCH  20  21
ATOM     21  C   UNL     1       4.133   4.222  18.080  0.00  0.00    +0.000 A 
ATOM     22  C   UNL     1       4.089   3.987  16.695  0.00  0.00    +0.000 A 
ATOM     23  C   UNL     1       5.264   4.036  15.927  0.00  0.00    +0.000 A 
ATOM     24  C   UNL     1       6.481   4.351  16.516  0.00  0.00    +0.000 A 
ATOM     25  C   UNL     1       6.544   4.593  17.884  0.00  0.00    +0.000 A 
ATOM     26  C   UNL     1       5.383   4.505  18.663  0.00  0.00    +0.000 A 
ENDBRANCH  20  21
BRANCH  20  27
ATOM     27  N   UNL     1       2.345   2.826  19.235  0.00  0.00    +0.000 NA
ATOM     28  C   UNL     1       2.159   2.592  20.679  0.00  0.00    +0.000 C 
ATOM     29  C   UNL     1       1.042   2.592  18.590  0.00  0.00    +0.000 C 
ENDBRANCH  20  27
ENDBRANCH  19  20
ENDBRANCH   3  19
TORSDOF 7
ENDMDL
MODEL 4
REMARK VINA RESULT:      -7.6      0.878      1.526
REMARK  Name = 
REMARK  9 active torsions:
REMARK  status: ('A' for Active; 'I' for Inactive)
REMARK    1  A    between atoms: C_2  and  C_3
REMARK    2  A    between atoms: C_3  and  N_4
REMARK    3  A    between atoms: C_10  and  C_11
REMARK    4  A    between atoms: N_13  and  C_14
REMARK    5  A    between atoms: C_14  and  C_15
REMARK    6  A    between atoms: C_15  and  C_16
REMARK    7  A    between atoms: C_15  and  N_22
REMARK    8  A    between atoms: N_22  and  C_23
REMARK    9  A    between atoms: N_22  and  C_24
REMARK                            x       y       z     vdW  Elec       q    Type
REMARK                         _______ _______ _______ _____ _____    ______ ____
ROOT
ATOM      1  C   UNL     1       2.233   6.549  20.106  0.00  0.00    +0.000 C 
ATOM      2  O   UNL     1       1.568   5.769  20.775  0.00  0.00    +0.000 OA
ATOM      3  N   UNL     1       3.435   6.213  19.518  0.00  0.00    +0.000 N 
ATOM      4  H   UNL     1       4.037   6.927  19.133  0.00  0.00    +0.000 HD
ENDROOT
BRANCH   1  11
ATOM      5  N   UNL     1      -0.311  11.931  21.000  0.00  0.00    +0.000 N 
ATOM      6  C   UNL     1       0.160  11.840  19.721  0.00  0.00    +0.000 C 
ATOM      7  O   UNL     1       0.209  12.680  18.839  0.00  0.00    +0.000 OA
ATOM      8  C   UNL     1       0.729  10.497  19.580  0.00  0.00    +0.000 A 
ATOM      9  C   UNL     1       1.287   9.877  18.482  0.00  0.00    +0.000 A 
ATOM     10  C   UNL     1       1.787   8.579  18.648  0.00  0.00    +0.000 A 
ATOM     11  C   UNL     1       1.739   7.943  19.913  0.00  0.00    +0.000 A 
ATOM     12  C   UNL     1       1.167   8.604  21.020  0.00  0.00    +0.000 A 
ATOM     13  C   UNL     1       0.667   9.879  20.815  0.00  0.00    +0.000 A 
ATOM     14  C   UNL     1       0.034  10.827  21.735  0.00  0.00    +0.000 C 
ATOM     15  O   UNL     1      -0.074  10.635  22.935  0.00  0.00    +0.000 OA
BRANCH   5  16
ATOM     16  C   UNL     1      -0.795  13.157  21.611  0.00  0.00    +0.000 C 
BRANCH  16  18
ATOM     17  C   UNL     1       0.259  15.417  21.933  0.00  0.00    +0.000 C 
ATOM     18  C   UNL     1       0.333  14.079  21.990  0.00  0.00    +0.000 C 
ENDBRANCH  16  18
ENDBRANCH   5  16
ENDBRANCH   1  11
BRANCH   3  19
ATOM     19  C   UNL     1       3.996   4.872  19.664  0.00  0.00    +0.000 C 
BRANCH  19  20
ATOM     20  C   UNL     1       3.825   3.944  18.403  0.00  0.00    +0.000 C 
BRANCH  20  21
ATOM     21  C   UNL     1       4.974   4.185  17.399  0.00  0.00    +0.000 A 
ATOM     22  C   UNL     1       4.796   4.096  16.007  0.00  0.00    +0.000 A 
ATOM     23  C   UNL     1       5.869   4.347  15.135  0.00  0.00    +0.000 A 
ATOM     24  C   UNL     1       7.110   4.721  15.631  0.00  0.00    +0.000 A 
ATOM     25  C   UNL     1       7.304   4.819  17.005  0.00  0.00    +0.000 A 
ATOM     26  C   UNL     1       6.251   4.531  17.882  0.00  0.00    +0.000 A 
ENDBRANCH  20  21
BRANCH  20  27
ATOM     27  N   UNL     1       3.659   2.503  18.785  0.00  0.00    +0.000 NA
ATOM     28  C   UNL     1       4.321   2.209  20.069  0.00  0.00    +0.000 C 
ATOM     29  C   UNL     1       2.243   2.128  18.934  0.00  0.00    +0.000 C 
ENDBRANCH  20  27
ENDBRANCH  19  20
ENDBRANCH   3  19
TORSDOF 7
ENDMDL
MODEL 5
REMARK VINA RESULT:      -7.6      2.710      9.259
REMARK  Name = 
REMARK  9 active torsions:
REMARK  status: ('A' for Active; 'I' for Inactive)
REMARK    1  A    between atoms: C_2  and  C_3
REMARK    2  A    between atoms: C_3  and  N_4
REMARK    3  A    between atoms: C_10  and  C_11
REMARK    4  A    between atoms: N_13  and  C_14
REMARK    5  A    between atoms: C_14  and  C_15
REMARK    6  A    between atoms: C_15  and  C_16
REMARK    7  A    between atoms: C_15  and  N_22
REMARK    8  A    between atoms: N_22  and  C_23
REMARK    9  A    between atoms: N_22  and  C_24
REMARK                            x       y       z     vdW  Elec       q    Type
REMARK                         _______ _______ _______ _____ _____    ______ ____
ROOT
ATOM      1  C   UNL     1       1.392   8.197  20.553  0.00  0.00    +0.000 C 
ATOM      2  O   UNL     1       1.144   8.216  21.751  0.00  0.00    +0.000 OA
ATOM      3  N   UNL     1       1.053   9.218  19.689  0.00  0.00    +0.000 N 
ATOM      4  H   UNL     1       1.109   9.087  18.689  0.00  0.00    +0.000 HD
ENDROOT
BRANCH   1  11
ATOM      5  N   UNL     1       4.604   4.596  16.954  0.00  0.00    +0.000 N 
ATOM      6  C   UNL     1       4.117   3.887  18.016  0.00  0.00    +0.000 C 
ATOM      7  O   UNL     1       4.315   2.730  18.346  0.00  0.00    +0.000 OA
ATOM      8  C   UNL     1       3.326   4.825  18.816  0.00  0.00    +0.000 A 
ATOM      9  C   UNL     1       2.581   4.613  19.958  0.00  0.00    +0.000 A 
ATOM     10  C   UNL     1       1.945   5.719  20.537  0.00  0.00    +0.000 A 
ATOM     11  C   UNL     1       2.088   7.011  19.975  0.00  0.00    +0.000 A 
ATOM     12  C   UNL     1       2.860   7.198  18.809  0.00  0.00    +0.000 A 
ATOM     13  C   UNL     1       3.461   6.080  18.254  0.00  0.00    +0.000 A 
ATOM     14  C   UNL     1       4.322   5.931  17.078  0.00  0.00    +0.000 C 
ATOM     15  O   UNL     1       4.729   6.870  16.415  0.00  0.00    +0.000 OA
BRANCH   5  16
ATOM     16  C   UNL     1       5.583   4.088  16.008  0.00  0.00    +0.000 C 
BRANCH  16  18
ATOM     17  C   UNL     1       7.505   4.569  17.555  0.00  0.00    +0.000 C 
ATOM     18  C   UNL     1       6.972   4.572  16.324  0.00  0.00    +0.000 C 
ENDBRANCH  16  18
ENDBRANCH   5  16
ENDBRANCH   1  11
BRANCH   3  19
ATOM     19  C   UNL     1       0.362  10.413  20.169  0.00  0.00    +0.000 C 
BRANCH  19  20
ATOM     20  C   UNL     1      -0.021  11.449  19.048  0.00  0.00    +0.000 C 
BRANCH  20  21
ATOM     21  C   UNL     1      -1.438  11.157  18.506  0.00  0.00    +0.000 A 
ATOM     22  C   UNL     1      -2.578  11.849  18.947  0.00  0.00    +0.000 A 
ATOM     23  C   UNL     1      -3.841  11.560  18.405  0.00  0.00    +0.000 A 
ATOM     24  C   UNL     1      -3.979  10.612  17.400  0.00  0.00    +0.000 A 
ATOM     25  C   UNL     1      -2.861   9.921  16.946  0.00  0.00    +0.000 A 
ATOM     26  C   UNL     1      -1.605  10.174  17.510  0.00  0.00    +0.000 A 
ENDBRANCH  20  21
BRANCH  20  27
ATOM     27  N   UNL     1       0.161  12.866  19.507  0.00  0.00    +0.000 NA
ATOM     28  C   UNL     1       1.476  13.057  20.145  0.00  0.00    +0.000 C 
ATOM     29  C   UNL     1       0.078  13.826  18.395  0.00  0.00    +0.000 C 
ENDBRANCH  20  27
ENDBRANCH  19  20
ENDBRANCH   3  19
TORSDOF 7
ENDMDL
MODEL 6
REMARK VINA RESULT:      -7.6      2.493      9.493
REMARK  Name = 
REMARK  9 active torsions:
REMARK  status: ('A' for Active; 'I' for Inactive)
REMARK    1  A    between atoms: C_2  and  C_3
REMARK    2  A    between atoms: C_3  and  N_4
REMARK    3  A    between atoms: C_10  and  C_11
REMARK    4  A    between atoms: N_13  and  C_14
REMARK    5  A    between atoms: C_14  and  C_15
REMARK    6  A    between atoms: C_15  and  C_16
REMARK    7  A    between atoms: C_15  and  N_22
REMARK    8  A    between atoms: N_22  and  C_23
REMARK    9  A    between atoms: N_22  and  C_24
REMARK                            x       y       z     vdW  Elec       q    Type
REMARK                         _______ _______ _______ _____ _____    ______ ____
ROOT
ATOM      1  C   UNL     1       1.413   8.941  18.961  0.00  0.00    +0.000 C 
ATOM      2  O   UNL     1       1.248   9.692  18.009  0.00  0.00    +0.000 OA
ATOM      3  N   UNL     1       0.766   9.091  20.170  0.00  0.00    +0.000 N 
ATOM      4  H   UNL     1       1.062   8.567  20.982  0.00  0.00    +0.000 HD
ENDROOT
BRANCH   1  11
ATOM      5  N   UNL     1       5.552   5.113  16.850  0.00  0.00    +0.000 N 
ATOM      6  C   UNL     1       5.113   4.702  18.077  0.00  0.00    +0.000 C 
ATOM      7  O   UNL     1       5.494   3.782  18.781  0.00  0.00    +0.000 OA
ATOM      8  C   UNL     1       4.092   5.664  18.499  0.00  0.00    +0.000 A 
ATOM      9  C   UNL     1       3.301   5.685  19.629  0.00  0.00    +0.000 A 
ATOM     10  C   UNL     1       2.420   6.762  19.789  0.00  0.00    +0.000 A 
ATOM     11  C   UNL     1       2.368   7.803  18.830  0.00  0.00    +0.000 A 
ATOM     12  C   UNL     1       3.192   7.757  17.687  0.00  0.00    +0.000 A 
ATOM     13  C   UNL     1       4.040   6.669  17.552  0.00  0.00    +0.000 A 
ATOM     14  C   UNL     1       5.015   6.328  16.513  0.00  0.00    +0.000 C 
ATOM     15  O   UNL     1       5.297   7.064  15.583  0.00  0.00    +0.000 OA
BRANCH   5  16
ATOM     16  C   UNL     1       6.690   4.540  16.152  0.00  0.00    +0.000 C 
BRANCH  16  18
ATOM     17  C   UNL     1       6.001   4.015  13.791  0.00  0.00    +0.000 C 
ATOM     18  C   UNL     1       6.261   3.615  15.045  0.00  0.00    +0.000 C 
ENDBRANCH  16  18
ENDBRANCH   5  16
ENDBRANCH   1  11
BRANCH   3  19
ATOM     19  C   UNL     1      -0.180  10.183  20.388  0.00  0.00    +0.000 C 
BRANCH  19  20
ATOM     20  C   UNL     1       0.346  11.336  21.321  0.00  0.00    +0.000 C 
BRANCH  20  21
ATOM     21  C   UNL     1       0.356  12.681  20.561  0.00  0.00    +0.000 A 
ATOM     22  C   UNL     1       0.935  13.847  21.089  0.00  0.00    +0.000 A 
ATOM     23  C   UNL     1       0.938  15.040  20.347  0.00  0.00    +0.000 A 
ATOM     24  C   UNL     1       0.401  15.077  19.068  0.00  0.00    +0.000 A 
ATOM     25  C   UNL     1      -0.172  13.932  18.525  0.00  0.00    +0.000 A 
ATOM     26  C   UNL     1      -0.215  12.750  19.275  0.00  0.00    +0.000 A 
ENDBRANCH  20  21
BRANCH  20  27
ATOM     27  N   UNL     1      -0.400  11.391  22.621  0.00  0.00    +0.000 NA
ATOM     28  C   UNL     1      -1.766  11.914  22.434  0.00  0.00    +0.000 C 
ATOM     29  C   UNL     1      -0.529  10.064  23.245  0.00  0.00    +0.000 C 
ENDBRANCH  20  27
ENDBRANCH  19  20
ENDBRANCH   3  19
TORSDOF 7
ENDMDL
MODEL 7
REMARK VINA RESULT:      -7.6      2.704      9.369
REMARK  Name = 
REMARK  9 active torsions:
REMARK  status: ('A' for Active; 'I' for Inactive)
REMARK    1  A    between atoms: C_2  and  C_3
REMARK    2  A    between atoms: C_3  and  N_4
REMARK    3  A    between atoms: C_10  and  C_11
REMARK    4  A    between atoms: N_13  and  C_14
REMARK    5  A    between atoms: C_14  and  C_15
REMARK    6  A    between atoms: C_15  and  C_16
REMARK    7  A    between atoms: C_15  and  N_22
REMARK    8  A    between atoms: N_22  and  C_23
REMARK    9  A    between atoms: N_22  and  C_24
REMARK                            x       y       z     vdW  Elec       q    Type
REMARK                         _______ _______ _______ _____ _____    ______ ____
ROOT
ATOM      1  C   UNL     1       1.439   8.234  20.574  0.00  0.00    +0.000 C 
ATOM      2  O   UNL     1       1.433   8.363  21.791  0.00  0.00    +0.000 OA
ATOM      3  N   UNL     1       0.874   9.149  19.709  0.00  0.00    +0.000 N 
ATOM      4  H   UNL     1       0.738   8.921  18.735  0.00  0.00    +0.000 HD
ENDROOT
BRANCH   1  11
ATOM      5  N   UNL     1       4.677   4.580  17.053  0.00  0.00    +0.000 N 
ATOM      6  C   UNL     1       3.996   3.852  17.987  0.00  0.00    +0.000 C 
ATOM      7  O   UNL     1       4.034   2.659  18.234  0.00  0.00    +0.000 OA
ATOM      8  C   UNL     1       3.214   4.809  18.774  0.00  0.00    +0.000 A 
ATOM      9  C   UNL     1       2.319   4.596  19.802  0.00  0.00    +0.000 A 
ATOM     10  C   UNL     1       1.735   5.718  20.402  0.00  0.00    +0.000 A 
ATOM     11  C   UNL     1       2.075   7.026  19.976  0.00  0.00    +0.000 A 
ATOM     12  C   UNL     1       2.996   7.213  18.924  0.00  0.00    +0.000 A 
ATOM     13  C   UNL     1       3.543   6.080  18.343  0.00  0.00    +0.000 A 
ATOM     14  C   UNL     1       4.519   5.925  17.262  0.00  0.00    +0.000 C 
ATOM     15  O   UNL     1       5.098   6.861  16.734  0.00  0.00    +0.000 OA
BRANCH   5  16
ATOM     16  C   UNL     1       5.706   4.040  16.182  0.00  0.00    +0.000 C 
BRANCH  16  18
ATOM     17  C   UNL     1       6.252   4.024  13.728  0.00  0.00    +0.000 C 
ATOM     18  C   UNL     1       5.402   4.291  14.729  0.00  0.00    +0.000 C 
ENDBRANCH  16  18
ENDBRANCH   5  16
ENDBRANCH   1  11
BRANCH   3  19
ATOM     19  C   UNL     1       0.222  10.357  20.211  0.00  0.00    +0.000 C 
BRANCH  19  20
ATOM     20  C   UNL     1      -0.132  11.423  19.108  0.00  0.00    +0.000 C 
BRANCH  20  21
ATOM     21  C   UNL     1      -1.523  11.128  18.503  0.00  0.00    +0.000 A 
ATOM     22  C   UNL     1      -1.741  10.108  17.562  0.00  0.00    +0.000 A 
ATOM     23  C   UNL     1      -3.030   9.866  17.060  0.00  0.00    +0.000 A 
ATOM     24  C   UNL     1      -4.114  10.606  17.510  0.00  0.00    +0.000 A 
ATOM     25  C   UNL     1      -3.920  11.617  18.445  0.00  0.00    +0.000 A 
ATOM     26  C   UNL     1      -2.631  11.891  18.920  0.00  0.00    +0.000 A 
ENDBRANCH  20  21
BRANCH  20  27
ATOM     27  N   UNL     1       0.012  12.827  19.616  0.00  0.00    +0.000 NA
ATOM     28  C   UNL     1       0.713  12.857  20.913  0.00  0.00    +0.000 C 
ATOM     29  C   UNL     1       0.781  13.677  18.691  0.00  0.00    +0.000 C 
ENDBRANCH  20  27
ENDBRANCH  19  20
ENDBRANCH   3  19
TORSDOF 7
ENDMDL
MODEL 8
REMARK VINA RESULT:      -7.6      2.838      4.714
REMARK  Name = 
REMARK  9 active torsions:
REMARK  status: ('A' for Active; 'I' for Inactive)
REMARK    1  A    between atoms: C_2  and  C_3
REMARK    2  A    between atoms: C_3  and  N_4
REMARK    3  A    between atoms: C_10  and  C_11
REMARK    4  A    between atoms: N_13  and  C_14
REMARK    5  A    between atoms: C_14  and  C_15
REMARK    6  A    between atoms: C_15  and  C_16
REMARK    7  A    between atoms: C_15  and  N_22
REMARK    8  A    between atoms: N_22  and  C_23
REMARK    9  A    between atoms: N_22  and  C_24
REMARK                            x       y       z     vdW  Elec       q    Type
REMARK                         _______ _______ _______ _____ _____    ______ ____
ROOT
ATOM      1  C   UNL     1       1.667   9.453  18.175  0.00  0.00    +0.000 C 
ATOM      2  O   UNL     1       2.388  10.084  17.413  0.00  0.00    +0.000 OA
ATOM      3  N   UNL     1       1.833   8.110  18.441  0.00  0.00    +0.000 N 
ATOM      4  H   UNL     1       1.116   7.588  18.926  0.00  0.00    +0.000 HD
ENDROOT
BRANCH   1  11
ATOM      5  N   UNL     1      -3.588  12.175  19.276  0.00  0.00    +0.000 N 
ATOM      6  C   UNL     1      -2.813  12.174  20.402  0.00  0.00    +0.000 C 
ATOM      7  O   UNL     1      -3.072  12.543  21.535  0.00  0.00    +0.000 OA
ATOM      8  C   UNL     1      -1.550  11.528  20.039  0.00  0.00    +0.000 A 
ATOM      9  C   UNL     1      -0.410  11.317  20.786  0.00  0.00    +0.000 A 
ATOM     10  C   UNL     1       0.651  10.632  20.181  0.00  0.00    +0.000 A 
ATOM     11  C   UNL     1       0.538  10.153  18.853  0.00  0.00    +0.000 A 
ATOM     12  C   UNL     1      -0.641  10.380  18.114  0.00  0.00    +0.000 A 
ATOM     13  C   UNL     1      -1.664  11.075  18.738  0.00  0.00    +0.000 A 
ATOM     14  C   UNL     1      -2.997  11.460  18.268  0.00  0.00    +0.000 C 
ATOM     15  O   UNL     1      -3.460  11.116  17.193  0.00  0.00    +0.000 OA
BRANCH   5  16
ATOM     16  C   UNL     1      -4.987  12.564  19.244  0.00  0.00    +0.000 C 
BRANCH  16  18
ATOM     17  C   UNL     1      -6.676  10.775  18.725  0.00  0.00    +0.000 C 
ATOM     18  C   UNL     1      -5.896  11.420  19.605  0.00  0.00    +0.000 C 
ENDBRANCH  16  18
ENDBRANCH   5  16
ENDBRANCH   1  11
BRANCH   3  19
ATOM     19  C   UNL     1       2.909   7.344  17.814  0.00  0.00    +0.000 C 
BRANCH  19  20
ATOM     20  C   UNL     1       3.561   6.246  18.735  0.00  0.00    +0.000 C 
BRANCH  20  21
ATOM     21  C   UNL     1       2.541   5.128  19.045  0.00  0.00    +0.000 A 
ATOM     22  C   UNL     1       2.073   4.235  18.066  0.00  0.00    +0.000 A 
ATOM     23  C   UNL     1       1.162   3.221  18.405  0.00  0.00    +0.000 A 
ATOM     24  C   UNL     1       0.737   3.062  19.717  0.00  0.00    +0.000 A 
ATOM     25  C   UNL     1       1.194   3.933  20.701  0.00  0.00    +0.000 A 
ATOM     26  C   UNL     1       2.070   4.972  20.363  0.00  0.00    +0.000 A 
ENDBRANCH  20  21
BRANCH  20  27
ATOM     27  N   UNL     1       4.853   5.735  18.169  0.00  0.00    +0.000 NA
ATOM     28  C   UNL     1       5.514   6.757  17.336  0.00  0.00    +0.000 C 
ATOM     29  C   UNL     1       5.809   5.353  19.222  0.00  0.00    +0.000 C 
ENDBRANCH  20  27
ENDBRANCH  19  20
ENDBRANCH   3  19
TORSDOF 7
ENDMDL
MODEL 9
REMARK VINA RESULT:      -7.6      3.029      3.724
REMARK  Name = 
REMARK  9 active torsions:
REMARK  status: ('A' for Active; 'I' for Inactive)
REMARK    1  A    between atoms: C_2  and  C_3
REMARK    2  A    between atoms: C_3  and  N_4
REMARK    3  A    between atoms: C_10  and  C_11
REMARK    4  A    between atoms: N_13  and  C_14
REMARK    5  A    between atoms: C_14  and  C_15
REMARK    6  A    between atoms: C_15  and  C_16
REMARK    7  A    between atoms: C_15  and  N_22
REMARK    8  A    between atoms: N_22  and  C_23
REMARK    9  A    between atoms: N_22  and  C_24
REMARK                            x       y       z     vdW  Elec       q    Type
REMARK                         _______ _______ _______ _____ _____    ______ ____
ROOT
ATOM      1  C   UNL     1       2.108   8.429  18.331  0.00  0.00    +0.000 C 
ATOM      2  O   UNL     1       2.885   8.706  17.426  0.00  0.00    +0.000 OA
ATOM      3  N   UNL     1       2.276   7.349  19.174  0.00  0.00    +0.000 N 
ATOM      4  H   UNL     1       1.527   7.050  19.783  0.00  0.00    +0.000 HD
ENDROOT
BRANCH   1  11
ATOM      5  N   UNL     1      -3.106  11.329  17.537  0.00  0.00    +0.000 N 
ATOM      6  C   UNL     1      -2.573  11.645  18.755  0.00  0.00    +0.000 C 
ATOM      7  O   UNL     1      -3.032  12.314  19.665  0.00  0.00    +0.000 OA
ATOM      8  C   UNL     1      -1.299  10.928  18.851  0.00  0.00    +0.000 A 
ATOM      9  C   UNL     1      -0.344  10.939  19.846  0.00  0.00    +0.000 A 
ATOM     10  C   UNL     1       0.778  10.116  19.684  0.00  0.00    +0.000 A 
ATOM     11  C   UNL     1       0.906   9.286  18.543  0.00  0.00    +0.000 A 
ATOM     12  C   UNL     1      -0.089   9.292  17.544  0.00  0.00    +0.000 A 
ATOM     13  C   UNL     1      -1.176  10.130  17.729  0.00  0.00    +0.000 A 
ATOM     14  C   UNL     1      -2.367  10.363  16.907  0.00  0.00    +0.000 C 
ATOM     15  O   UNL     1      -2.624   9.732  15.896  0.00  0.00    +0.000 OA
BRANCH   5  16
ATOM     16  C   UNL     1      -4.448  11.688  17.112  0.00  0.00    +0.000 C 
BRANCH  16  18
ATOM     17  C   UNL     1      -6.691  11.379  18.205  0.00  0.00    +0.000 C 
ATOM     18  C   UNL     1      -5.499  10.888  17.834  0.00  0.00    +0.000 C 
ENDBRANCH  16  18
ENDBRANCH   5  16
ENDBRANCH   1  11
BRANCH   3  19
ATOM     19  C   UNL     1       3.421   6.453  19.031  0.00  0.00    +0.000 C 
BRANCH  19  20
ATOM     20  C   UNL     1       3.252   5.334  17.937  0.00  0.00    +0.000 C 
BRANCH  20  21
ATOM     21  C   UNL     1       4.554   5.178  17.121  0.00  0.00    +0.000 A 
ATOM     22  C   UNL     1       4.762   4.122  16.217  0.00  0.00    +0.000 A 
ATOM     23  C   UNL     1       5.957   4.039  15.482  0.00  0.00    +0.000 A 
ATOM     24  C   UNL     1       6.935   5.016  15.610  0.00  0.00    +0.000 A 
ATOM     25  C   UNL     1       6.745   6.071  16.495  0.00  0.00    +0.000 A 
ATOM     26  C   UNL     1       5.575   6.139  17.261  0.00  0.00    +0.000 A 
ENDBRANCH  20  21
BRANCH  20  27
ATOM     27  N   UNL     1       2.757   4.045  18.523  0.00  0.00    +0.000 NA
ATOM     28  C   UNL     1       3.044   3.969  19.967  0.00  0.00    +0.000 C 
ATOM     29  C   UNL     1       1.303   3.883  18.363  0.00  0.00    +0.000 C 
ENDBRANCH  20  27
ENDBRANCH  19  20
ENDBRANCH   3  19
TORSDOF 7
ENDMDL
