MODEL 1
REMARK VINA RESULT:      -6.8      0.000      0.000
REMARK  Name = 
REMARK  7 active torsions:
REMARK  status: ('A' for Active; 'I' for Inactive)
REMARK    1  A    between atoms: C_1  and  O_2
REMARK    2  A    between atoms: O_2  and  C_3
REMARK    3  A    between atoms: C_3  and  C_5
REMARK    4  A    between atoms: C_8  and  C_9
REMARK    5  A    between atoms: C_10  and  C_11
REMARK    6  A    between atoms: C_14  and  C_15
REMARK    7  A    between atoms: C_15  and  O_17
REMARK                            x       y       z     vdW  Elec       q    Type
REMARK                         _______ _______ _______ _____ _____    ______ ____
ROOT
ATOM      1  C   UNL     1       2.313   7.227  18.811  0.00  0.00    +0.000 C 
ATOM      2  C   UNL     1       2.045   8.536  18.679  0.00  0.00    +0.000 C 
ENDROOT
BRANCH   1   6
ATOM      3  C   UNL     1       5.299   5.174  16.493  0.00  0.00    +0.000 A 
ATOM      4  C   UNL     1       5.198   6.569  16.472  0.00  0.00    +0.000 A 
ATOM      5  C   UNL     1       4.225   7.219  17.242  0.00  0.00    +0.000 A 
ATOM      6  C   UNL     1       3.327   6.490  18.038  0.00  0.00    +0.000 A 
ATOM      7  C   UNL     1       3.449   5.094  18.068  0.00  0.00    +0.000 A 
ATOM      8  C   UNL     1       4.420   4.440  17.298  0.00  0.00    +0.000 A 
BRANCH   3   9
ATOM      9  C   UNL     1       6.351   4.524  15.664  0.00  0.00    +0.000 C 
ATOM     10  O   UNL     1       7.546   4.730  15.804  0.00  0.00    +0.000 OA
BRANCH   9  12
ATOM     11  C   UNL     1       6.275   3.869  13.423  0.00  0.00    +0.000 C 
ATOM     12  O   UNL     1       5.791   3.689  14.753  0.00  0.00    +0.000 OA
ENDBRANCH   9  12
ENDBRANCH   3   9
ENDBRANCH   1   6
BRANCH   2  13
ATOM     13  C   UNL     1       1.123   9.194  19.548  0.00  0.00    +0.000 A 
ATOM     14  N   UNL     1       0.116   9.980  19.216  0.00  0.00    +0.000 NA
ATOM     15  C   UNL     1      -0.589  10.378  20.341  0.00  0.00    +0.000 A 
ATOM     16  C   UNL     1      -0.097   9.915  21.545  0.00  0.00    +0.000 A 
ATOM     17  S   UNL     1       1.271   8.931  21.248  0.00  0.00    +0.000 S 
BRANCH  16  18
ATOM     18  C   UNL     1      -0.589  10.162  22.882  0.00  0.00    +0.000 C 
ATOM     19  O   UNL     1      -1.420  11.003  23.193  0.00  0.00    +0.000 OA
BRANCH  18  20
ATOM     20  O   UNL     1      -0.022   9.345  23.811  0.00  0.00    +0.000 OA
ATOM     21  H   UNL     1       0.944   9.455  23.863  0.00  0.00    +0.000 HD
ENDBRANCH  18  20
ENDBRANCH  16  18
ENDBRANCH   2  13
TORSDOF 6
ENDMDL
MODEL 2
REMARK VINA RESULT:      -6.8      6.473      8.157
REMARK  Name = 
REMARK  7 active torsions:
REMARK  status: ('A' for Active; 'I' for Inactive)
REMARK    1  A    between atoms: C_1  and  O_2
REMARK    2  A    between atoms: O_2  and  C_3
REMARK    3  A    between atoms: C_3  and  C_5
REMARK    4  A    between atoms: C_8  and  C_9
REMARK    5  A    between atoms: C_10  and  C_11
REMARK    6  A    between atoms: C_14  and  C_15
REMARK    7  A    between atoms: C_15  and  O_17
REMARK                            x       y       z     vdW  Elec       q    Type
REMARK                         _______ _______ _______ _____ _____    ______ ____
ROOT
ATOM      1  C   UNL     1       8.546   8.969  17.912  0.00  0.00    +0.000 C 
ATOM      2  C   UNL     1       8.959   9.688  18.968  0.00  0.00    +0.000 C 
ENDROOT
BRANCH   1   6
ATOM      3  C   UNL     1       6.143   5.405  18.085  0.00  0.00    +0.000 A 
ATOM      4  C   UNL     1       5.800   6.469  17.246  0.00  0.00    +0.000 A 
ATOM      5  C   UNL     1       6.602   7.617  17.196  0.00  0.00    +0.000 A 
ATOM      6  C   UNL     1       7.753   7.729  17.992  0.00  0.00    +0.000 A 
ATOM      7  C   UNL     1       8.099   6.650  18.815  0.00  0.00    +0.000 A 
ATOM      8  C   UNL     1       7.299   5.501  18.869  0.00  0.00    +0.000 A 
BRANCH   3   9
ATOM      9  C   UNL     1       5.266   4.201  18.103  0.00  0.00    +0.000 C 
ATOM     10  O   UNL     1       4.582   3.849  17.156  0.00  0.00    +0.000 OA
BRANCH   9  12
ATOM     11  C   UNL     1       4.133   2.937  19.708  0.00  0.00    +0.000 C 
ATOM     12  O   UNL     1       5.344   3.574  19.303  0.00  0.00    +0.000 OA
ENDBRANCH   9  12
ENDBRANCH   3   9
ENDBRANCH   1   6
BRANCH   2  13
ATOM     13  C   UNL     1       9.629  10.937  18.796  0.00  0.00    +0.000 A 
ATOM     14  N   UNL     1      10.811  11.294  19.261  0.00  0.00    +0.000 NA
ATOM     15  C   UNL     1      11.146  12.568  18.828  0.00  0.00    +0.000 A 
ATOM     16  C   UNL     1      10.197  13.199  18.050  0.00  0.00    +0.000 A 
ATOM     17  S   UNL     1       8.862  12.150  17.836  0.00  0.00    +0.000 S 
BRANCH  16  18
ATOM     18  C   UNL     1      10.235  14.521  17.465  0.00  0.00    +0.000 C 
ATOM     19  O   UNL     1       9.610  15.495  17.860  0.00  0.00    +0.000 OA
BRANCH  18  20
ATOM     20  O   UNL     1      11.060  14.596  16.386  0.00  0.00    +0.000 OA
ATOM     21  H   UNL     1      11.398  13.724  16.114  0.00  0.00    +0.000 HD
ENDBRANCH  18  20
ENDBRANCH  16  18
ENDBRANCH   2  13
TORSDOF 6
ENDMDL
MODEL 3
REMARK VINA RESULT:      -6.7      1.262      1.406
REMARK  Name = 
REMARK  7 active torsions:
REMARK  status: ('A' for Active; 'I' for Inactive)
REMARK    1  A    between atoms: C_1  and  O_2
REMARK    2  A    between atoms: O_2  and  C_3
REMARK    3  A    between atoms: C_3  and  C_5
REMARK    4  A    between atoms: C_8  and  C_9
REMARK    5  A    between atoms: C_10  and  C_11
REMARK    6  A    between atoms: C_14  and  C_15
REMARK    7  A    between atoms: C_15  and  O_17
REMARK                            x       y       z     vdW  Elec       q    Type
REMARK                         _______ _______ _______ _____ _____    ______ ____
ROOT
ATOM      1  C   UNL     1       2.932   6.698  18.770  0.00  0.00    +0.000 C 
ATOM      2  C   UNL     1       2.298   7.878  18.684  0.00  0.00    +0.000 C 
ENDROOT
BRANCH   1   6
ATOM      3  C   UNL     1       5.560   5.182  15.721  0.00  0.00    +0.000 A 
ATOM      4  C   UNL     1       5.504   6.548  16.015  0.00  0.00    +0.000 A 
ATOM      5  C   UNL     1       4.649   7.020  17.019  0.00  0.00    +0.000 A 
ATOM      6  C   UNL     1       3.825   6.141  17.739  0.00  0.00    +0.000 A 
ATOM      7  C   UNL     1       3.903   4.772  17.451  0.00  0.00    +0.000 A 
ATOM      8  C   UNL     1       4.756   4.296  16.446  0.00  0.00    +0.000 A 
BRANCH   3   9
ATOM      9  C   UNL     1       6.488   4.722  14.650  0.00  0.00    +0.000 C 
ATOM     10  O   UNL     1       7.558   5.255  14.407  0.00  0.00    +0.000 OA
BRANCH   9  12
ATOM     11  C   UNL     1       6.324   3.574  12.622  0.00  0.00    +0.000 C 
ATOM     12  O   UNL     1       5.971   3.648  14.003  0.00  0.00    +0.000 OA
ENDBRANCH   9  12
ENDBRANCH   3   9
ENDBRANCH   1   6
BRANCH   2  13
ATOM     13  C   UNL     1       1.539   8.392  19.778  0.00  0.00    +0.000 A 
ATOM     14  N   UNL     1       1.350   7.842  20.963  0.00  0.00    +0.000 NA
ATOM     15  C   UNL     1       0.604   8.677  21.780  0.00  0.00    +0.000 A 
ATOM     16  C   UNL     1       0.194   9.863  21.202  0.00  0.00    +0.000 A 
ATOM     17  S   UNL     1       0.789   9.937  19.599  0.00  0.00    +0.000 S 
BRANCH  16  18
ATOM     18  C   UNL     1      -0.601  10.925  21.776  0.00  0.00    +0.000 C 
ATOM     19  O   UNL     1      -1.362  11.658  21.161  0.00  0.00    +0.000 OA
BRANCH  18  20
ATOM     20  O   UNL     1      -0.422  11.051  23.119  0.00  0.00    +0.000 OA
ATOM     21  H   UNL     1      -0.092  10.231  23.529  0.00  0.00    +0.000 HD
ENDBRANCH  18  20
ENDBRANCH  16  18
ENDBRANCH   2  13
TORSDOF 6
ENDMDL
MODEL 4
REMARK VINA RESULT:      -6.6      2.493      9.082
REMARK  Name = 
REMARK  7 active torsions:
REMARK  status: ('A' for Active; 'I' for Inactive)
REMARK    1  A    between atoms: C_1  and  O_2
REMARK    2  A    between atoms: O_2  and  C_3
REMARK    3  A    between atoms: C_3  and  C_5
REMARK    4  A    between atoms: C_8  and  C_9
REMARK    5  A    between atoms: C_10  and  C_11
REMARK    6  A    between atoms: C_14  and  C_15
REMARK    7  A    between atoms: C_15  and  O_17
REMARK                            x       y       z     vdW  Elec       q    Type
REMARK                         _______ _______ _______ _____ _____    ______ ____
ROOT
ATOM      1  C   UNL     1       2.612   7.252  18.235  0.00  0.00    +0.000 C 
ATOM      2  C   UNL     1       3.240   6.120  18.592  0.00  0.00    +0.000 C 
ENDROOT
BRANCH   1   6
ATOM      3  C   UNL     1       0.514   9.778  21.014  0.00  0.00    +0.000 A 
ATOM      4  C   UNL     1       1.087   8.570  21.423  0.00  0.00    +0.000 A 
ATOM      5  C   UNL     1       1.775   7.767  20.505  0.00  0.00    +0.000 A 
ATOM      6  C   UNL     1       1.894   8.147  19.159  0.00  0.00    +0.000 A 
ATOM      7  C   UNL     1       1.334   9.368  18.762  0.00  0.00    +0.000 A 
ATOM      8  C   UNL     1       0.643  10.175  19.678  0.00  0.00    +0.000 A 
BRANCH   3   9
ATOM      9  C   UNL     1      -0.203  10.605  22.024  0.00  0.00    +0.000 C 
ATOM     10  O   UNL     1      -0.104  10.438  23.228  0.00  0.00    +0.000 OA
BRANCH   9  12
ATOM     11  C   UNL     1      -1.798  12.290  22.302  0.00  0.00    +0.000 C 
ATOM     12  O   UNL     1      -0.964  11.548  21.413  0.00  0.00    +0.000 OA
ENDBRANCH   9  12
ENDBRANCH   3   9
ENDBRANCH   1   6
BRANCH   2  13
ATOM     13  C   UNL     1       4.006   5.371  17.650  0.00  0.00    +0.000 A 
ATOM     14  N   UNL     1       3.858   4.105  17.307  0.00  0.00    +0.000 NA
ATOM     15  C   UNL     1       4.757   3.755  16.311  0.00  0.00    +0.000 A 
ATOM     16  C   UNL     1       5.619   4.757  15.911  0.00  0.00    +0.000 A 
ATOM     17  S   UNL     1       5.269   6.181  16.793  0.00  0.00    +0.000 S 
BRANCH  16  18
ATOM     18  C   UNL     1       6.670   4.707  14.920  0.00  0.00    +0.000 C 
ATOM     19  O   UNL     1       7.601   5.495  14.827  0.00  0.00    +0.000 OA
BRANCH  18  20
ATOM     20  O   UNL     1       6.531   3.666  14.055  0.00  0.00    +0.000 OA
ATOM     21  H   UNL     1       6.029   2.926  14.442  0.00  0.00    +0.000 HD
ENDBRANCH  18  20
ENDBRANCH  16  18
ENDBRANCH   2  13
TORSDOF 6
ENDMDL
MODEL 5
REMARK VINA RESULT:      -6.6      2.707      9.062
REMARK  Name = 
REMARK  7 active torsions:
REMARK  status: ('A' for Active; 'I' for Inactive)
REMARK    1  A    between atoms: C_1  and  O_2
REMARK    2  A    between atoms: O_2  and  C_3
REMARK    3  A    between atoms: C_3  and  C_5
REMARK    4  A    between atoms: C_8  and  C_9
REMARK    5  A    between atoms: C_10  and  C_11
REMARK    6  A    between atoms: C_14  and  C_15
REMARK    7  A    between atoms: C_15  and  O_17
REMARK                            x       y       z     vdW  Elec       q    Type
REMARK                         _______ _______ _______ _____ _____    ______ ____
ROOT
ATOM      1  C   UNL     1       3.259   7.329  17.753  0.00  0.00    +0.000 C 
ATOM      2  C   UNL     1       3.897   6.228  18.184  0.00  0.00    +0.000 C 
ENDROOT
BRANCH   1   6
ATOM      3  C   UNL     1       0.631   9.832  20.062  0.00  0.00    +0.000 A 
ATOM      4  C   UNL     1       1.003  10.179  18.760  0.00  0.00    +0.000 A 
ATOM      5  C   UNL     1       1.852   9.345  18.020  0.00  0.00    +0.000 A 
ATOM      6  C   UNL     1       2.355   8.156  18.571  0.00  0.00    +0.000 A 
ATOM      7  C   UNL     1       1.961   7.806  19.869  0.00  0.00    +0.000 A 
ATOM      8  C   UNL     1       1.113   8.639  20.612  0.00  0.00    +0.000 A 
BRANCH   3   9
ATOM      9  C   UNL     1      -0.278  10.744  20.811  0.00  0.00    +0.000 C 
ATOM     10  O   UNL     1      -1.238  11.304  20.308  0.00  0.00    +0.000 OA
BRANCH   9  12
ATOM     11  C   UNL     1      -0.894  10.516  23.053  0.00  0.00    +0.000 C 
ATOM     12  O   UNL     1       0.118  10.854  22.103  0.00  0.00    +0.000 OA
ENDBRANCH   9  12
ENDBRANCH   3   9
ENDBRANCH   1   6
BRANCH   2  13
ATOM     13  C   UNL     1       4.842   5.550  17.357  0.00  0.00    +0.000 A 
ATOM     14  N   UNL     1       5.461   4.410  17.600  0.00  0.00    +0.000 NA
ATOM     15  C   UNL     1       6.258   4.044  16.527  0.00  0.00    +0.000 A 
ATOM     16  C   UNL     1       6.270   4.929  15.467  0.00  0.00    +0.000 A 
ATOM     17  S   UNL     1       5.229   6.239  15.822  0.00  0.00    +0.000 S 
BRANCH  16  18
ATOM     18  C   UNL     1       7.003   4.846  14.224  0.00  0.00    +0.000 C 
ATOM     19  O   UNL     1       7.994   5.502  13.934  0.00  0.00    +0.000 OA
BRANCH  18  20
ATOM     20  O   UNL     1       6.475   3.938  13.359  0.00  0.00    +0.000 OA
ATOM     21  H   UNL     1       5.638   4.242  12.966  0.00  0.00    +0.000 HD
ENDBRANCH  18  20
ENDBRANCH  16  18
ENDBRANCH   2  13
TORSDOF 6
ENDMDL
MODEL 6
REMARK VINA RESULT:      -6.5      2.577      9.021
REMARK  Name = 
REMARK  7 active torsions:
REMARK  status: ('A' for Active; 'I' for Inactive)
REMARK    1  A    between atoms: C_1  and  O_2
REMARK    2  A    between atoms: O_2  and  C_3
REMARK    3  A    between atoms: C_3  and  C_5
REMARK    4  A    between atoms: C_8  and  C_9
REMARK    5  A    between atoms: C_10  and  C_11
REMARK    6  A    between atoms: C_14  and  C_15
REMARK    7  A    between atoms: C_15  and  O_17
REMARK                            x       y       z     vdW  Elec       q    Type
REMARK                         _______ _______ _______ _____ _____    ______ ____
ROOT
ATOM      1  C   UNL     1       2.628   7.146  18.218  0.00  0.00    +0.000 C 
ATOM      2  C   UNL     1       3.500   6.202  18.607  0.00  0.00    +0.000 C 
ENDROOT
BRANCH   1   6
ATOM      3  C   UNL     1       0.591   9.940  20.777  0.00  0.00    +0.000 A 
ATOM      4  C   UNL     1       0.785  10.210  19.418  0.00  0.00    +0.000 A 
ATOM      5  C   UNL     1       1.441   9.282  18.600  0.00  0.00    +0.000 A 
ATOM      6  C   UNL     1       1.928   8.074  19.123  0.00  0.00    +0.000 A 
ATOM      7  C   UNL     1       1.712   7.804  20.480  0.00  0.00    +0.000 A 
ATOM      8  C   UNL     1       1.057   8.730  21.303  0.00  0.00    +0.000 A 
BRANCH   3   9
ATOM      9  C   UNL     1      -0.117  10.951  21.610  0.00  0.00    +0.000 C 
ATOM     10  O   UNL     1      -0.049  10.991  22.828  0.00  0.00    +0.000 OA
BRANCH   9  12
ATOM     11  C   UNL     1      -1.979  12.356  21.467  0.00  0.00    +0.000 C 
ATOM     12  O   UNL     1      -0.832  11.797  20.827  0.00  0.00    +0.000 OA
ENDBRANCH   9  12
ENDBRANCH   3   9
ENDBRANCH   1   6
BRANCH   2  13
ATOM     13  C   UNL     1       4.217   5.420  17.653  0.00  0.00    +0.000 A 
ATOM     14  N   UNL     1       4.080   4.133  17.392  0.00  0.00    +0.000 NA
ATOM     15  C   UNL     1       4.915   3.750  16.353  0.00  0.00    +0.000 A 
ATOM     16  C   UNL     1       5.717   4.748  15.836  0.00  0.00    +0.000 A 
ATOM     17  S   UNL     1       5.391   6.210  16.663  0.00  0.00    +0.000 S 
BRANCH  16  18
ATOM     18  C   UNL     1       6.695   4.668  14.775  0.00  0.00    +0.000 C 
ATOM     19  O   UNL     1       7.621   5.446  14.598  0.00  0.00    +0.000 OA
BRANCH  18  20
ATOM     20  O   UNL     1       6.489   3.608  13.947  0.00  0.00    +0.000 OA
ATOM     21  H   UNL     1       6.750   3.798  13.028  0.00  0.00    +0.000 HD
ENDBRANCH  18  20
ENDBRANCH  16  18
ENDBRANCH   2  13
TORSDOF 6
ENDMDL
MODEL 7
REMARK VINA RESULT:      -6.5      6.456      8.239
REMARK  Name = 
REMARK  7 active torsions:
REMARK  status: ('A' for Active; 'I' for Inactive)
REMARK    1  A    between atoms: C_1  and  O_2
REMARK    2  A    between atoms: O_2  and  C_3
REMARK    3  A    between atoms: C_3  and  C_5
REMARK    4  A    between atoms: C_8  and  C_9
REMARK    5  A    between atoms: C_10  and  C_11
REMARK    6  A    between atoms: C_14  and  C_15
REMARK    7  A    between atoms: C_15  and  O_17
REMARK                            x       y       z     vdW  Elec       q    Type
REMARK                         _______ _______ _______ _____ _____    ______ ____
ROOT
ATOM      1  C   UNL     1       8.528   8.881  17.779  0.00  0.00    +0.000 C 
ATOM      2  C   UNL     1       8.760   9.736  18.789  0.00  0.00    +0.000 C 
ENDROOT
BRANCH   1   6
ATOM      3  C   UNL     1       5.972   5.430  18.031  0.00  0.00    +0.000 A 
ATOM      4  C   UNL     1       7.161   5.506  18.763  0.00  0.00    +0.000 A 
ATOM      5  C   UNL     1       7.974   6.643  18.675  0.00  0.00    +0.000 A 
ATOM      6  C   UNL     1       7.623   7.720  17.846  0.00  0.00    +0.000 A 
ATOM      7  C   UNL     1       6.420   7.644  17.132  0.00  0.00    +0.000 A 
ATOM      8  C   UNL     1       5.604   6.507  17.216  0.00  0.00    +0.000 A 
BRANCH   3   9
ATOM      9  C   UNL     1       5.134   4.205  18.158  0.00  0.00    +0.000 C 
ATOM     10  O   UNL     1       4.759   3.541  17.206  0.00  0.00    +0.000 OA
BRANCH   9  12
ATOM     11  C   UNL     1       4.375   2.630  19.708  0.00  0.00    +0.000 C 
ATOM     12  O   UNL     1       4.858   3.951  19.461  0.00  0.00    +0.000 OA
ENDBRANCH   9  12
ENDBRANCH   3   9
ENDBRANCH   1   6
BRANCH   2  13
ATOM     13  C   UNL     1       9.565  10.899  18.603  0.00  0.00    +0.000 A 
ATOM     14  N   UNL     1      10.836  11.063  18.918  0.00  0.00    +0.000 NA
ATOM     15  C   UNL     1      11.283  12.315  18.524  0.00  0.00    +0.000 A 
ATOM     16  C   UNL     1      10.336  13.123  17.928  0.00  0.00    +0.000 A 
ATOM     17  S   UNL     1       8.853  12.274  17.839  0.00  0.00    +0.000 S 
BRANCH  16  18
ATOM     18  C   UNL     1      10.478  14.472  17.427  0.00  0.00    +0.000 C 
ATOM     19  O   UNL     1      10.063  15.484  17.974  0.00  0.00    +0.000 OA
BRANCH  18  20
ATOM     20  O   UNL     1      11.141  14.527  16.240  0.00  0.00    +0.000 OA
ATOM     21  H   UNL     1      11.748  13.775  16.118  0.00  0.00    +0.000 HD
ENDBRANCH  18  20
ENDBRANCH  16  18
ENDBRANCH   2  13
TORSDOF 6
ENDMDL
MODEL 8
REMARK VINA RESULT:      -6.5      7.277      9.574
REMARK  Name = 
REMARK  7 active torsions:
REMARK  status: ('A' for Active; 'I' for Inactive)
REMARK    1  A    between atoms: C_1  and  O_2
REMARK    2  A    between atoms: O_2  and  C_3
REMARK    3  A    between atoms: C_3  and  C_5
REMARK    4  A    between atoms: C_8  and  C_9
REMARK    5  A    between atoms: C_10  and  C_11
REMARK    6  A    between atoms: C_14  and  C_15
REMARK    7  A    between atoms: C_15  and  O_17
REMARK                            x       y       z     vdW  Elec       q    Type
REMARK                         _______ _______ _______ _____ _____    ______ ____
ROOT
ATOM      1  C   UNL     1       8.963   9.389  18.816  0.00  0.00    +0.000 C 
ATOM      2  C   UNL     1       8.151   8.815  17.913  0.00  0.00    +0.000 C 
ENDROOT
BRANCH   1   6
ATOM      3  C   UNL     1      10.141  13.523  18.652  0.00  0.00    +0.000 A 
ATOM      4  C   UNL     1       9.216  12.997  17.746  0.00  0.00    +0.000 A 
ATOM      5  C   UNL     1       8.837  11.651  17.822  0.00  0.00    +0.000 A 
ATOM      6  C   UNL     1       9.384  10.801  18.796  0.00  0.00    +0.000 A 
ATOM      7  C   UNL     1      10.295  11.341  19.713  0.00  0.00    +0.000 A 
ATOM      8  C   UNL     1      10.677  12.688  19.639  0.00  0.00    +0.000 A 
BRANCH   3   9
ATOM      9  C   UNL     1      10.511  14.962  18.540  0.00  0.00    +0.000 C 
ATOM     10  O   UNL     1      11.341  15.504  19.250  0.00  0.00    +0.000 OA
BRANCH   9  12
ATOM     11  C   UNL     1      10.521  16.564  16.840  0.00  0.00    +0.000 C 
ATOM     12  O   UNL     1       9.799  15.560  17.552  0.00  0.00    +0.000 OA
ENDBRANCH   9  12
ENDBRANCH   3   9
ENDBRANCH   1   6
BRANCH   2  13
ATOM     13  C   UNL     1       7.705   7.469  18.071  0.00  0.00    +0.000 A 
ATOM     14  N   UNL     1       8.197   6.540  18.868  0.00  0.00    +0.000 NA
ATOM     15  C   UNL     1       7.452   5.373  18.784  0.00  0.00    +0.000 A 
ATOM     16  C   UNL     1       6.399   5.404  17.891  0.00  0.00    +0.000 A 
ATOM     17  S   UNL     1       6.331   6.950  17.161  0.00  0.00    +0.000 S 
BRANCH  16  18
ATOM     18  C   UNL     1       5.457   4.359  17.563  0.00  0.00    +0.000 C 
ATOM     19  O   UNL     1       4.744   4.326  16.570  0.00  0.00    +0.000 OA
BRANCH  18  20
ATOM     20  O   UNL     1       5.423   3.367  18.495  0.00  0.00    +0.000 OA
ATOM     21  H   UNL     1       5.500   2.482  18.098  0.00  0.00    +0.000 HD
ENDBRANCH  18  20
ENDBRANCH  16  18
ENDBRANCH   2  13
TORSDOF 6
ENDMDL
MODEL 9
REMARK VINA RESULT:      -6.5      2.499      9.034
REMARK  Name = 
REMARK  7 active torsions:
REMARK  status: ('A' for Active; 'I' for Inactive)
REMARK    1  A    between atoms: C_1  and  O_2
REMARK    2  A    between atoms: O_2  and  C_3
REMARK    3  A    between atoms: C_3  and  C_5
REMARK    4  A    between atoms: C_8  and  C_9
REMARK    5  A    between atoms: C_10  and  C_11
REMARK    6  A    between atoms: C_14  and  C_15
REMARK    7  A    between atoms: C_15  and  O_17
REMARK                            x       y       z     vdW  Elec       q    Type
REMARK                         _______ _______ _______ _____ _____    ______ ____
ROOT
ATOM      1  C   UNL     1       2.674   7.812  18.224  0.00  0.00    +0.000 C 
ATOM      2  C   UNL     1       2.556   6.475  18.177  0.00  0.00    +0.000 C 
ENDROOT
BRANCH   1   6
ATOM      3  C   UNL     1      -0.181  10.414  20.118  0.00  0.00    +0.000 A 
ATOM      4  C   UNL     1       0.535   9.465  20.855  0.00  0.00    +0.000 A 
ATOM      5  C   UNL     1       1.468   8.634  20.221  0.00  0.00    +0.000 A 
ATOM      6  C   UNL     1       1.695   8.725  18.839  0.00  0.00    +0.000 A 
ATOM      7  C   UNL     1       0.988   9.692  18.112  0.00  0.00    +0.000 A 
ATOM      8  C   UNL     1       0.052  10.524  18.742  0.00  0.00    +0.000 A 
BRANCH   3   9
ATOM      9  C   UNL     1      -1.158  11.281  20.832  0.00  0.00    +0.000 C 
ATOM     10  O   UNL     1      -1.966  11.999  20.265  0.00  0.00    +0.000 OA
BRANCH   9  12
ATOM     11  C   UNL     1      -2.017  11.828  22.935  0.00  0.00    +0.000 C 
ATOM     12  O   UNL     1      -1.015  11.154  22.175  0.00  0.00    +0.000 OA
ENDBRANCH   9  12
ENDBRANCH   3   9
ENDBRANCH   1   6
BRANCH   2  13
ATOM     13  C   UNL     1       3.605   5.657  17.661  0.00  0.00    +0.000 A 
ATOM     14  N   UNL     1       3.554   4.378  17.342  0.00  0.00    +0.000 NA
ATOM     15  C   UNL     1       4.764   3.953  16.814  0.00  0.00    +0.000 A 
ATOM     16  C   UNL     1       5.756   4.912  16.756  0.00  0.00    +0.000 A 
ATOM     17  S   UNL     1       5.139   6.391  17.358  0.00  0.00    +0.000 S 
BRANCH  16  18
ATOM     18  C   UNL     1       7.115   4.784  16.281  0.00  0.00    +0.000 C 
ATOM     19  O   UNL     1       8.017   4.184  16.849  0.00  0.00    +0.000 OA
BRANCH  18  20
ATOM     20  O   UNL     1       7.321   5.419  15.095  0.00  0.00    +0.000 OA
ATOM     21  H   UNL     1       6.501   5.794  14.727  0.00  0.00    +0.000 HD
ENDBRANCH  18  20
ENDBRANCH  16  18
ENDBRANCH   2  13
TORSDOF 6
ENDMDL
