MODEL 1
REMARK VINA RESULT:      -8.0      0.000      0.000
REMARK  Name = 
REMARK  6 active torsions:
REMARK  status: ('A' for Active; 'I' for Inactive)
REMARK    1  A    between atoms: C_2  and  C_4
REMARK    2  A    between atoms: N_8  and  C_9
REMARK    3  A    between atoms: C_9  and  C_10
REMARK    4  A    between atoms: C_15  and  N_16
REMARK    5  A    between atoms: C_17  and  C_19
REMARK    6  A    between atoms: C_19  and  C_20
REMARK                            x       y       z     vdW  Elec       q    Type
REMARK                         _______ _______ _______ _____ _____    ______ ____
ROOT
ATOM      1  C   UNL     1       3.708   4.271  18.833  0.00  0.00    +0.000 A 
ATOM      2  C   UNL     1       3.561   2.929  19.311  0.00  0.00    +0.000 A 
ATOM      3  C   UNL     1       2.360   2.231  19.270  0.00  0.00    +0.000 A 
ATOM      4  C   UNL     1       1.250   2.862  18.758  0.00  0.00    +0.000 A 
ATOM      5  C   UNL     1       1.353   4.175  18.290  0.00  0.00    +0.000 A 
ATOM      6  C   UNL     1       2.552   4.927  18.306  0.00  0.00    +0.000 A 
ENDROOT
BRANCH   6   7
ATOM      7  N   UNL     1       2.544   6.284  17.798  0.00  0.00    +0.000 N 
ATOM      8  C   UNL     1       2.360   7.446  18.566  0.00  0.00    +0.000 C 
ATOM      9  O   UNL     1       2.186   7.466  19.789  0.00  0.00    +0.000 OA
ATOM     10  H   UNL     1       2.687   6.407  16.803  0.00  0.00    +0.000 HD
BRANCH   8  11
ATOM     11  C   UNL     1       2.207   8.799  17.873  0.00  0.00    +0.000 C 
BRANCH  11  12
ATOM     12  C   UNL     1       1.029   9.643  18.241  0.00  0.00    +0.000 A 
ATOM     13  C   UNL     1      -0.276   9.531  17.781  0.00  0.00    +0.000 A 
ATOM     14  C   UNL     1      -1.101  10.608  18.219  0.00  0.00    +0.000 A 
ATOM     15  C   UNL     1      -0.398  11.512  18.981  0.00  0.00    +0.000 A 
ATOM     16  S   UNL     1       1.241  11.066  19.169  0.00  0.00    +0.000 S 
ENDBRANCH  11  12
ENDBRANCH   8  11
ENDBRANCH   6   7
BRANCH   1  17
ATOM     17  C   UNL     1       5.108   4.869  19.075  0.00  0.00    +0.000 C 
BRANCH  17  22
ATOM     18  C   UNL     1       7.413   5.076  17.999  0.00  0.00    +0.000 C 
ATOM     19  C   UNL     1       7.204   6.019  16.820  0.00  0.00    +0.000 C 
ATOM     20  C   UNL     1       6.179   5.324  15.946  0.00  0.00    +0.000 C 
ATOM     21  C   UNL     1       5.635   4.165  16.775  0.00  0.00    +0.000 C 
ATOM     22  N   UNL     1       6.139   4.319  18.148  0.00  0.00    +0.000 NA
BRANCH  18  24
ATOM     23  N   UNL     1       8.370   7.064  19.059  0.00  0.00    +0.000 N 
ATOM     24  C   UNL     1       7.898   5.795  19.241  0.00  0.00    +0.000 C 
ATOM     25  O   UNL     1       7.883   5.309  20.368  0.00  0.00    +0.000 OA
ATOM     26  H   UNL     1       8.722   7.555  19.875  0.00  0.00    +0.000 HD
ATOM     27  H   UNL     1       8.513   7.470  18.147  0.00  0.00    +0.000 HD
ENDBRANCH  18  24
ENDBRANCH  17  22
ENDBRANCH   1  17
TORSDOF 6
ENDMDL
MODEL 2
REMARK VINA RESULT:      -7.7      1.755      2.319
REMARK  Name = 
REMARK  6 active torsions:
REMARK  status: ('A' for Active; 'I' for Inactive)
REMARK    1  A    between atoms: C_2  and  C_4
REMARK    2  A    between atoms: N_8  and  C_9
REMARK    3  A    between atoms: C_9  and  C_10
REMARK    4  A    between atoms: C_15  and  N_16
REMARK    5  A    between atoms: C_17  and  C_19
REMARK    6  A    between atoms: C_19  and  C_20
REMARK                            x       y       z     vdW  Elec       q    Type
REMARK                         _______ _______ _______ _____ _____    ______ ____
ROOT
ATOM      1  C   UNL     1       3.509   3.691  17.907  0.00  0.00    +0.000 A 
ATOM      2  C   UNL     1       3.350   2.298  18.194  0.00  0.00    +0.000 A 
ATOM      3  C   UNL     1       2.149   1.736  18.612  0.00  0.00    +0.000 A 
ATOM      4  C   UNL     1       1.059   2.559  18.774  0.00  0.00    +0.000 A 
ATOM      5  C   UNL     1       1.179   3.927  18.512  0.00  0.00    +0.000 A 
ATOM      6  C   UNL     1       2.377   4.546  18.081  0.00  0.00    +0.000 A 
ENDROOT
BRANCH   6   7
ATOM      7  N   UNL     1       2.388   5.976  17.842  0.00  0.00    +0.000 N 
ATOM      8  C   UNL     1       2.435   6.972  18.832  0.00  0.00    +0.000 C 
ATOM      9  O   UNL     1       2.480   6.760  20.049  0.00  0.00    +0.000 OA
ATOM     10  H   UNL     1       2.364   6.285  16.879  0.00  0.00    +0.000 HD
BRANCH   8  11
ATOM     11  C   UNL     1       2.272   8.440  18.441  0.00  0.00    +0.000 C 
BRANCH  11  12
ATOM     12  C   UNL     1       1.226   9.240  19.151  0.00  0.00    +0.000 A 
ATOM     13  C   UNL     1       0.959   9.275  20.512  0.00  0.00    +0.000 A 
ATOM     14  C   UNL     1      -0.217  10.022  20.815  0.00  0.00    +0.000 A 
ATOM     15  C   UNL     1      -0.815  10.516  19.680  0.00  0.00    +0.000 A 
ATOM     16  S   UNL     1       0.033  10.086  18.260  0.00  0.00    +0.000 S 
ENDBRANCH  11  12
ENDBRANCH   8  11
ENDBRANCH   6   7
BRANCH   1  17
ATOM     17  C   UNL     1       4.955   4.095  17.558  0.00  0.00    +0.000 C 
BRANCH  17  22
ATOM     18  C   UNL     1       6.278   6.257  17.258  0.00  0.00    +0.000 C 
ATOM     19  C   UNL     1       7.655   5.949  17.834  0.00  0.00    +0.000 C 
ATOM     20  C   UNL     1       7.395   5.583  19.282  0.00  0.00    +0.000 C 
ATOM     21  C   UNL     1       5.883   5.424  19.412  0.00  0.00    +0.000 C 
ATOM     22  N   UNL     1       5.311   5.455  18.057  0.00  0.00    +0.000 NA
BRANCH  18  24
ATOM     23  N   UNL     1       7.311   5.477  15.180  0.00  0.00    +0.000 N 
ATOM     24  C   UNL     1       6.216   6.056  15.758  0.00  0.00    +0.000 C 
ATOM     25  O   UNL     1       5.257   6.372  15.060  0.00  0.00    +0.000 OA
ATOM     26  H   UNL     1       7.299   5.355  14.173  0.00  0.00    +0.000 HD
ATOM     27  H   UNL     1       8.167   5.303  15.682  0.00  0.00    +0.000 HD
ENDBRANCH  18  24
ENDBRANCH  17  22
ENDBRANCH   1  17
TORSDOF 6
ENDMDL
MODEL 3
REMARK VINA RESULT:      -7.6      1.904      4.221
REMARK  Name = 
REMARK  6 active torsions:
REMARK  status: ('A' for Active; 'I' for Inactive)
REMARK    1  A    between atoms: C_2  and  C_4
REMARK    2  A    between atoms: N_8  and  C_9
REMARK    3  A    between atoms: C_9  and  C_10
REMARK    4  A    between atoms: C_15  and  N_16
REMARK    5  A    between atoms: C_17  and  C_19
REMARK    6  A    between atoms: C_19  and  C_20
REMARK                            x       y       z     vdW  Elec       q    Type
REMARK                         _______ _______ _______ _____ _____    ______ ____
ROOT
ATOM      1  C   UNL     1       4.915   5.005  17.554  0.00  0.00    +0.000 A 
ATOM      2  C   UNL     1       6.179   4.352  17.713  0.00  0.00    +0.000 A 
ATOM      3  C   UNL     1       7.394   5.028  17.710  0.00  0.00    +0.000 A 
ATOM      4  C   UNL     1       7.387   6.392  17.530  0.00  0.00    +0.000 A 
ATOM      5  C   UNL     1       6.172   7.063  17.363  0.00  0.00    +0.000 A 
ATOM      6  C   UNL     1       4.910   6.421  17.362  0.00  0.00    +0.000 A 
ENDROOT
BRANCH   6   7
ATOM      7  N   UNL     1       3.711   7.215  17.176  0.00  0.00    +0.000 N 
ATOM      8  C   UNL     1       2.827   7.614  18.192  0.00  0.00    +0.000 C 
ATOM      9  O   UNL     1       2.959   7.345  19.391  0.00  0.00    +0.000 OA
ATOM     10  H   UNL     1       3.494   7.511  16.233  0.00  0.00    +0.000 HD
BRANCH   8  11
ATOM     11  C   UNL     1       1.515   8.307  17.828  0.00  0.00    +0.000 C 
BRANCH  11  12
ATOM     12  C   UNL     1       1.333   9.728  18.257  0.00  0.00    +0.000 A 
ATOM     13  C   UNL     1       2.152  10.813  17.978  0.00  0.00    +0.000 A 
ATOM     14  C   UNL     1       1.760  11.986  18.687  0.00  0.00    +0.000 A 
ATOM     15  C   UNL     1       0.670  11.755  19.494  0.00  0.00    +0.000 A 
ATOM     16  S   UNL     1       0.123  10.139  19.396  0.00  0.00    +0.000 S 
ENDBRANCH  11  12
ENDBRANCH   8  11
ENDBRANCH   6   7
BRANCH   1  17
ATOM     17  C   UNL     1       3.717   4.036  17.492  0.00  0.00    +0.000 C 
BRANCH  17  22
ATOM     18  C   UNL     1       2.922   2.752  19.549  0.00  0.00    +0.000 C 
ATOM     19  C   UNL     1       1.715   1.958  19.064  0.00  0.00    +0.000 C 
ATOM     20  C   UNL     1       0.734   3.005  18.576  0.00  0.00    +0.000 C 
ATOM     21  C   UNL     1       1.505   4.320  18.536  0.00  0.00    +0.000 C 
ATOM     22  N   UNL     1       2.927   4.013  18.757  0.00  0.00    +0.000 NA
BRANCH  18  24
ATOM     23  N   UNL     1       4.259   0.944  18.581  0.00  0.00    +0.000 N 
ATOM     24  C   UNL     1       4.204   1.946  19.508  0.00  0.00    +0.000 C 
ATOM     25  O   UNL     1       5.167   2.148  20.242  0.00  0.00    +0.000 OA
ATOM     26  H   UNL     1       5.101   0.377  18.554  0.00  0.00    +0.000 HD
ATOM     27  H   UNL     1       3.462   0.660  18.034  0.00  0.00    +0.000 HD
ENDBRANCH  18  24
ENDBRANCH  17  22
ENDBRANCH   1  17
TORSDOF 6
ENDMDL
MODEL 4
REMARK VINA RESULT:      -7.6      1.669      2.184
REMARK  Name = 
REMARK  6 active torsions:
REMARK  status: ('A' for Active; 'I' for Inactive)
REMARK    1  A    between atoms: C_2  and  C_4
REMARK    2  A    between atoms: N_8  and  C_9
REMARK    3  A    between atoms: C_9  and  C_10
REMARK    4  A    between atoms: C_15  and  N_16
REMARK    5  A    between atoms: C_17  and  C_19
REMARK    6  A    between atoms: C_19  and  C_20
REMARK                            x       y       z     vdW  Elec       q    Type
REMARK                         _______ _______ _______ _____ _____    ______ ____
ROOT
ATOM      1  C   UNL     1       3.472   4.240  19.034  0.00  0.00    +0.000 A 
ATOM      2  C   UNL     1       3.398   3.052  19.828  0.00  0.00    +0.000 A 
ATOM      3  C   UNL     1       2.313   2.744  20.642  0.00  0.00    +0.000 A 
ATOM      4  C   UNL     1       1.263   3.629  20.701  0.00  0.00    +0.000 A 
ATOM      5  C   UNL     1       1.304   4.805  19.946  0.00  0.00    +0.000 A 
ATOM      6  C   UNL     1       2.382   5.162  19.101  0.00  0.00    +0.000 A 
ENDROOT
BRANCH   6   7
ATOM      7  N   UNL     1       2.322   6.410  18.364  0.00  0.00    +0.000 N 
ATOM      8  C   UNL     1       2.161   7.687  18.928  0.00  0.00    +0.000 C 
ATOM      9  O   UNL     1       2.057   7.919  20.138  0.00  0.00    +0.000 OA
ATOM     10  H   UNL     1       2.405   6.358  17.357  0.00  0.00    +0.000 HD
BRANCH   8  11
ATOM     11  C   UNL     1       1.946   8.896  18.020  0.00  0.00    +0.000 C 
BRANCH  11  12
ATOM     12  C   UNL     1       0.814   9.819  18.343  0.00  0.00    +0.000 A 
ATOM     13  C   UNL     1      -0.500   9.741  17.905  0.00  0.00    +0.000 A 
ATOM     14  C   UNL     1      -1.266  10.883  18.279  0.00  0.00    +0.000 A 
ATOM     15  C   UNL     1      -0.512  11.800  18.973  0.00  0.00    +0.000 A 
ATOM     16  S   UNL     1       1.106  11.288  19.174  0.00  0.00    +0.000 S 
ENDBRANCH  11  12
ENDBRANCH   8  11
ENDBRANCH   6   7
BRANCH   1  17
ATOM     17  C   UNL     1       4.814   4.412  18.293  0.00  0.00    +0.000 C 
BRANCH  17  22
ATOM     18  C   UNL     1       6.088   6.501  17.570  0.00  0.00    +0.000 C 
ATOM     19  C   UNL     1       7.526   6.031  17.387  0.00  0.00    +0.000 C 
ATOM     20  C   UNL     1       7.936   5.501  18.746  0.00  0.00    +0.000 C 
ATOM     21  C   UNL     1       6.657   5.427  19.573  0.00  0.00    +0.000 C 
ATOM     22  N   UNL     1       5.523   5.670  18.668  0.00  0.00    +0.000 NA
BRANCH  18  24
ATOM     23  N   UNL     1       5.864   5.816  15.231  0.00  0.00    +0.000 N 
ATOM     24  C   UNL     1       5.305   6.498  16.274  0.00  0.00    +0.000 C 
ATOM     25  O   UNL     1       4.223   7.057  16.123  0.00  0.00    +0.000 OA
ATOM     26  H   UNL     1       5.366   5.822  14.346  0.00  0.00    +0.000 HD
ATOM     27  H   UNL     1       6.798   5.438  15.262  0.00  0.00    +0.000 HD
ENDBRANCH  18  24
ENDBRANCH  17  22
ENDBRANCH   1  17
TORSDOF 6
ENDMDL
MODEL 5
REMARK VINA RESULT:      -7.5      1.420      1.450
REMARK  Name = 
REMARK  6 active torsions:
REMARK  status: ('A' for Active; 'I' for Inactive)
REMARK    1  A    between atoms: C_2  and  C_4
REMARK    2  A    between atoms: N_8  and  C_9
REMARK    3  A    between atoms: C_9  and  C_10
REMARK    4  A    between atoms: C_15  and  N_16
REMARK    5  A    between atoms: C_17  and  C_19
REMARK    6  A    between atoms: C_19  and  C_20
REMARK                            x       y       z     vdW  Elec       q    Type
REMARK                         _______ _______ _______ _____ _____    ______ ____
ROOT
ATOM      1  C   UNL     1       3.706   5.014  19.410  0.00  0.00    +0.000 A 
ATOM      2  C   UNL     1       3.818   3.622  19.724  0.00  0.00    +0.000 A 
ATOM      3  C   UNL     1       2.945   2.959  20.579  0.00  0.00    +0.000 A 
ATOM      4  C   UNL     1       1.928   3.676  21.166  0.00  0.00    +0.000 A 
ATOM      5  C   UNL     1       1.793   5.039  20.890  0.00  0.00    +0.000 A 
ATOM      6  C   UNL     1       2.653   5.759  20.025  0.00  0.00    +0.000 A 
ENDROOT
BRANCH   6   7
ATOM      7  N   UNL     1       2.421   7.174  19.813  0.00  0.00    +0.000 N 
ATOM      8  C   UNL     1       2.067   7.772  18.592  0.00  0.00    +0.000 C 
ATOM      9  O   UNL     1       1.896   7.165  17.529  0.00  0.00    +0.000 OA
ATOM     10  H   UNL     1       2.521   7.785  20.614  0.00  0.00    +0.000 HD
BRANCH   8  11
ATOM     11  C   UNL     1       2.020   9.295  18.478  0.00  0.00    +0.000 C 
BRANCH  11  12
ATOM     12  C   UNL     1       0.732   9.980  18.810  0.00  0.00    +0.000 A 
ATOM     13  C   UNL     1      -0.439  10.001  18.066  0.00  0.00    +0.000 A 
ATOM     14  C   UNL     1      -1.411  10.890  18.609  0.00  0.00    +0.000 A 
ATOM     15  C   UNL     1      -0.947  11.530  19.734  0.00  0.00    +0.000 A 
ATOM     16  S   UNL     1       0.646  11.061  20.136  0.00  0.00    +0.000 S 
ENDBRANCH  11  12
ENDBRANCH   8  11
ENDBRANCH   6   7
BRANCH   1  17
ATOM     17  C   UNL     1       4.847   5.546  18.520  0.00  0.00    +0.000 C 
BRANCH  17  22
ATOM     18  C   UNL     1       7.174   4.790  17.793  0.00  0.00    +0.000 C 
ATOM     19  C   UNL     1       7.283   5.227  16.337  0.00  0.00    +0.000 C 
ATOM     20  C   UNL     1       6.154   4.503  15.631  0.00  0.00    +0.000 C 
ATOM     21  C   UNL     1       5.280   3.909  16.731  0.00  0.00    +0.000 C 
ATOM     22  N   UNL     1       5.739   4.462  18.015  0.00  0.00    +0.000 NA
BRANCH  18  24
ATOM     23  N   UNL     1       8.070   5.346  20.003  0.00  0.00    +0.000 N 
ATOM     24  C   UNL     1       7.771   5.801  18.750  0.00  0.00    +0.000 C 
ATOM     25  O   UNL     1       7.999   6.972  18.459  0.00  0.00    +0.000 OA
ATOM     26  H   UNL     1       8.449   6.014  20.666  0.00  0.00    +0.000 HD
ATOM     27  H   UNL     1       7.801   4.432  20.332  0.00  0.00    +0.000 HD
ENDBRANCH  18  24
ENDBRANCH  17  22
ENDBRANCH   1  17
TORSDOF 6
ENDMDL
MODEL 6
REMARK VINA RESULT:      -7.4      0.963      1.030
REMARK  Name = 
REMARK  6 active torsions:
REMARK  status: ('A' for Active; 'I' for Inactive)
REMARK    1  A    between atoms: C_2  and  C_4
REMARK    2  A    between atoms: N_8  and  C_9
REMARK    3  A    between atoms: C_9  and  C_10
REMARK    4  A    between atoms: C_15  and  N_16
REMARK    5  A    between atoms: C_17  and  C_19
REMARK    6  A    between atoms: C_19  and  C_20
REMARK                            x       y       z     vdW  Elec       q    Type
REMARK                         _______ _______ _______ _____ _____    ______ ____
ROOT
ATOM      1  C   UNL     1       3.832   4.596  19.397  0.00  0.00    +0.000 A 
ATOM      2  C   UNL     1       3.807   3.392  20.171  0.00  0.00    +0.000 A 
ATOM      3  C   UNL     1       2.633   2.752  20.549  0.00  0.00    +0.000 A 
ATOM      4  C   UNL     1       1.431   3.307  20.175  0.00  0.00    +0.000 A 
ATOM      5  C   UNL     1       1.416   4.487  19.427  0.00  0.00    +0.000 A 
ATOM      6  C   UNL     1       2.582   5.175  19.014  0.00  0.00    +0.000 A 
ENDROOT
BRANCH   6   7
ATOM      7  N   UNL     1       2.450   6.395  18.242  0.00  0.00    +0.000 N 
ATOM      8  C   UNL     1       2.178   7.670  18.765  0.00  0.00    +0.000 C 
ATOM      9  O   UNL     1       2.022   7.925  19.965  0.00  0.00    +0.000 OA
ATOM     10  H   UNL     1       2.565   6.323  17.239  0.00  0.00    +0.000 HD
BRANCH   8  11
ATOM     11  C   UNL     1       1.899   8.836  17.818  0.00  0.00    +0.000 C 
BRANCH  11  12
ATOM     12  C   UNL     1       0.842   9.819  18.213  0.00  0.00    +0.000 A 
ATOM     13  C   UNL     1      -0.515   9.769  17.930  0.00  0.00    +0.000 A 
ATOM     14  C   UNL     1      -1.195  10.959  18.322  0.00  0.00    +0.000 A 
ATOM     15  C   UNL     1      -0.336  11.881  18.874  0.00  0.00    +0.000 A 
ATOM     16  S   UNL     1       1.276  11.316  18.921  0.00  0.00    +0.000 S 
ENDBRANCH  11  12
ENDBRANCH   8  11
ENDBRANCH   6   7
BRANCH   1  17
ATOM     17  C   UNL     1       5.246   5.173  19.187  0.00  0.00    +0.000 C 
BRANCH  17  22
ATOM     18  C   UNL     1       6.836   5.369  17.200  0.00  0.00    +0.000 C 
ATOM     19  C   UNL     1       5.951   5.813  16.041  0.00  0.00    +0.000 C 
ATOM     20  C   UNL     1       4.921   4.711  15.897  0.00  0.00    +0.000 C 
ATOM     21  C   UNL     1       5.073   3.828  17.131  0.00  0.00    +0.000 C 
ATOM     22  N   UNL     1       5.978   4.515  18.066  0.00  0.00    +0.000 NA
BRANCH  18  24
ATOM     23  N   UNL     1       7.364   7.758  17.307  0.00  0.00    +0.000 N 
ATOM     24  C   UNL     1       7.515   6.533  17.892  0.00  0.00    +0.000 C 
ATOM     25  O   UNL     1       8.170   6.431  18.926  0.00  0.00    +0.000 OA
ATOM     26  H   UNL     1       7.831   8.546  17.743  0.00  0.00    +0.000 HD
ATOM     27  H   UNL     1       6.937   7.883  16.402  0.00  0.00    +0.000 HD
ENDBRANCH  18  24
ENDBRANCH  17  22
ENDBRANCH   1  17
TORSDOF 6
ENDMDL
MODEL 7
REMARK VINA RESULT:      -7.4      1.762      2.358
REMARK  Name = 
REMARK  6 active torsions:
REMARK  status: ('A' for Active; 'I' for Inactive)
REMARK    1  A    between atoms: C_2  and  C_4
REMARK    2  A    between atoms: N_8  and  C_9
REMARK    3  A    between atoms: C_9  and  C_10
REMARK    4  A    between atoms: C_15  and  N_16
REMARK    5  A    between atoms: C_17  and  C_19
REMARK    6  A    between atoms: C_19  and  C_20
REMARK                            x       y       z     vdW  Elec       q    Type
REMARK                         _______ _______ _______ _____ _____    ______ ____
ROOT
ATOM      1  C   UNL     1       3.370   3.874  19.105  0.00  0.00    +0.000 A 
ATOM      2  C   UNL     1       3.295   2.768  20.012  0.00  0.00    +0.000 A 
ATOM      3  C   UNL     1       2.326   2.658  21.003  0.00  0.00    +0.000 A 
ATOM      4  C   UNL     1       1.400   3.666  21.133  0.00  0.00    +0.000 A 
ATOM      5  C   UNL     1       1.447   4.766  20.271  0.00  0.00    +0.000 A 
ATOM      6  C   UNL     1       2.410   4.924  19.246  0.00  0.00    +0.000 A 
ENDROOT
BRANCH   6   7
ATOM      7  N   UNL     1       2.368   6.109  18.411  0.00  0.00    +0.000 N 
ATOM      8  C   UNL     1       2.242   7.430  18.870  0.00  0.00    +0.000 C 
ATOM      9  O   UNL     1       2.156   7.762  20.058  0.00  0.00    +0.000 OA
ATOM     10  H   UNL     1       2.439   5.973  17.411  0.00  0.00    +0.000 HD
BRANCH   8  11
ATOM     11  C   UNL     1       2.043   8.567  17.869  0.00  0.00    +0.000 C 
BRANCH  11  12
ATOM     12  C   UNL     1       1.059   9.639  18.217  0.00  0.00    +0.000 A 
ATOM     13  C   UNL     1      -0.311   9.641  17.996  0.00  0.00    +0.000 A 
ATOM     14  C   UNL     1      -0.909  10.898  18.306  0.00  0.00    +0.000 A 
ATOM     15  C   UNL     1       0.023  11.815  18.735  0.00  0.00    +0.000 A 
ATOM     16  S   UNL     1       1.603  11.166  18.766  0.00  0.00    +0.000 S 
ENDBRANCH  11  12
ENDBRANCH   8  11
ENDBRANCH   6   7
BRANCH   1  17
ATOM     17  C   UNL     1       4.587   3.824  18.161  0.00  0.00    +0.000 C 
BRANCH  17  22
ATOM     18  C   UNL     1       6.183   5.329  16.856  0.00  0.00    +0.000 C 
ATOM     19  C   UNL     1       7.567   4.974  17.386  0.00  0.00    +0.000 C 
ATOM     20  C   UNL     1       7.505   5.284  18.868  0.00  0.00    +0.000 C 
ATOM     21  C   UNL     1       6.034   5.534  19.185  0.00  0.00    +0.000 C 
ATOM     22  N   UNL     1       5.249   5.152  18.001  0.00  0.00    +0.000 NA
BRANCH  18  24
ATOM     23  N   UNL     1       6.346   3.306  15.486  0.00  0.00    +0.000 N 
ATOM     24  C   UNL     1       5.829   4.566  15.596  0.00  0.00    +0.000 C 
ATOM     25  O   UNL     1       5.117   5.010  14.700  0.00  0.00    +0.000 OA
ATOM     26  H   UNL     1       6.140   2.787  14.639  0.00  0.00    +0.000 HD
ATOM     27  H   UNL     1       7.026   2.935  16.132  0.00  0.00    +0.000 HD
ENDBRANCH  18  24
ENDBRANCH  17  22
ENDBRANCH   1  17
TORSDOF 6
ENDMDL
MODEL 8
REMARK VINA RESULT:      -7.4      0.901      1.077
REMARK  Name = 
REMARK  6 active torsions:
REMARK  status: ('A' for Active; 'I' for Inactive)
REMARK    1  A    between atoms: C_2  and  C_4
REMARK    2  A    between atoms: N_8  and  C_9
REMARK    3  A    between atoms: C_9  and  C_10
REMARK    4  A    between atoms: C_15  and  N_16
REMARK    5  A    between atoms: C_17  and  C_19
REMARK    6  A    between atoms: C_19  and  C_20
REMARK                            x       y       z     vdW  Elec       q    Type
REMARK                         _______ _______ _______ _____ _____    ______ ____
ROOT
ATOM      1  C   UNL     1       3.606   4.465  19.421  0.00  0.00    +0.000 A 
ATOM      2  C   UNL     1       3.485   3.268  20.198  0.00  0.00    +0.000 A 
ATOM      3  C   UNL     1       2.265   2.676  20.504  0.00  0.00    +0.000 A 
ATOM      4  C   UNL     1       1.112   3.275  20.054  0.00  0.00    +0.000 A 
ATOM      5  C   UNL     1       1.190   4.450  19.301  0.00  0.00    +0.000 A 
ATOM      6  C   UNL     1       2.406   5.089  18.959  0.00  0.00    +0.000 A 
ENDROOT
BRANCH   6   7
ATOM      7  N   UNL     1       2.370   6.308  18.175  0.00  0.00    +0.000 N 
ATOM      8  C   UNL     1       2.232   7.609  18.688  0.00  0.00    +0.000 C 
ATOM      9  O   UNL     1       2.131   7.890  19.888  0.00  0.00    +0.000 OA
ATOM     10  H   UNL     1       2.453   6.216  17.171  0.00  0.00    +0.000 HD
BRANCH   8  11
ATOM     11  C   UNL     1       2.041   8.786  17.734  0.00  0.00    +0.000 C 
BRANCH  11  12
ATOM     12  C   UNL     1       1.175   9.918  18.187  0.00  0.00    +0.000 A 
ATOM     13  C   UNL     1       1.556  11.058  18.881  0.00  0.00    +0.000 A 
ATOM     14  C   UNL     1       0.440  11.843  19.291  0.00  0.00    +0.000 A 
ATOM     15  C   UNL     1      -0.753  11.273  18.913  0.00  0.00    +0.000 A 
ATOM     16  S   UNL     1      -0.530   9.804  18.069  0.00  0.00    +0.000 S 
ENDBRANCH  11  12
ENDBRANCH   8  11
ENDBRANCH   6   7
BRANCH   1  17
ATOM     17  C   UNL     1       5.052   4.985  19.298  0.00  0.00    +0.000 C 
BRANCH  17  22
ATOM     18  C   UNL     1       7.144   4.806  17.848  0.00  0.00    +0.000 C 
ATOM     19  C   UNL     1       6.804   5.588  16.584  0.00  0.00    +0.000 C 
ATOM     20  C   UNL     1       5.594   4.882  16.006  0.00  0.00    +0.000 C 
ATOM     21  C   UNL     1       5.117   3.912  17.083  0.00  0.00    +0.000 C 
ATOM     22  N   UNL     1       5.863   4.209  18.315  0.00  0.00    +0.000 NA
BRANCH  18  24
ATOM     23  N   UNL     1       8.039   6.967  18.570  0.00  0.00    +0.000 N 
ATOM     24  C   UNL     1       7.890   5.642  18.867  0.00  0.00    +0.000 C 
ATOM     25  O   UNL     1       8.347   5.200  19.917  0.00  0.00    +0.000 OA
ATOM     26  H   UNL     1       8.556   7.539  19.229  0.00  0.00    +0.000 HD
ATOM     27  H   UNL     1       7.787   7.359  17.676  0.00  0.00    +0.000 HD
ENDBRANCH  18  24
ENDBRANCH  17  22
ENDBRANCH   1  17
TORSDOF 6
ENDMDL
MODEL 9
REMARK VINA RESULT:      -7.4      2.405      4.249
REMARK  Name = 
REMARK  6 active torsions:
REMARK  status: ('A' for Active; 'I' for Inactive)
REMARK    1  A    between atoms: C_2  and  C_4
REMARK    2  A    between atoms: N_8  and  C_9
REMARK    3  A    between atoms: C_9  and  C_10
REMARK    4  A    between atoms: C_15  and  N_16
REMARK    5  A    between atoms: C_17  and  C_19
REMARK    6  A    between atoms: C_19  and  C_20
REMARK                            x       y       z     vdW  Elec       q    Type
REMARK                         _______ _______ _______ _____ _____    ______ ____
ROOT
ATOM      1  C   UNL     1       3.472   5.310  17.574  0.00  0.00    +0.000 A 
ATOM      2  C   UNL     1       4.370   4.709  16.636  0.00  0.00    +0.000 A 
ATOM      3  C   UNL     1       5.342   5.422  15.944  0.00  0.00    +0.000 A 
ATOM      4  C   UNL     1       5.439   6.778  16.157  0.00  0.00    +0.000 A 
ATOM      5  C   UNL     1       4.573   7.402  17.058  0.00  0.00    +0.000 A 
ATOM      6  C   UNL     1       3.570   6.720  17.789  0.00  0.00    +0.000 A 
ENDROOT
BRANCH   6   7
ATOM      7  N   UNL     1       2.723   7.469  18.697  0.00  0.00    +0.000 N 
ATOM      8  C   UNL     1       1.970   8.606  18.364  0.00  0.00    +0.000 C 
ATOM      9  O   UNL     1       1.922   9.121  17.241  0.00  0.00    +0.000 OA
ATOM     10  H   UNL     1       2.667   7.142  19.654  0.00  0.00    +0.000 HD
BRANCH   8  11
ATOM     11  C   UNL     1       1.254   9.392  19.462  0.00  0.00    +0.000 C 
BRANCH  11  12
ATOM     12  C   UNL     1       0.287  10.454  19.043  0.00  0.00    +0.000 A 
ATOM     13  C   UNL     1      -0.976  10.286  18.494  0.00  0.00    +0.000 A 
ATOM     14  C   UNL     1      -1.549  11.519  18.064  0.00  0.00    +0.000 A 
ATOM     15  C   UNL     1      -0.702  12.580  18.283  0.00  0.00    +0.000 A 
ATOM     16  S   UNL     1       0.770  12.096  19.002  0.00  0.00    +0.000 S 
ENDBRANCH  11  12
ENDBRANCH   8  11
ENDBRANCH   6   7
BRANCH   1  17
ATOM     17  C   UNL     1       2.418   4.338  18.140  0.00  0.00    +0.000 C 
BRANCH  17  22
ATOM     18  C   UNL     1       2.926   2.923  20.202  0.00  0.00    +0.000 C 
ATOM     19  C   UNL     1       1.658   2.109  20.432  0.00  0.00    +0.000 C 
ATOM     20  C   UNL     1       0.570   3.141  20.649  0.00  0.00    +0.000 C 
ATOM     21  C   UNL     1       1.181   4.484  20.264  0.00  0.00    +0.000 C 
ATOM     22  N   UNL     1       2.480   4.220  19.626  0.00  0.00    +0.000 NA
BRANCH  18  24
ATOM     23  N   UNL     1       5.251   2.615  19.498  0.00  0.00    +0.000 N 
ATOM     24  C   UNL     1       3.964   2.169  19.397  0.00  0.00    +0.000 C 
ATOM     25  O   UNL     1       3.711   1.202  18.683  0.00  0.00    +0.000 OA
ATOM     26  H   UNL     1       5.957   2.137  18.948  0.00  0.00    +0.000 HD
ATOM     27  H   UNL     1       5.498   3.468  19.974  0.00  0.00    +0.000 HD
ENDBRANCH  18  24
ENDBRANCH  17  22
ENDBRANCH   1  17
TORSDOF 6
ENDMDL
