MODEL 1
REMARK VINA RESULT:      -8.8      0.000      0.000
REMARK  Name = 
REMARK  5 active torsions:
REMARK  status: ('A' for Active; 'I' for Inactive)
REMARK    1  A    between atoms: C_1  and  C_2
REMARK    2  A    between atoms: C_2  and  C_3
REMARK    3  A    between atoms: C_2  and  O_4
REMARK    4  A    between atoms: C_2  and  C_17
REMARK    5  A    between atoms: O_4  and  C_5
REMARK                            x       y       z     vdW  Elec       q    Type
REMARK                         _______ _______ _______ _____ _____    ______ ____
ROOT
ATOM      1  C   UNL     1       3.784   5.329  17.660  0.00  0.00    +0.000 A 
ATOM      2  C   UNL     1       3.545   6.700  17.564  0.00  0.00    +0.000 A 
ATOM      3  C   UNL     1       2.802   7.359  18.533  0.00  0.00    +0.000 A 
ATOM      4  C   UNL     1       2.327   6.651  19.630  0.00  0.00    +0.000 A 
ATOM      5  C   UNL     1       2.607   5.304  19.804  0.00  0.00    +0.000 A 
ATOM      6  N   UNL     1       2.126   4.736  20.907  0.00  0.00    +0.000 NA
ATOM      7  C   UNL     1       2.404   3.453  21.109  0.00  0.00    +0.000 A 
ATOM      8  N   UNL     1       1.885   2.875  22.248  0.00  0.00    +0.000 N 
ATOM      9  N   UNL     1       3.107   2.688  20.280  0.00  0.00    +0.000 NA
ATOM     10  C   UNL     1       3.593   3.275  19.174  0.00  0.00    +0.000 A 
ATOM     11  N   UNL     1       4.454   2.463  18.440  0.00  0.00    +0.000 N 
ATOM     12  C   UNL     1       3.363   4.625  18.837  0.00  0.00    +0.000 A 
ATOM     13  H   UNL     1       1.081   3.398  22.565  0.00  0.00    +0.000 HD
ATOM     14  H   UNL     1       1.778   1.882  22.116  0.00  0.00    +0.000 HD
ATOM     15  H   UNL     1       4.395   1.508  18.776  0.00  0.00    +0.000 HD
ATOM     16  H   UNL     1       4.370   2.577  17.438  0.00  0.00    +0.000 HD
ENDROOT
BRANCH   1  17
ATOM     17  O   UNL     1       4.415   4.612  16.671  0.00  0.00    +0.000 OA
BRANCH  17  19
ATOM     18  C   UNL     1       6.456   4.018  15.307  0.00  0.00    +0.000 C 
ATOM     19  C   UNL     1       5.595   5.111  15.987  0.00  0.00    +0.000 C 
ATOM     20  C   UNL     1       5.170   6.175  14.955  0.00  0.00    +0.000 C 
BRANCH  19  21
ATOM     21  C   UNL     1       6.486   5.722  17.100  0.00  0.00    +0.000 A 
ATOM     22  C   UNL     1       6.994   4.889  18.121  0.00  0.00    +0.000 A 
ATOM     23  C   UNL     1       7.888   5.375  19.080  0.00  0.00    +0.000 A 
ATOM     24  C   UNL     1       8.292   6.707  19.048  0.00  0.00    +0.000 A 
ATOM     25  C   UNL     1       7.785   7.551  18.067  0.00  0.00    +0.000 A 
ATOM     26 CL   UNL     1       8.288   9.196  18.013  0.00  0.00    +0.000 Cl
ATOM     27  C   UNL     1       6.888   7.071  17.108  0.00  0.00    +0.000 A 
ENDBRANCH  19  21
ENDBRANCH  17  19
ENDBRANCH   1  17
TORSDOF 3
ENDMDL
MODEL 2
REMARK VINA RESULT:      -8.4      2.457      3.656
REMARK  Name = 
REMARK  5 active torsions:
REMARK  status: ('A' for Active; 'I' for Inactive)
REMARK    1  A    between atoms: C_1  and  C_2
REMARK    2  A    between atoms: C_2  and  C_3
REMARK    3  A    between atoms: C_2  and  O_4
REMARK    4  A    between atoms: C_2  and  C_17
REMARK    5  A    between atoms: O_4  and  C_5
REMARK                            x       y       z     vdW  Elec       q    Type
REMARK                         _______ _______ _______ _____ _____    ______ ____
ROOT
ATOM      1  C   UNL     1       4.087   5.465  17.385  0.00  0.00    +0.000 A 
ATOM      2  C   UNL     1       3.959   6.854  17.358  0.00  0.00    +0.000 A 
ATOM      3  C   UNL     1       3.042   7.496  18.177  0.00  0.00    +0.000 A 
ATOM      4  C   UNL     1       2.273   6.750  19.061  0.00  0.00    +0.000 A 
ATOM      5  C   UNL     1       2.423   5.376  19.176  0.00  0.00    +0.000 A 
ATOM      6  N   UNL     1       1.654   4.769  20.076  0.00  0.00    +0.000 NA
ATOM      7  C   UNL     1       1.799   3.457  20.222  0.00  0.00    +0.000 A 
ATOM      8  N   UNL     1       0.984   2.840  21.148  0.00  0.00    +0.000 N 
ATOM      9  N   UNL     1       2.637   2.701  19.520  0.00  0.00    +0.000 NA
ATOM     10  C   UNL     1       3.412   3.327  18.619  0.00  0.00    +0.000 A 
ATOM     11  N   UNL     1       4.377   2.505  18.042  0.00  0.00    +0.000 N 
ATOM     12  C   UNL     1       3.350   4.712  18.360  0.00  0.00    +0.000 A 
ATOM     13  H   UNL     1       0.159   3.399  21.310  0.00  0.00    +0.000 HD
ATOM     14  H   UNL     1       0.855   1.870  20.905  0.00  0.00    +0.000 HD
ATOM     15  H   UNL     1       4.182   1.537  18.267  0.00  0.00    +0.000 HD
ATOM     16  H   UNL     1       4.547   2.699  17.063  0.00  0.00    +0.000 HD
ENDROOT
BRANCH   1  17
ATOM     17  O   UNL     1       4.897   4.774  16.515  0.00  0.00    +0.000 OA
BRANCH  17  19
ATOM     18  C   UNL     1       6.562   6.672  16.468  0.00  0.00    +0.000 C 
ATOM     19  C   UNL     1       6.273   5.165  16.264  0.00  0.00    +0.000 C 
ATOM     20  C   UNL     1       7.210   4.317  17.149  0.00  0.00    +0.000 C 
BRANCH  19  21
ATOM     21  C   UNL     1       6.509   4.888  14.756  0.00  0.00    +0.000 A 
ATOM     22  C   UNL     1       7.633   5.449  14.112  0.00  0.00    +0.000 A 
ATOM     23  C   UNL     1       7.942   5.137  12.784  0.00  0.00    +0.000 A 
ATOM     24  C   UNL     1       7.134   4.262  12.064  0.00  0.00    +0.000 A 
ATOM     25  C   UNL     1       6.007   3.718  12.671  0.00  0.00    +0.000 A 
ATOM     26 CL   UNL     1       5.008   2.627  11.791  0.00  0.00    +0.000 Cl
ATOM     27  C   UNL     1       5.691   4.030  13.996  0.00  0.00    +0.000 A 
ENDBRANCH  19  21
ENDBRANCH  17  19
ENDBRANCH   1  17
TORSDOF 3
ENDMDL
MODEL 3
REMARK VINA RESULT:      -8.3      1.757      3.076
REMARK  Name = 
REMARK  5 active torsions:
REMARK  status: ('A' for Active; 'I' for Inactive)
REMARK    1  A    between atoms: C_1  and  C_2
REMARK    2  A    between atoms: C_2  and  C_3
REMARK    3  A    between atoms: C_2  and  O_4
REMARK    4  A    between atoms: C_2  and  C_17
REMARK    5  A    between atoms: O_4  and  C_5
REMARK                            x       y       z     vdW  Elec       q    Type
REMARK                         _______ _______ _______ _____ _____    ______ ____
ROOT
ATOM      1  C   UNL     1       4.264   5.121  18.195  0.00  0.00    +0.000 A 
ATOM      2  C   UNL     1       3.880   6.428  17.895  0.00  0.00    +0.000 A 
ATOM      3  C   UNL     1       2.809   7.019  18.550  0.00  0.00    +0.000 A 
ATOM      4  C   UNL     1       2.140   6.314  19.543  0.00  0.00    +0.000 A 
ATOM      5  C   UNL     1       2.538   5.042  19.927  0.00  0.00    +0.000 A 
ATOM      6  N   UNL     1       1.843   4.475  20.909  0.00  0.00    +0.000 NA
ATOM      7  C   UNL     1       2.221   3.267  21.311  0.00  0.00    +0.000 A 
ATOM      8  N   UNL     1       1.481   2.686  22.319  0.00  0.00    +0.000 N 
ATOM      9  N   UNL     1       3.229   2.574  20.791  0.00  0.00    +0.000 NA
ATOM     10  C   UNL     1       3.927   3.161  19.804  0.00  0.00    +0.000 A 
ATOM     11  N   UNL     1       5.063   2.451  19.423  0.00  0.00    +0.000 N 
ATOM     12  C   UNL     1       3.623   4.433  19.279  0.00  0.00    +0.000 A 
ATOM     13  H   UNL     1       0.557   3.093  22.347  0.00  0.00    +0.000 HD
ATOM     14  H   UNL     1       1.551   1.682  22.266  0.00  0.00    +0.000 HD
ATOM     15  H   UNL     1       5.040   1.522  19.828  0.00  0.00    +0.000 HD
ATOM     16  H   UNL     1       5.255   2.489  18.430  0.00  0.00    +0.000 HD
ENDROOT
BRANCH   1  17
ATOM     17  O   UNL     1       5.242   4.453  17.497  0.00  0.00    +0.000 OA
BRANCH  17  19
ATOM     18  C   UNL     1       6.423   6.653  17.120  0.00  0.00    +0.000 C 
ATOM     19  C   UNL     1       6.462   5.107  17.057  0.00  0.00    +0.000 C 
ATOM     20  C   UNL     1       7.651   4.569  17.879  0.00  0.00    +0.000 C 
BRANCH  19  21
ATOM     21  C   UNL     1       6.600   4.748  15.554  0.00  0.00    +0.000 A 
ATOM     22  C   UNL     1       5.770   3.750  14.998  0.00  0.00    +0.000 A 
ATOM     23  C   UNL     1       5.785   3.471  13.628  0.00  0.00    +0.000 A 
ATOM     24  C   UNL     1       6.632   4.177  12.779  0.00  0.00    +0.000 A 
ATOM     25  C   UNL     1       7.476   5.147  13.309  0.00  0.00    +0.000 A 
ATOM     26 CL   UNL     1       8.520   6.033  12.265  0.00  0.00    +0.000 Cl
ATOM     27  C   UNL     1       7.469   5.427  14.678  0.00  0.00    +0.000 A 
ENDBRANCH  19  21
ENDBRANCH  17  19
ENDBRANCH   1  17
TORSDOF 3
ENDMDL
MODEL 4
REMARK VINA RESULT:      -8.1      1.032      1.433
REMARK  Name = 
REMARK  5 active torsions:
REMARK  status: ('A' for Active; 'I' for Inactive)
REMARK    1  A    between atoms: C_1  and  C_2
REMARK    2  A    between atoms: C_2  and  C_3
REMARK    3  A    between atoms: C_2  and  O_4
REMARK    4  A    between atoms: C_2  and  C_17
REMARK    5  A    between atoms: O_4  and  C_5
REMARK                            x       y       z     vdW  Elec       q    Type
REMARK                         _______ _______ _______ _____ _____    ______ ____
ROOT
ATOM      1  C   UNL     1       3.964   5.237  17.786  0.00  0.00    +0.000 A 
ATOM      2  C   UNL     1       3.708   6.597  17.614  0.00  0.00    +0.000 A 
ATOM      3  C   UNL     1       2.873   7.276  18.490  0.00  0.00    +0.000 A 
ATOM      4  C   UNL     1       2.319   6.600  19.571  0.00  0.00    +0.000 A 
ATOM      5  C   UNL     1       2.610   5.267  19.822  0.00  0.00    +0.000 A 
ATOM      6  N   UNL     1       2.047   4.732  20.902  0.00  0.00    +0.000 NA
ATOM      7  C   UNL     1       2.330   3.464  21.178  0.00  0.00    +0.000 A 
ATOM      8  N   UNL     1       1.727   2.919  22.292  0.00  0.00    +0.000 N 
ATOM      9  N   UNL     1       3.117   2.684  20.443  0.00  0.00    +0.000 NA
ATOM     10  C   UNL     1       3.683   3.239  19.359  0.00  0.00    +0.000 A 
ATOM     11  N   UNL     1       4.620   2.418  18.734  0.00  0.00    +0.000 N 
ATOM     12  C   UNL     1       3.458   4.569  18.950  0.00  0.00    +0.000 A 
ATOM     13  H   UNL     1       0.889   3.435  22.518  0.00  0.00    +0.000 HD
ATOM     14  H   UNL     1       1.651   1.919  22.190  0.00  0.00    +0.000 HD
ATOM     15  H   UNL     1       4.551   1.476  19.102  0.00  0.00    +0.000 HD
ATOM     16  H   UNL     1       4.620   2.492  17.725  0.00  0.00    +0.000 HD
ENDROOT
BRANCH   1  17
ATOM     17  O   UNL     1       4.691   4.496  16.883  0.00  0.00    +0.000 OA
BRANCH  17  19
ATOM     18  C   UNL     1       6.579   4.071  15.262  0.00  0.00    +0.000 C 
ATOM     19  C   UNL     1       5.714   5.090  16.041  0.00  0.00    +0.000 C 
ATOM     20  C   UNL     1       5.051   6.084  15.065  0.00  0.00    +0.000 C 
BRANCH  19  21
ATOM     21  C   UNL     1       6.681   5.810  17.017  0.00  0.00    +0.000 A 
ATOM     22  C   UNL     1       7.015   7.163  16.795  0.00  0.00    +0.000 A 
ATOM     23  C   UNL     1       7.795   7.880  17.708  0.00  0.00    +0.000 A 
ATOM     24  C   UNL     1       8.266   7.262  18.863  0.00  0.00    +0.000 A 
ATOM     25  C   UNL     1       7.970   5.923  19.089  0.00  0.00    +0.000 A 
ATOM     26 CL   UNL     1       8.540   5.153  20.520  0.00  0.00    +0.000 Cl
ATOM     27  C   UNL     1       7.195   5.200  18.177  0.00  0.00    +0.000 A 
ENDBRANCH  19  21
ENDBRANCH  17  19
ENDBRANCH   1  17
TORSDOF 3
ENDMDL
MODEL 5
REMARK VINA RESULT:      -7.9      1.614      2.659
REMARK  Name = 
REMARK  5 active torsions:
REMARK  status: ('A' for Active; 'I' for Inactive)
REMARK    1  A    between atoms: C_1  and  C_2
REMARK    2  A    between atoms: C_2  and  C_3
REMARK    3  A    between atoms: C_2  and  O_4
REMARK    4  A    between atoms: C_2  and  C_17
REMARK    5  A    between atoms: O_4  and  C_5
REMARK                            x       y       z     vdW  Elec       q    Type
REMARK                         _______ _______ _______ _____ _____    ______ ____
ROOT
ATOM      1  C   UNL     1       3.431   4.745  17.549  0.00  0.00    +0.000 A 
ATOM      2  C   UNL     1       3.293   3.370  17.737  0.00  0.00    +0.000 A 
ATOM      3  C   UNL     1       2.726   2.868  18.900  0.00  0.00    +0.000 A 
ATOM      4  C   UNL     1       2.256   3.748  19.867  0.00  0.00    +0.000 A 
ATOM      5  C   UNL     1       2.302   5.122  19.685  0.00  0.00    +0.000 A 
ATOM      6  N   UNL     1       1.795   5.866  20.665  0.00  0.00    +0.000 NA
ATOM      7  C   UNL     1       1.805   7.184  20.502  0.00  0.00    +0.000 A 
ATOM      8  N   UNL     1       1.290   7.943  21.532  0.00  0.00    +0.000 N 
ATOM      9  N   UNL     1       2.304   7.816  19.444  0.00  0.00    +0.000 NA
ATOM     10  C   UNL     1       2.807   7.053  18.460  0.00  0.00    +0.000 A 
ATOM     11  N   UNL     1       3.157   7.769  17.318  0.00  0.00    +0.000 N 
ATOM     12  C   UNL     1       2.865   5.645  18.513  0.00  0.00    +0.000 A 
ATOM     13  H   UNL     1       1.322   7.420  22.395  0.00  0.00    +0.000 HD
ATOM     14  H   UNL     1       1.701   8.863  21.525  0.00  0.00    +0.000 HD
ATOM     15  H   UNL     1       3.151   8.762  17.521  0.00  0.00    +0.000 HD
ATOM     16  H   UNL     1       3.990   7.424  16.858  0.00  0.00    +0.000 HD
ENDROOT
BRANCH   1  17
ATOM     17  O   UNL     1       4.086   5.287  16.468  0.00  0.00    +0.000 OA
BRANCH  17  19
ATOM     18  C   UNL     1       5.730   3.382  16.251  0.00  0.00    +0.000 C 
ATOM     19  C   UNL     1       5.438   4.895  16.107  0.00  0.00    +0.000 C 
ATOM     20  C   UNL     1       5.732   5.362  14.666  0.00  0.00    +0.000 C 
BRANCH  19  21
ATOM     21  C   UNL     1       6.358   5.606  17.135  0.00  0.00    +0.000 A 
ATOM     22  C   UNL     1       6.953   4.856  18.171  0.00  0.00    +0.000 A 
ATOM     23  C   UNL     1       7.873   5.433  19.052  0.00  0.00    +0.000 A 
ATOM     24  C   UNL     1       8.217   6.775  18.924  0.00  0.00    +0.000 A 
ATOM     25  C   UNL     1       7.624   7.539  17.925  0.00  0.00    +0.000 A 
ATOM     26 CL   UNL     1       8.052   9.198  17.752  0.00  0.00    +0.000 Cl
ATOM     27  C   UNL     1       6.700   6.969  17.045  0.00  0.00    +0.000 A 
ENDBRANCH  19  21
ENDBRANCH  17  19
ENDBRANCH   1  17
TORSDOF 3
ENDMDL
MODEL 6
REMARK VINA RESULT:      -7.8      2.793      5.399
REMARK  Name = 
REMARK  5 active torsions:
REMARK  status: ('A' for Active; 'I' for Inactive)
REMARK    1  A    between atoms: C_1  and  C_2
REMARK    2  A    between atoms: C_2  and  C_3
REMARK    3  A    between atoms: C_2  and  O_4
REMARK    4  A    between atoms: C_2  and  C_17
REMARK    5  A    between atoms: O_4  and  C_5
REMARK                            x       y       z     vdW  Elec       q    Type
REMARK                         _______ _______ _______ _____ _____    ______ ____
ROOT
ATOM      1  C   UNL     1       5.374   3.756  16.963  0.00  0.00    +0.000 A 
ATOM      2  C   UNL     1       5.349   3.312  15.641  0.00  0.00    +0.000 A 
ATOM      3  C   UNL     1       5.972   4.041  14.638  0.00  0.00    +0.000 A 
ATOM      4  C   UNL     1       6.661   5.202  14.963  0.00  0.00    +0.000 A 
ATOM      5  C   UNL     1       6.777   5.637  16.275  0.00  0.00    +0.000 A 
ATOM      6  N   UNL     1       7.485   6.746  16.471  0.00  0.00    +0.000 NA
ATOM      7  C   UNL     1       7.632   7.168  17.722  0.00  0.00    +0.000 A 
ATOM      8  N   UNL     1       8.355   8.327  17.907  0.00  0.00    +0.000 N 
ATOM      9  N   UNL     1       7.104   6.578  18.790  0.00  0.00    +0.000 NA
ATOM     10  C   UNL     1       6.397   5.456  18.578  0.00  0.00    +0.000 A 
ATOM     11  N   UNL     1       6.017   4.804  19.749  0.00  0.00    +0.000 N 
ATOM     12  C   UNL     1       6.159   4.909  17.301  0.00  0.00    +0.000 A 
ATOM     13  H   UNL     1       8.352   8.875  17.059  0.00  0.00    +0.000 HD
ATOM     14  H   UNL     1       8.071   8.780  18.762  0.00  0.00    +0.000 HD
ATOM     15  H   UNL     1       6.177   5.408  20.546  0.00  0.00    +0.000 HD
ATOM     16  H   UNL     1       5.100   4.379  19.702  0.00  0.00    +0.000 HD
ENDROOT
BRANCH   1  17
ATOM     17  O   UNL     1       4.678   3.132  17.971  0.00  0.00    +0.000 OA
BRANCH  17  19
ATOM     18  C   UNL     1       2.566   3.063  16.588  0.00  0.00    +0.000 C 
ATOM     19  C   UNL     1       3.227   3.072  17.988  0.00  0.00    +0.000 C 
ATOM     20  C   UNL     1       2.780   1.838  18.798  0.00  0.00    +0.000 C 
BRANCH  19  21
ATOM     21  C   UNL     1       2.771   4.393  18.664  0.00  0.00    +0.000 A 
ATOM     22  C   UNL     1       2.416   4.389  20.030  0.00  0.00    +0.000 A 
ATOM     23  C   UNL     1       2.104   5.573  20.705  0.00  0.00    +0.000 A 
ATOM     24  C   UNL     1       2.135   6.791  20.031  0.00  0.00    +0.000 A 
ATOM     25  C   UNL     1       2.457   6.815  18.679  0.00  0.00    +0.000 A 
ATOM     26 CL   UNL     1       2.508   8.318  17.840  0.00  0.00    +0.000 Cl
ATOM     27  C   UNL     1       2.765   5.633  17.998  0.00  0.00    +0.000 A 
ENDBRANCH  19  21
ENDBRANCH  17  19
ENDBRANCH   1  17
TORSDOF 3
ENDMDL
MODEL 7
REMARK VINA RESULT:      -7.7      2.834      4.429
REMARK  Name = 
REMARK  5 active torsions:
REMARK  status: ('A' for Active; 'I' for Inactive)
REMARK    1  A    between atoms: C_1  and  C_2
REMARK    2  A    between atoms: C_2  and  C_3
REMARK    3  A    between atoms: C_2  and  O_4
REMARK    4  A    between atoms: C_2  and  C_17
REMARK    5  A    between atoms: O_4  and  C_5
REMARK                            x       y       z     vdW  Elec       q    Type
REMARK                         _______ _______ _______ _____ _____    ______ ____
ROOT
ATOM      1  C   UNL     1       3.917   4.500  17.301  0.00  0.00    +0.000 A 
ATOM      2  C   UNL     1       3.864   3.115  17.452  0.00  0.00    +0.000 A 
ATOM      3  C   UNL     1       3.293   2.549  18.584  0.00  0.00    +0.000 A 
ATOM      4  C   UNL     1       2.735   3.371  19.554  0.00  0.00    +0.000 A 
ATOM      5  C   UNL     1       2.697   4.750  19.406  0.00  0.00    +0.000 A 
ATOM      6  N   UNL     1       2.111   5.435  20.384  0.00  0.00    +0.000 NA
ATOM      7  C   UNL     1       2.039   6.754  20.252  0.00  0.00    +0.000 A 
ATOM      8  N   UNL     1       1.443   7.452  21.282  0.00  0.00    +0.000 N 
ATOM      9  N   UNL     1       2.530   7.444  19.227  0.00  0.00    +0.000 NA
ATOM     10  C   UNL     1       3.114   6.739  18.243  0.00  0.00    +0.000 A 
ATOM     11  N   UNL     1       3.454   7.505  17.131  0.00  0.00    +0.000 N 
ATOM     12  C   UNL     1       3.263   5.338  18.265  0.00  0.00    +0.000 A 
ATOM     13  H   UNL     1       1.481   6.910  22.133  0.00  0.00    +0.000 HD
ATOM     14  H   UNL     1       1.793   8.396  21.309  0.00  0.00    +0.000 HD
ATOM     15  H   UNL     1       3.376   8.491  17.356  0.00  0.00    +0.000 HD
ATOM     16  H   UNL     1       4.322   7.227  16.692  0.00  0.00    +0.000 HD
ENDROOT
BRANCH   1  17
ATOM     17  O   UNL     1       4.570   5.111  16.256  0.00  0.00    +0.000 OA
BRANCH  17  19
ATOM     18  C   UNL     1       6.613   6.579  16.479  0.00  0.00    +0.000 C 
ATOM     19  C   UNL     1       6.020   5.180  16.184  0.00  0.00    +0.000 C 
ATOM     20  C   UNL     1       6.625   4.131  17.140  0.00  0.00    +0.000 C 
BRANCH  19  21
ATOM     21  C   UNL     1       6.372   4.873  14.705  0.00  0.00    +0.000 A 
ATOM     22  C   UNL     1       7.510   5.470  14.122  0.00  0.00    +0.000 A 
ATOM     23  C   UNL     1       7.925   5.137  12.829  0.00  0.00    +0.000 A 
ATOM     24  C   UNL     1       7.210   4.205  12.083  0.00  0.00    +0.000 A 
ATOM     25  C   UNL     1       6.070   3.623  12.628  0.00  0.00    +0.000 A 
ATOM     26 CL   UNL     1       5.186   2.461  11.716  0.00  0.00    +0.000 Cl
ATOM     27  C   UNL     1       5.649   3.956  13.918  0.00  0.00    +0.000 A 
ENDBRANCH  19  21
ENDBRANCH  17  19
ENDBRANCH   1  17
TORSDOF 3
ENDMDL
MODEL 8
REMARK VINA RESULT:      -7.4      3.186      5.845
REMARK  Name = 
REMARK  5 active torsions:
REMARK  status: ('A' for Active; 'I' for Inactive)
REMARK    1  A    between atoms: C_1  and  C_2
REMARK    2  A    between atoms: C_2  and  C_3
REMARK    3  A    between atoms: C_2  and  O_4
REMARK    4  A    between atoms: C_2  and  C_17
REMARK    5  A    between atoms: O_4  and  C_5
REMARK                            x       y       z     vdW  Elec       q    Type
REMARK                         _______ _______ _______ _____ _____    ______ ____
ROOT
ATOM      1  C   UNL     1       5.443   4.126  17.979  0.00  0.00    +0.000 A 
ATOM      2  C   UNL     1       4.724   3.700  16.861  0.00  0.00    +0.000 A 
ATOM      3  C   UNL     1       4.680   4.476  15.712  0.00  0.00    +0.000 A 
ATOM      4  C   UNL     1       5.392   5.668  15.662  0.00  0.00    +0.000 A 
ATOM      5  C   UNL     1       6.181   6.089  16.722  0.00  0.00    +0.000 A 
ATOM      6  N   UNL     1       6.842   7.232  16.551  0.00  0.00    +0.000 NA
ATOM      7  C   UNL     1       7.624   7.643  17.542  0.00  0.00    +0.000 A 
ATOM      8  N   UNL     1       8.290   8.836  17.356  0.00  0.00    +0.000 N 
ATOM      9  N   UNL     1       7.779   7.010  18.701  0.00  0.00    +0.000 NA
ATOM     10  C   UNL     1       7.111   5.855  18.858  0.00  0.00    +0.000 A 
ATOM     11  N   UNL     1       7.448   5.166  20.021  0.00  0.00    +0.000 N 
ATOM     12  C   UNL     1       6.242   5.314  17.889  0.00  0.00    +0.000 A 
ATOM     13  H   UNL     1       7.810   9.395  16.666  0.00  0.00    +0.000 HD
ATOM     14  H   UNL     1       8.495   9.261  18.247  0.00  0.00    +0.000 HD
ATOM     15  H   UNL     1       7.991   5.767  20.631  0.00  0.00    +0.000 HD
ATOM     16  H   UNL     1       6.667   4.695  20.458  0.00  0.00    +0.000 HD
ENDROOT
BRANCH   1  17
ATOM     17  O   UNL     1       5.425   3.451  19.177  0.00  0.00    +0.000 OA
BRANCH  17  19
ATOM     18  C   UNL     1       4.057   1.498  18.346  0.00  0.00    +0.000 C 
ATOM     19  C   UNL     1       4.401   2.472  19.499  0.00  0.00    +0.000 C 
ATOM     20  C   UNL     1       4.829   1.685  20.754  0.00  0.00    +0.000 C 
BRANCH  19  21
ATOM     21  C   UNL     1       3.112   3.298  19.756  0.00  0.00    +0.000 A 
ATOM     22  C   UNL     1       1.871   2.635  19.864  0.00  0.00    +0.000 A 
ATOM     23  C   UNL     1       0.703   3.326  20.202  0.00  0.00    +0.000 A 
ATOM     24  C   UNL     1       0.745   4.697  20.435  0.00  0.00    +0.000 A 
ATOM     25  C   UNL     1       1.953   5.375  20.309  0.00  0.00    +0.000 A 
ATOM     26 CL   UNL     1       2.015   7.069  20.607  0.00  0.00    +0.000 Cl
ATOM     27  C   UNL     1       3.122   4.690  19.967  0.00  0.00    +0.000 A 
ENDBRANCH  19  21
ENDBRANCH  17  19
ENDBRANCH   1  17
TORSDOF 3
ENDMDL
MODEL 9
REMARK VINA RESULT:      -7.3      2.423      4.045
REMARK  Name = 
REMARK  5 active torsions:
REMARK  status: ('A' for Active; 'I' for Inactive)
REMARK    1  A    between atoms: C_1  and  C_2
REMARK    2  A    between atoms: C_2  and  C_3
REMARK    3  A    between atoms: C_2  and  O_4
REMARK    4  A    between atoms: C_2  and  C_17
REMARK    5  A    between atoms: O_4  and  C_5
REMARK                            x       y       z     vdW  Elec       q    Type
REMARK                         _______ _______ _______ _____ _____    ______ ____
ROOT
ATOM      1  C   UNL     1       3.369   4.999  18.150  0.00  0.00    +0.000 A 
ATOM      2  C   UNL     1       3.272   3.646  18.476  0.00  0.00    +0.000 A 
ATOM      3  C   UNL     1       2.631   3.243  19.639  0.00  0.00    +0.000 A 
ATOM      4  C   UNL     1       2.048   4.195  20.465  0.00  0.00    +0.000 A 
ATOM      5  C   UNL     1       2.054   5.543  20.139  0.00  0.00    +0.000 A 
ATOM      6  N   UNL     1       1.438   6.361  20.989  0.00  0.00    +0.000 NA
ATOM      7  C   UNL     1       1.408   7.653  20.685  0.00  0.00    +0.000 A 
ATOM      8  N   UNL     1       0.780   8.490  21.583  0.00  0.00    +0.000 N 
ATOM      9  N   UNL     1       1.967   8.194  19.607  0.00  0.00    +0.000 NA
ATOM     10  C   UNL     1       2.580   7.356  18.754  0.00  0.00    +0.000 A 
ATOM     11  N   UNL     1       2.995   7.965  17.571  0.00  0.00    +0.000 N 
ATOM     12  C   UNL     1       2.691   5.967  18.963  0.00  0.00    +0.000 A 
ATOM     13  H   UNL     1       0.761   8.063  22.498  0.00  0.00    +0.000 HD
ATOM     14  H   UNL     1       1.153   9.423  21.507  0.00  0.00    +0.000 HD
ATOM     15  H   UNL     1       2.932   8.973  17.664  0.00  0.00    +0.000 HD
ATOM     16  H   UNL     1       3.876   7.614  17.218  0.00  0.00    +0.000 HD
ENDROOT
BRANCH   1  17
ATOM     17  O   UNL     1       4.090   5.455  17.071  0.00  0.00    +0.000 OA
BRANCH  17  19
ATOM     18  C   UNL     1       6.137   6.928  17.199  0.00  0.00    +0.000 C 
ATOM     19  C   UNL     1       5.541   5.505  17.075  0.00  0.00    +0.000 C 
ATOM     20  C   UNL     1       6.076   4.601  18.206  0.00  0.00    +0.000 C 
BRANCH  19  21
ATOM     21  C   UNL     1       5.973   4.984  15.679  0.00  0.00    +0.000 A 
ATOM     22  C   UNL     1       5.179   4.022  15.019  0.00  0.00    +0.000 A 
ATOM     23  C   UNL     1       5.470   3.606  13.716  0.00  0.00    +0.000 A 
ATOM     24  C   UNL     1       6.566   4.137  13.041  0.00  0.00    +0.000 A 
ATOM     25  C   UNL     1       7.376   5.068  13.682  0.00  0.00    +0.000 A 
ATOM     26 CL   UNL     1       8.727   5.738  12.851  0.00  0.00    +0.000 Cl
ATOM     27  C   UNL     1       7.092   5.483  14.986  0.00  0.00    +0.000 A 
ENDBRANCH  19  21
ENDBRANCH  17  19
ENDBRANCH   1  17
TORSDOF 3
ENDMDL
