MODEL 1
REMARK VINA RESULT:      -6.5      0.000      0.000
REMARK  Name = 
REMARK  9 active torsions:
REMARK  status: ('A' for Active; 'I' for Inactive)
REMARK    1  A    between atoms: C_1  and  N_2
REMARK    2  A    between atoms: N_2  and  C_3
REMARK    3  A    between atoms: N_2  and  C_4
REMARK    4  A    between atoms: C_4  and  C_5
REMARK    5  A    between atoms: C_5  and  N_6
REMARK    6  A    between atoms: C_7  and  C_9
REMARK    7  A    between atoms: C_13  and  C_14
REMARK    8  A    between atoms: C_14  and  O_15
REMARK    9  A    between atoms: C_16  and  N_17
REMARK                            x       y       z     vdW  Elec       q    Type
REMARK                         _______ _______ _______ _____ _____    ______ ____
ROOT
ATOM      1  C   UNL     1       4.144   4.743  19.011  0.00  0.00    +0.000 A 
ATOM      2  C   UNL     1       3.559   6.023  19.111  0.00  0.00    +0.000 A 
ATOM      3  C   UNL     1       2.382   6.235  19.796  0.00  0.00    +0.000 A 
ATOM      4  C   UNL     1       1.735   5.180  20.399  0.00  0.00    +0.000 A 
ATOM      5  C   UNL     1       2.248   3.873  20.355  0.00  0.00    +0.000 A 
ATOM      6  C   UNL     1       3.496   3.620  19.663  0.00  0.00    +0.000 A 
ENDROOT
BRANCH   1   8
ATOM      7  N   UNL     1       5.324   4.662  16.801  0.00  0.00    +0.000 N 
ATOM      8  C   UNL     1       5.394   4.646  18.165  0.00  0.00    +0.000 C 
ATOM      9  O   UNL     1       6.485   4.516  18.700  0.00  0.00    +0.000 OA
ATOM     10  H   UNL     1       4.417   4.795  16.335  0.00  0.00    +0.000 HD
BRANCH   7  11
ATOM     11  C   UNL     1       6.507   4.563  15.965  0.00  0.00    +0.000 C 
BRANCH  11  12
ATOM     12  C   UNL     1       6.231   3.686  14.729  0.00  0.00    +0.000 C 
BRANCH  12  14
ATOM     13  C   UNL     1       7.745   5.112  13.422  0.00  0.00    +0.000 C 
ATOM     14  N   UNL     1       6.448   4.416  13.459  0.00  0.00    +0.000 NA
ATOM     15  C   UNL     1       6.352   3.487  12.321  0.00  0.00    +0.000 C 
ENDBRANCH  12  14
ENDBRANCH  11  12
ENDBRANCH   7  11
ENDBRANCH   1   8
BRANCH   6  16
ATOM     16  N   UNL     1       4.110   2.310  19.657  0.00  0.00    +0.000 N 
ATOM     17  O   UNL     1       4.823   1.971  20.550  0.00  0.00    +0.000 OA
ATOM     18  O   UNL     1       3.791   1.397  18.767  0.00  0.00    +0.000 OA
ENDBRANCH   6  16
BRANCH   5  19
ATOM     19  C   UNL     1       1.380   2.867  21.103  0.00  0.00    +0.000 C 
BRANCH  19  20
ATOM     20  O   UNL     1       2.091   2.315  22.178  0.00  0.00    +0.000 OA
ATOM     21  H   UNL     1       2.691   3.029  22.517  0.00  0.00    +0.000 HD
ENDBRANCH  19  20
ENDBRANCH   5  19
TORSDOF 7
ENDMDL
MODEL 2
REMARK VINA RESULT:      -6.3      0.501      1.129
REMARK  Name = 
REMARK  9 active torsions:
REMARK  status: ('A' for Active; 'I' for Inactive)
REMARK    1  A    between atoms: C_1  and  N_2
REMARK    2  A    between atoms: N_2  and  C_3
REMARK    3  A    between atoms: N_2  and  C_4
REMARK    4  A    between atoms: C_4  and  C_5
REMARK    5  A    between atoms: C_5  and  N_6
REMARK    6  A    between atoms: C_7  and  C_9
REMARK    7  A    between atoms: C_13  and  C_14
REMARK    8  A    between atoms: C_14  and  O_15
REMARK    9  A    between atoms: C_16  and  N_17
REMARK                            x       y       z     vdW  Elec       q    Type
REMARK                         _______ _______ _______ _____ _____    ______ ____
ROOT
ATOM      1  C   UNL     1       4.036   4.820  19.140  0.00  0.00    +0.000 A 
ATOM      2  C   UNL     1       3.432   6.081  19.328  0.00  0.00    +0.000 A 
ATOM      3  C   UNL     1       2.245   6.224  20.014  0.00  0.00    +0.000 A 
ATOM      4  C   UNL     1       1.607   5.119  20.530  0.00  0.00    +0.000 A 
ATOM      5  C   UNL     1       2.139   3.826  20.394  0.00  0.00    +0.000 A 
ATOM      6  C   UNL     1       3.398   3.642  19.699  0.00  0.00    +0.000 A 
ENDROOT
BRANCH   1   8
ATOM      7  N   UNL     1       5.345   4.124  17.118  0.00  0.00    +0.000 N 
ATOM      8  C   UNL     1       5.295   4.803  18.302  0.00  0.00    +0.000 C 
ATOM      9  O   UNL     1       6.300   5.375  18.698  0.00  0.00    +0.000 OA
ATOM     10  H   UNL     1       4.503   3.657  16.758  0.00  0.00    +0.000 HD
BRANCH   7  11
ATOM     11  C   UNL     1       6.543   4.086  16.299  0.00  0.00    +0.000 C 
BRANCH  11  12
ATOM     12  C   UNL     1       6.350   4.905  15.009  0.00  0.00    +0.000 C 
BRANCH  12  14
ATOM     13  C   UNL     1       5.889   3.637  12.956  0.00  0.00    +0.000 C 
ATOM     14  N   UNL     1       6.923   4.232  13.821  0.00  0.00    +0.000 NA
ATOM     15  C   UNL     1       7.731   5.185  13.043  0.00  0.00    +0.000 C 
ENDBRANCH  12  14
ENDBRANCH  11  12
ENDBRANCH   7  11
ENDBRANCH   1   8
BRANCH   6  16
ATOM     16  N   UNL     1       4.031   2.345  19.602  0.00  0.00    +0.000 N 
ATOM     17  O   UNL     1       3.809   1.631  18.674  0.00  0.00    +0.000 OA
ATOM     18  O   UNL     1       4.980   1.972  20.431  0.00  0.00    +0.000 OA
ENDBRANCH   6  16
BRANCH   5  19
ATOM     19  C   UNL     1       1.279   2.755  21.056  0.00  0.00    +0.000 C 
BRANCH  19  20
ATOM     20  O   UNL     1       1.820   2.394  22.299  0.00  0.00    +0.000 OA
ATOM     21  H   UNL     1       1.986   1.417  22.263  0.00  0.00    +0.000 HD
ENDBRANCH  19  20
ENDBRANCH   5  19
TORSDOF 7
ENDMDL
MODEL 3
REMARK VINA RESULT:      -6.3      1.040      1.440
REMARK  Name = 
REMARK  9 active torsions:
REMARK  status: ('A' for Active; 'I' for Inactive)
REMARK    1  A    between atoms: C_1  and  N_2
REMARK    2  A    between atoms: N_2  and  C_3
REMARK    3  A    between atoms: N_2  and  C_4
REMARK    4  A    between atoms: C_4  and  C_5
REMARK    5  A    between atoms: C_5  and  N_6
REMARK    6  A    between atoms: C_7  and  C_9
REMARK    7  A    between atoms: C_13  and  C_14
REMARK    8  A    between atoms: C_14  and  O_15
REMARK    9  A    between atoms: C_16  and  N_17
REMARK                            x       y       z     vdW  Elec       q    Type
REMARK                         _______ _______ _______ _____ _____    ______ ____
ROOT
ATOM      1  C   UNL     1       4.169   4.770  19.585  0.00  0.00    +0.000 A 
ATOM      2  C   UNL     1       3.477   5.999  19.642  0.00  0.00    +0.000 A 
ATOM      3  C   UNL     1       2.177   6.082  20.092  0.00  0.00    +0.000 A 
ATOM      4  C   UNL     1       1.510   4.946  20.493  0.00  0.00    +0.000 A 
ATOM      5  C   UNL     1       2.123   3.683  20.475  0.00  0.00    +0.000 A 
ATOM      6  C   UNL     1       3.497   3.562  20.029  0.00  0.00    +0.000 A 
ENDROOT
BRANCH   1   8
ATOM      7  N   UNL     1       5.813   4.344  17.741  0.00  0.00    +0.000 N 
ATOM      8  C   UNL     1       5.561   4.818  18.997  0.00  0.00    +0.000 C 
ATOM      9  O   UNL     1       6.490   5.253  19.662  0.00  0.00    +0.000 OA
ATOM     10  H   UNL     1       5.040   3.997  17.159  0.00  0.00    +0.000 HD
BRANCH   7  11
ATOM     11  C   UNL     1       7.142   4.370  17.157  0.00  0.00    +0.000 C 
BRANCH  11  12
ATOM     12  C   UNL     1       7.361   5.667  16.354  0.00  0.00    +0.000 C 
BRANCH  12  14
ATOM     13  C   UNL     1       6.604   4.330  14.437  0.00  0.00    +0.000 C 
ATOM     14  N   UNL     1       6.633   5.662  15.064  0.00  0.00    +0.000 NA
ATOM     15  C   UNL     1       5.257   6.147  15.260  0.00  0.00    +0.000 C 
ENDBRANCH  12  14
ENDBRANCH  11  12
ENDBRANCH   7  11
ENDBRANCH   1   8
BRANCH   6  16
ATOM     16  N   UNL     1       4.203   2.300  20.068  0.00  0.00    +0.000 N 
ATOM     17  O   UNL     1       4.821   1.981  21.036  0.00  0.00    +0.000 OA
ATOM     18  O   UNL     1       4.066   1.398  19.122  0.00  0.00    +0.000 OA
ENDBRANCH   6  16
BRANCH   5  19
ATOM     19  C   UNL     1       1.210   2.569  20.977  0.00  0.00    +0.000 C 
BRANCH  19  20
ATOM     20  O   UNL     1       1.471   2.297  22.327  0.00  0.00    +0.000 OA
ATOM     21  H   UNL     1       1.324   1.324  22.454  0.00  0.00    +0.000 HD
ENDBRANCH  19  20
ENDBRANCH   5  19
TORSDOF 7
ENDMDL
MODEL 4
REMARK VINA RESULT:      -6.3      0.787      1.083
REMARK  Name = 
REMARK  9 active torsions:
REMARK  status: ('A' for Active; 'I' for Inactive)
REMARK    1  A    between atoms: C_1  and  N_2
REMARK    2  A    between atoms: N_2  and  C_3
REMARK    3  A    between atoms: N_2  and  C_4
REMARK    4  A    between atoms: C_4  and  C_5
REMARK    5  A    between atoms: C_5  and  N_6
REMARK    6  A    between atoms: C_7  and  C_9
REMARK    7  A    between atoms: C_13  and  C_14
REMARK    8  A    between atoms: C_14  and  O_15
REMARK    9  A    between atoms: C_16  and  N_17
REMARK                            x       y       z     vdW  Elec       q    Type
REMARK                         _______ _______ _______ _____ _____    ______ ____
ROOT
ATOM      1  C   UNL     1       4.365   4.600  18.959  0.00  0.00    +0.000 A 
ATOM      2  C   UNL     1       3.901   5.931  19.027  0.00  0.00    +0.000 A 
ATOM      3  C   UNL     1       2.770   6.273  19.735  0.00  0.00    +0.000 A 
ATOM      4  C   UNL     1       2.048   5.303  20.395  0.00  0.00    +0.000 A 
ATOM      5  C   UNL     1       2.439   3.955  20.385  0.00  0.00    +0.000 A 
ATOM      6  C   UNL     1       3.637   3.564  19.670  0.00  0.00    +0.000 A 
ENDROOT
BRANCH   1   8
ATOM      7  N   UNL     1       5.436   4.069  16.756  0.00  0.00    +0.000 N 
ATOM      8  C   UNL     1       5.574   4.360  18.083  0.00  0.00    +0.000 C 
ATOM      9  O   UNL     1       6.695   4.391  18.568  0.00  0.00    +0.000 OA
ATOM     10  H   UNL     1       4.502   4.062  16.326  0.00  0.00    +0.000 HD
BRANCH   7  11
ATOM     11  C   UNL     1       6.580   3.826  15.894  0.00  0.00    +0.000 C 
BRANCH  11  12
ATOM     12  C   UNL     1       7.035   5.129  15.211  0.00  0.00    +0.000 C 
BRANCH  12  14
ATOM     13  C   UNL     1       8.074   5.366  12.997  0.00  0.00    +0.000 C 
ATOM     14  N   UNL     1       6.833   5.098  13.744  0.00  0.00    +0.000 NA
ATOM     15  C   UNL     1       6.283   3.795  13.338  0.00  0.00    +0.000 C 
ENDBRANCH  12  14
ENDBRANCH  11  12
ENDBRANCH   7  11
ENDBRANCH   1   8
BRANCH   6  16
ATOM     16  N   UNL     1       4.131   2.204  19.695  0.00  0.00    +0.000 N 
ATOM     17  O   UNL     1       3.802   1.425  18.855  0.00  0.00    +0.000 OA
ATOM     18  O   UNL     1       5.066   1.820  20.534  0.00  0.00    +0.000 OA
ENDBRANCH   6  16
BRANCH   5  19
ATOM     19  C   UNL     1       1.507   3.058  21.193  0.00  0.00    +0.000 C 
BRANCH  19  20
ATOM     20  O   UNL     1       0.322   2.819  20.482  0.00  0.00    +0.000 OA
ATOM     21  H   UNL     1       0.590   2.587  19.555  0.00  0.00    +0.000 HD
ENDBRANCH  19  20
ENDBRANCH   5  19
TORSDOF 7
ENDMDL
MODEL 5
REMARK VINA RESULT:      -6.1      1.402      1.785
REMARK  Name = 
REMARK  9 active torsions:
REMARK  status: ('A' for Active; 'I' for Inactive)
REMARK    1  A    between atoms: C_1  and  N_2
REMARK    2  A    between atoms: N_2  and  C_3
REMARK    3  A    between atoms: N_2  and  C_4
REMARK    4  A    between atoms: C_4  and  C_5
REMARK    5  A    between atoms: C_5  and  N_6
REMARK    6  A    between atoms: C_7  and  C_9
REMARK    7  A    between atoms: C_13  and  C_14
REMARK    8  A    between atoms: C_14  and  O_15
REMARK    9  A    between atoms: C_16  and  N_17
REMARK                            x       y       z     vdW  Elec       q    Type
REMARK                         _______ _______ _______ _____ _____    ______ ____
ROOT
ATOM      1  C   UNL     1       3.955   4.652  19.478  0.00  0.00    +0.000 A 
ATOM      2  C   UNL     1       3.289   5.819  19.910  0.00  0.00    +0.000 A 
ATOM      3  C   UNL     1       1.959   5.807  20.271  0.00  0.00    +0.000 A 
ATOM      4  C   UNL     1       1.236   4.637  20.206  0.00  0.00    +0.000 A 
ATOM      5  C   UNL     1       1.819   3.428  19.793  0.00  0.00    +0.000 A 
ATOM      6  C   UNL     1       3.221   3.400  19.428  0.00  0.00    +0.000 A 
ENDROOT
BRANCH   1   8
ATOM      7  N   UNL     1       5.882   4.171  17.948  0.00  0.00    +0.000 N 
ATOM      8  C   UNL     1       5.391   4.829  19.040  0.00  0.00    +0.000 C 
ATOM      9  O   UNL     1       6.143   5.542  19.687  0.00  0.00    +0.000 OA
ATOM     10  H   UNL     1       5.257   3.585  17.379  0.00  0.00    +0.000 HD
BRANCH   7  11
ATOM     11  C   UNL     1       7.259   4.317  17.511  0.00  0.00    +0.000 C 
BRANCH  11  12
ATOM     12  C   UNL     1       7.320   4.804  16.051  0.00  0.00    +0.000 C 
BRANCH  12  14
ATOM     13  C   UNL     1       5.315   5.907  15.157  0.00  0.00    +0.000 C 
ATOM     14  N   UNL     1       6.030   4.633  15.344  0.00  0.00    +0.000 NA
ATOM     15  C   UNL     1       6.252   3.993  14.038  0.00  0.00    +0.000 C 
ENDBRANCH  12  14
ENDBRANCH  11  12
ENDBRANCH   7  11
ENDBRANCH   1   8
BRANCH   6  16
ATOM     16  N   UNL     1       3.892   2.168  19.075  0.00  0.00    +0.000 N 
ATOM     17  O   UNL     1       3.702   1.658  18.015  0.00  0.00    +0.000 OA
ATOM     18  O   UNL     1       4.839   1.652  19.826  0.00  0.00    +0.000 OA
ENDBRANCH   6  16
BRANCH   5  19
ATOM     19  C   UNL     1       0.842   2.257  19.813  0.00  0.00    +0.000 C 
BRANCH  19  20
ATOM     20  O   UNL     1       0.530   1.859  18.505  0.00  0.00    +0.000 OA
ATOM     21  H   UNL     1       1.395   1.714  18.040  0.00  0.00    +0.000 HD
ENDBRANCH  19  20
ENDBRANCH   5  19
TORSDOF 7
ENDMDL
MODEL 6
REMARK VINA RESULT:      -6.1      1.894      2.576
REMARK  Name = 
REMARK  9 active torsions:
REMARK  status: ('A' for Active; 'I' for Inactive)
REMARK    1  A    between atoms: C_1  and  N_2
REMARK    2  A    between atoms: N_2  and  C_3
REMARK    3  A    between atoms: N_2  and  C_4
REMARK    4  A    between atoms: C_4  and  C_5
REMARK    5  A    between atoms: C_5  and  N_6
REMARK    6  A    between atoms: C_7  and  C_9
REMARK    7  A    between atoms: C_13  and  C_14
REMARK    8  A    between atoms: C_14  and  O_15
REMARK    9  A    between atoms: C_16  and  N_17
REMARK                            x       y       z     vdW  Elec       q    Type
REMARK                         _______ _______ _______ _____ _____    ______ ____
ROOT
ATOM      1  C   UNL     1       3.399   4.940  18.821  0.00  0.00    +0.000 A 
ATOM      2  C   UNL     1       2.720   6.138  19.132  0.00  0.00    +0.000 A 
ATOM      3  C   UNL     1       1.760   6.195  20.118  0.00  0.00    +0.000 A 
ATOM      4  C   UNL     1       1.427   5.062  20.827  0.00  0.00    +0.000 A 
ATOM      5  C   UNL     1       2.055   3.829  20.587  0.00  0.00    +0.000 A 
ATOM      6  C   UNL     1       3.087   3.738  19.574  0.00  0.00    +0.000 A 
ENDROOT
BRANCH   1   8
ATOM      7  N   UNL     1       5.434   4.152  17.587  0.00  0.00    +0.000 N 
ATOM      8  C   UNL     1       4.372   5.007  17.666  0.00  0.00    +0.000 C 
ATOM      9  O   UNL     1       4.234   5.859  16.801  0.00  0.00    +0.000 OA
ATOM     10  H   UNL     1       5.552   3.414  18.294  0.00  0.00    +0.000 HD
BRANCH   7  11
ATOM     11  C   UNL     1       6.387   4.200  16.493  0.00  0.00    +0.000 C 
BRANCH  11  12
ATOM     12  C   UNL     1       7.614   5.051  16.874  0.00  0.00    +0.000 C 
BRANCH  12  14
ATOM     13  C   UNL     1       8.069   5.747  19.186  0.00  0.00    +0.000 C 
ATOM     14  N   UNL     1       7.314   6.023  17.951  0.00  0.00    +0.000 NA
ATOM     15  C   UNL     1       7.601   7.390  17.490  0.00  0.00    +0.000 C 
ENDBRANCH  12  14
ENDBRANCH  11  12
ENDBRANCH   7  11
ENDBRANCH   1   8
BRANCH   6  16
ATOM     16  N   UNL     1       3.823   2.514  19.343  0.00  0.00    +0.000 N 
ATOM     17  O   UNL     1       4.721   2.203  20.062  0.00  0.00    +0.000 OA
ATOM     18  O   UNL     1       3.440   1.631  18.448  0.00  0.00    +0.000 OA
ENDBRANCH   6  16
BRANCH   5  19
ATOM     19  C   UNL     1       1.547   2.714  21.496  0.00  0.00    +0.000 C 
BRANCH  19  20
ATOM     20  O   UNL     1       2.582   2.245  22.317  0.00  0.00    +0.000 OA
ATOM     21  H   UNL     1       3.319   2.906  22.249  0.00  0.00    +0.000 HD
ENDBRANCH  19  20
ENDBRANCH   5  19
TORSDOF 7
ENDMDL
MODEL 7
REMARK VINA RESULT:      -6.1      2.617      6.205
REMARK  Name = 
REMARK  9 active torsions:
REMARK  status: ('A' for Active; 'I' for Inactive)
REMARK    1  A    between atoms: C_1  and  N_2
REMARK    2  A    between atoms: N_2  and  C_3
REMARK    3  A    between atoms: N_2  and  C_4
REMARK    4  A    between atoms: C_4  and  C_5
REMARK    5  A    between atoms: C_5  and  N_6
REMARK    6  A    between atoms: C_7  and  C_9
REMARK    7  A    between atoms: C_13  and  C_14
REMARK    8  A    between atoms: C_14  and  O_15
REMARK    9  A    between atoms: C_16  and  N_17
REMARK                            x       y       z     vdW  Elec       q    Type
REMARK                         _______ _______ _______ _____ _____    ______ ____
ROOT
ATOM      1  C   UNL     1       5.133   4.261  16.951  0.00  0.00    +0.000 A 
ATOM      2  C   UNL     1       5.452   4.157  15.580  0.00  0.00    +0.000 A 
ATOM      3  C   UNL     1       6.443   4.922  15.003  0.00  0.00    +0.000 A 
ATOM      4  C   UNL     1       7.147   5.828  15.764  0.00  0.00    +0.000 A 
ATOM      5  C   UNL     1       6.899   5.994  17.136  0.00  0.00    +0.000 A 
ATOM      6  C   UNL     1       5.881   5.189  17.780  0.00  0.00    +0.000 A 
ENDROOT
BRANCH   1   8
ATOM      7  N   UNL     1       4.107   2.575  18.497  0.00  0.00    +0.000 N 
ATOM      8  C   UNL     1       3.973   3.417  17.430  0.00  0.00    +0.000 C 
ATOM      9  O   UNL     1       2.905   3.455  16.838  0.00  0.00    +0.000 OA
ATOM     10  H   UNL     1       4.991   2.547  19.021  0.00  0.00    +0.000 HD
BRANCH   7  11
ATOM     11  C   UNL     1       3.013   1.748  18.972  0.00  0.00    +0.000 C 
BRANCH  11  12
ATOM     12  C   UNL     1       2.516   2.235  20.346  0.00  0.00    +0.000 C 
BRANCH  12  14
ATOM     13  C   UNL     1       1.160   4.280  20.461  0.00  0.00    +0.000 C 
ATOM     14  N   UNL     1       1.156   2.819  20.281  0.00  0.00    +0.000 NA
ATOM     15  C   UNL     1       0.523   2.479  18.997  0.00  0.00    +0.000 C 
ENDBRANCH  12  14
ENDBRANCH  11  12
ENDBRANCH   7  11
ENDBRANCH   1   8
BRANCH   6  16
ATOM     16  N   UNL     1       5.641   5.260  19.205  0.00  0.00    +0.000 N 
ATOM     17  O   UNL     1       4.564   5.549  19.624  0.00  0.00    +0.000 OA
ATOM     18  O   UNL     1       6.537   4.863  20.080  0.00  0.00    +0.000 OA
ENDBRANCH   6  16
BRANCH   5  19
ATOM     19  C   UNL     1       7.805   7.037  17.784  0.00  0.00    +0.000 C 
BRANCH  19  20
ATOM     20  O   UNL     1       7.725   8.251  17.087  0.00  0.00    +0.000 OA
ATOM     21  H   UNL     1       7.289   8.900  17.698  0.00  0.00    +0.000 HD
ENDBRANCH  19  20
ENDBRANCH   5  19
TORSDOF 7
ENDMDL
MODEL 8
REMARK VINA RESULT:      -6.0      2.377      6.180
REMARK  Name = 
REMARK  9 active torsions:
REMARK  status: ('A' for Active; 'I' for Inactive)
REMARK    1  A    between atoms: C_1  and  N_2
REMARK    2  A    between atoms: N_2  and  C_3
REMARK    3  A    between atoms: N_2  and  C_4
REMARK    4  A    between atoms: C_4  and  C_5
REMARK    5  A    between atoms: C_5  and  N_6
REMARK    6  A    between atoms: C_7  and  C_9
REMARK    7  A    between atoms: C_13  and  C_14
REMARK    8  A    between atoms: C_14  and  O_15
REMARK    9  A    between atoms: C_16  and  N_17
REMARK                            x       y       z     vdW  Elec       q    Type
REMARK                         _______ _______ _______ _____ _____    ______ ____
ROOT
ATOM      1  C   UNL     1       5.061   4.011  17.143  0.00  0.00    +0.000 A 
ATOM      2  C   UNL     1       5.281   3.747  15.774  0.00  0.00    +0.000 A 
ATOM      3  C   UNL     1       6.102   4.540  15.002  0.00  0.00    +0.000 A 
ATOM      4  C   UNL     1       6.728   5.634  15.558  0.00  0.00    +0.000 A 
ATOM      5  C   UNL     1       6.570   5.968  16.913  0.00  0.00    +0.000 A 
ATOM      6  C   UNL     1       5.732   5.142  17.759  0.00  0.00    +0.000 A 
ENDROOT
BRANCH   1   8
ATOM      7  N   UNL     1       2.745   3.143  17.547  0.00  0.00    +0.000 N 
ATOM      8  C   UNL     1       4.077   3.104  17.846  0.00  0.00    +0.000 C 
ATOM      9  O   UNL     1       4.464   2.344  18.721  0.00  0.00    +0.000 OA
ATOM     10  H   UNL     1       2.405   3.759  16.797  0.00  0.00    +0.000 HD
BRANCH   7  11
ATOM     11  C   UNL     1       1.777   2.289  18.213  0.00  0.00    +0.000 C 
BRANCH  11  12
ATOM     12  C   UNL     1       0.930   3.099  19.212  0.00  0.00    +0.000 C 
BRANCH  12  14
ATOM     13  C   UNL     1       1.423   4.985  20.706  0.00  0.00    +0.000 C 
ATOM     14  N   UNL     1       1.726   3.585  20.363  0.00  0.00    +0.000 NA
ATOM     15  C   UNL     1       1.494   2.726  21.535  0.00  0.00    +0.000 C 
ENDBRANCH  12  14
ENDBRANCH  11  12
ENDBRANCH   7  11
ENDBRANCH   1   8
BRANCH   6  16
ATOM     16  N   UNL     1       5.600   5.392  19.177  0.00  0.00    +0.000 N 
ATOM     17  O   UNL     1       4.553   5.726  19.638  0.00  0.00    +0.000 OA
ATOM     18  O   UNL     1       6.566   5.116  20.024  0.00  0.00    +0.000 OA
ENDBRANCH   6  16
BRANCH   5  19
ATOM     19  C   UNL     1       7.366   7.205  17.319  0.00  0.00    +0.000 C 
BRANCH  19  20
ATOM     20  O   UNL     1       8.151   6.929  18.447  0.00  0.00    +0.000 OA
ATOM     21  H   UNL     1       7.622   7.211  19.237  0.00  0.00    +0.000 HD
ENDBRANCH  19  20
ENDBRANCH   5  19
TORSDOF 7
ENDMDL
MODEL 9
REMARK VINA RESULT:      -6.0      3.540      5.751
REMARK  Name = 
REMARK  9 active torsions:
REMARK  status: ('A' for Active; 'I' for Inactive)
REMARK    1  A    between atoms: C_1  and  N_2
REMARK    2  A    between atoms: N_2  and  C_3
REMARK    3  A    between atoms: N_2  and  C_4
REMARK    4  A    between atoms: C_4  and  C_5
REMARK    5  A    between atoms: C_5  and  N_6
REMARK    6  A    between atoms: C_7  and  C_9
REMARK    7  A    between atoms: C_13  and  C_14
REMARK    8  A    between atoms: C_14  and  O_15
REMARK    9  A    between atoms: C_16  and  N_17
REMARK                            x       y       z     vdW  Elec       q    Type
REMARK                         _______ _______ _______ _____ _____    ______ ____
ROOT
ATOM      1  C   UNL     1       2.298   5.393  19.816  0.00  0.00    +0.000 A 
ATOM      2  C   UNL     1       1.174   4.855  20.478  0.00  0.00    +0.000 A 
ATOM      3  C   UNL     1       1.044   3.503  20.710  0.00  0.00    +0.000 A 
ATOM      4  C   UNL     1       2.020   2.631  20.282  0.00  0.00    +0.000 A 
ATOM      5  C   UNL     1       3.174   3.080  19.618  0.00  0.00    +0.000 A 
ATOM      6  C   UNL     1       3.355   4.498  19.380  0.00  0.00    +0.000 A 
ENDROOT
BRANCH   1   8
ATOM      7  N   UNL     1       2.415   7.388  18.302  0.00  0.00    +0.000 N 
ATOM      8  C   UNL     1       2.271   6.884  19.563  0.00  0.00    +0.000 C 
ATOM      9  O   UNL     1       2.154   7.660  20.500  0.00  0.00    +0.000 OA
ATOM     10  H   UNL     1       2.491   6.749  17.499  0.00  0.00    +0.000 HD
BRANCH   7  11
ATOM     11  C   UNL     1       2.401   8.815  18.032  0.00  0.00    +0.000 C 
BRANCH  11  12
ATOM     12  C   UNL     1       0.959   9.319  17.833  0.00  0.00    +0.000 C 
BRANCH  12  14
ATOM     13  C   UNL     1       1.200  11.491  18.956  0.00  0.00    +0.000 C 
ATOM     14  N   UNL     1       0.508  10.191  18.942  0.00  0.00    +0.000 NA
ATOM     15  C   UNL     1      -0.946  10.405  18.855  0.00  0.00    +0.000 C 
ENDBRANCH  12  14
ENDBRANCH  11  12
ENDBRANCH   7  11
ENDBRANCH   1   8
BRANCH   6  16
ATOM     16  N   UNL     1       4.560   5.021  18.776  0.00  0.00    +0.000 N 
ATOM     17  O   UNL     1       5.584   5.042  19.387  0.00  0.00    +0.000 OA
ATOM     18  O   UNL     1       4.617   5.342  17.503  0.00  0.00    +0.000 OA
ENDBRANCH   6  16
BRANCH   5  19
ATOM     19  C   UNL     1       4.128   1.948  19.250  0.00  0.00    +0.000 C 
BRANCH  19  20
ATOM     20  O   UNL     1       5.236   1.946  20.110  0.00  0.00    +0.000 OA
ATOM     21  H   UNL     1       5.179   1.111  20.644  0.00  0.00    +0.000 HD
ENDBRANCH  19  20
ENDBRANCH   5  19
TORSDOF 7
ENDMDL
