MODEL 1
REMARK VINA RESULT:      -8.6      0.000      0.000
REMARK  Name = 
REMARK  9 active torsions:
REMARK  status: ('A' for Active; 'I' for Inactive)
REMARK    1  A    between atoms: C_1  and  O_2
REMARK    2  A    between atoms: O_2  and  C_3
REMARK    3  A    between atoms: C_11  and  C_12
REMARK    4  A    between atoms: N_14  and  C_15
REMARK    5  A    between atoms: C_15  and  C_16
REMARK    6  A    between atoms: C_15  and  C_27
REMARK    7  A    between atoms: C_19  and  C_20
REMARK    8  A    between atoms: C_27  and  C_28
REMARK    9  A    between atoms: C_27  and  C_29
REMARK                            x       y       z     vdW  Elec       q    Type
REMARK                         _______ _______ _______ _____ _____    ______ ____
ROOT
ATOM      1  C   UNL     1       2.435   5.947  20.141  0.00  0.00    +0.000 C 
ATOM      2  O   UNL     1       2.372   5.178  21.091  0.00  0.00    +0.000 OA
ATOM      3  N   UNL     1       3.083   5.646  18.969  0.00  0.00    +0.000 N 
ATOM      4  H   UNL     1       3.150   6.339  18.237  0.00  0.00    +0.000 HD
ENDROOT
BRANCH   1  13
ATOM      5  C   UNL     1       0.569  11.312  20.204  0.00  0.00    +0.000 A 
ATOM      6  C   UNL     1      -0.094  11.805  21.332  0.00  0.00    +0.000 A 
ATOM      7  C   UNL     1      -0.445  10.954  22.380  0.00  0.00    +0.000 A 
ATOM      8  C   UNL     1      -0.134   9.597  22.303  0.00  0.00    +0.000 A 
ATOM      9  C   UNL     1       0.557   9.093  21.195  0.00  0.00    +0.000 A 
ATOM     10  C   UNL     1       0.926   9.955  20.149  0.00  0.00    +0.000 A 
ATOM     11  O   UNL     1       1.739   9.531  19.130  0.00  0.00    +0.000 OA
ATOM     12  C   UNL     1       1.876   8.114  18.927  0.00  0.00    +0.000 C 
ATOM     13  C   UNL     1       1.734   7.269  20.161  0.00  0.00    +0.000 C 
ATOM     14  C   UNL     1       1.015   7.706  21.205  0.00  0.00    +0.000 C 
BRANCH   5  16
ATOM     15  C   UNL     1      -0.245  12.824  18.572  0.00  0.00    +0.000 C 
ATOM     16  O   UNL     1       0.868  12.275  19.273  0.00  0.00    +0.000 OA
ENDBRANCH   5  16
ENDBRANCH   1  13
BRANCH   3  17
ATOM     17  C   UNL     1       3.699   4.350  18.673  0.00  0.00    +0.000 C 
BRANCH  17  18
ATOM     18  C   UNL     1       4.905   4.570  17.795  0.00  0.00    +0.000 A 
ATOM     19  N   UNL     1       6.132   4.866  18.186  0.00  0.00    +0.000 NA
ATOM     20  C   UNL     1       6.900   4.841  17.059  0.00  0.00    +0.000 A 
ATOM     21  C   UNL     1       6.137   4.601  15.942  0.00  0.00    +0.000 A 
ATOM     22  N   UNL     1       4.855   4.475  16.429  0.00  0.00    +0.000 N 
ATOM     23  H   UNL     1       4.017   4.269  15.898  0.00  0.00    +0.000 HD
BRANCH  21  24
ATOM     24  C   UNL     1       6.497   4.471  14.536  0.00  0.00    +0.000 A 
ATOM     25  C   UNL     1       7.514   5.266  13.990  0.00  0.00    +0.000 A 
ATOM     26  C   UNL     1       7.842   5.170  12.637  0.00  0.00    +0.000 A 
ATOM     27  C   UNL     1       7.151   4.279  11.817  0.00  0.00    +0.000 A 
ATOM     28  C   UNL     1       6.140   3.482  12.352  0.00  0.00    +0.000 A 
ATOM     29  C   UNL     1       5.815   3.574  13.701  0.00  0.00    +0.000 A 
ENDBRANCH  21  24
ENDBRANCH  17  18
BRANCH  17  30
ATOM     30  C   UNL     1       2.685   3.365  18.011  0.00  0.00    +0.000 C 
ATOM     31  C   UNL     1       2.360   2.184  18.929  0.00  0.00    +0.000 C 
ATOM     32  C   UNL     1       1.356   4.006  17.563  0.00  0.00    +0.000 C 
ENDBRANCH  17  30
ENDBRANCH   3  17
TORSDOF 6
ENDMDL
MODEL 2
REMARK VINA RESULT:      -8.4      0.535      1.207
REMARK  Name = 
REMARK  9 active torsions:
REMARK  status: ('A' for Active; 'I' for Inactive)
REMARK    1  A    between atoms: C_1  and  O_2
REMARK    2  A    between atoms: O_2  and  C_3
REMARK    3  A    between atoms: C_11  and  C_12
REMARK    4  A    between atoms: N_14  and  C_15
REMARK    5  A    between atoms: C_15  and  C_16
REMARK    6  A    between atoms: C_15  and  C_27
REMARK    7  A    between atoms: C_19  and  C_20
REMARK    8  A    between atoms: C_27  and  C_28
REMARK    9  A    between atoms: C_27  and  C_29
REMARK                            x       y       z     vdW  Elec       q    Type
REMARK                         _______ _______ _______ _____ _____    ______ ____
ROOT
ATOM      1  C   UNL     1       2.568   5.806  20.200  0.00  0.00    +0.000 C 
ATOM      2  O   UNL     1       2.327   5.040  21.124  0.00  0.00    +0.000 OA
ATOM      3  N   UNL     1       3.433   5.506  19.178  0.00  0.00    +0.000 N 
ATOM      4  H   UNL     1       3.636   6.196  18.469  0.00  0.00    +0.000 HD
ENDROOT
BRANCH   1  13
ATOM      5  C   UNL     1       0.703  11.146  19.675  0.00  0.00    +0.000 A 
ATOM      6  C   UNL     1       0.053  11.765  20.746  0.00  0.00    +0.000 A 
ATOM      7  C   UNL     1      -0.287  11.039  21.887  0.00  0.00    +0.000 A 
ATOM      8  C   UNL     1       0.023   9.682  21.962  0.00  0.00    +0.000 A 
ATOM      9  C   UNL     1       0.702   9.053  20.911  0.00  0.00    +0.000 A 
ATOM     10  C   UNL     1       1.060   9.791  19.770  0.00  0.00    +0.000 A 
ATOM     11  O   UNL     1       1.861   9.252  18.797  0.00  0.00    +0.000 OA
ATOM     12  C   UNL     1       1.996   7.822  18.755  0.00  0.00    +0.000 C 
ATOM     13  C   UNL     1       1.868   7.123  20.078  0.00  0.00    +0.000 C 
ATOM     14  C   UNL     1       1.160   7.676  21.073  0.00  0.00    +0.000 C 
BRANCH   5  16
ATOM     15  C   UNL     1       0.302  13.244  18.648  0.00  0.00    +0.000 C 
ATOM     16  O   UNL     1       0.992  11.996  18.637  0.00  0.00    +0.000 OA
ENDBRANCH   5  16
ENDBRANCH   1  13
BRANCH   3  17
ATOM     17  C   UNL     1       4.104   4.214  19.013  0.00  0.00    +0.000 C 
BRANCH  17  18
ATOM     18  C   UNL     1       5.257   4.378  18.057  0.00  0.00    +0.000 A 
ATOM     19  N   UNL     1       6.538   4.490  18.364  0.00  0.00    +0.000 NA
ATOM     20  C   UNL     1       7.209   4.488  17.176  0.00  0.00    +0.000 A 
ATOM     21  C   UNL     1       6.340   4.450  16.113  0.00  0.00    +0.000 A 
ATOM     22  N   UNL     1       5.092   4.426  16.697  0.00  0.00    +0.000 N 
ATOM     23  H   UNL     1       4.198   4.371  16.225  0.00  0.00    +0.000 HD
BRANCH  21  24
ATOM     24  C   UNL     1       6.573   4.419  14.676  0.00  0.00    +0.000 A 
ATOM     25  C   UNL     1       5.821   3.568  13.855  0.00  0.00    +0.000 A 
ATOM     26  C   UNL     1       6.061   3.509  12.482  0.00  0.00    +0.000 A 
ATOM     27  C   UNL     1       7.060   4.300  11.918  0.00  0.00    +0.000 A 
ATOM     28  C   UNL     1       7.812   5.153  12.725  0.00  0.00    +0.000 A 
ATOM     29  C   UNL     1       7.570   5.216  14.093  0.00  0.00    +0.000 A 
ENDBRANCH  21  24
ENDBRANCH  17  18
BRANCH  17  30
ATOM     30  C   UNL     1       3.115   3.107  18.528  0.00  0.00    +0.000 C 
ATOM     31  C   UNL     1       2.209   3.610  17.401  0.00  0.00    +0.000 C 
ATOM     32  C   UNL     1       3.784   1.798  18.062  0.00  0.00    +0.000 C 
ENDBRANCH  17  30
ENDBRANCH   3  17
TORSDOF 6
ENDMDL
MODEL 3
REMARK VINA RESULT:      -8.3      1.379      2.176
REMARK  Name = 
REMARK  9 active torsions:
REMARK  status: ('A' for Active; 'I' for Inactive)
REMARK    1  A    between atoms: C_1  and  O_2
REMARK    2  A    between atoms: O_2  and  C_3
REMARK    3  A    between atoms: C_11  and  C_12
REMARK    4  A    between atoms: N_14  and  C_15
REMARK    5  A    between atoms: C_15  and  C_16
REMARK    6  A    between atoms: C_15  and  C_27
REMARK    7  A    between atoms: C_19  and  C_20
REMARK    8  A    between atoms: C_27  and  C_28
REMARK    9  A    between atoms: C_27  and  C_29
REMARK                            x       y       z     vdW  Elec       q    Type
REMARK                         _______ _______ _______ _____ _____    ______ ____
ROOT
ATOM      1  C   UNL     1       2.709   6.311  18.575  0.00  0.00    +0.000 C 
ATOM      2  O   UNL     1       2.883   6.322  17.363  0.00  0.00    +0.000 OA
ATOM      3  N   UNL     1       3.078   5.263  19.381  0.00  0.00    +0.000 N 
ATOM      4  H   UNL     1       2.862   5.285  20.367  0.00  0.00    +0.000 HD
ENDROOT
BRANCH   1  13
ATOM      5  C   UNL     1      -0.184  10.318  21.376  0.00  0.00    +0.000 A 
ATOM      6  C   UNL     1      -0.545  11.501  20.723  0.00  0.00    +0.000 A 
ATOM      7  C   UNL     1      -0.069  11.780  19.443  0.00  0.00    +0.000 A 
ATOM      8  C   UNL     1       0.777  10.874  18.806  0.00  0.00    +0.000 A 
ATOM      9  C   UNL     1       1.123   9.670  19.432  0.00  0.00    +0.000 A 
ATOM     10  C   UNL     1       0.627   9.382  20.714  0.00  0.00    +0.000 A 
ATOM     11  O   UNL     1       0.814   8.152  21.289  0.00  0.00    +0.000 OA
ATOM     12  C   UNL     1       1.848   7.310  20.753  0.00  0.00    +0.000 C 
ATOM     13  C   UNL     1       2.135   7.494  19.290  0.00  0.00    +0.000 C 
ATOM     14  C   UNL     1       1.876   8.665  18.688  0.00  0.00    +0.000 C 
BRANCH   5  16
ATOM     15  C   UNL     1      -1.467  11.308  23.104  0.00  0.00    +0.000 C 
ATOM     16  O   UNL     1      -0.752  10.175  22.617  0.00  0.00    +0.000 OA
ENDBRANCH   5  16
ENDBRANCH   1  13
BRANCH   3  17
ATOM     17  C   UNL     1       3.799   4.076  18.915  0.00  0.00    +0.000 C 
BRANCH  17  18
ATOM     18  C   UNL     1       4.892   4.505  17.971  0.00  0.00    +0.000 A 
ATOM     19  N   UNL     1       6.021   5.118  18.284  0.00  0.00    +0.000 NA
ATOM     20  C   UNL     1       6.743   5.186  17.129  0.00  0.00    +0.000 A 
ATOM     21  C   UNL     1       6.033   4.679  16.067  0.00  0.00    +0.000 A 
ATOM     22  N   UNL     1       4.832   4.289  16.619  0.00  0.00    +0.000 N 
ATOM     23  H   UNL     1       4.057   3.845  16.142  0.00  0.00    +0.000 HD
BRANCH  21  24
ATOM     24  C   UNL     1       6.378   4.524  14.661  0.00  0.00    +0.000 A 
ATOM     25  C   UNL     1       5.677   3.615  13.856  0.00  0.00    +0.000 A 
ATOM     26  C   UNL     1       6.023   3.438  12.517  0.00  0.00    +0.000 A 
ATOM     27  C   UNL     1       7.078   4.166  11.970  0.00  0.00    +0.000 A 
ATOM     28  C   UNL     1       7.780   5.074  12.761  0.00  0.00    +0.000 A 
ATOM     29  C   UNL     1       7.433   5.256  14.095  0.00  0.00    +0.000 A 
ENDBRANCH  21  24
ENDBRANCH  17  18
BRANCH  17  30
ATOM     30  C   UNL     1       2.840   3.043  18.244  0.00  0.00    +0.000 C 
ATOM     31  C   UNL     1       3.390   1.617  18.330  0.00  0.00    +0.000 C 
ATOM     32  C   UNL     1       1.401   3.039  18.797  0.00  0.00    +0.000 C 
ENDBRANCH  17  30
ENDBRANCH   3  17
TORSDOF 6
ENDMDL
MODEL 4
REMARK VINA RESULT:      -8.2      0.921      1.303
REMARK  Name = 
REMARK  9 active torsions:
REMARK  status: ('A' for Active; 'I' for Inactive)
REMARK    1  A    between atoms: C_1  and  O_2
REMARK    2  A    between atoms: O_2  and  C_3
REMARK    3  A    between atoms: C_11  and  C_12
REMARK    4  A    between atoms: N_14  and  C_15
REMARK    5  A    between atoms: C_15  and  C_16
REMARK    6  A    between atoms: C_15  and  C_27
REMARK    7  A    between atoms: C_19  and  C_20
REMARK    8  A    between atoms: C_27  and  C_28
REMARK    9  A    between atoms: C_27  and  C_29
REMARK                            x       y       z     vdW  Elec       q    Type
REMARK                         _______ _______ _______ _____ _____    ______ ____
ROOT
ATOM      1  C   UNL     1       3.371   6.268  19.159  0.00  0.00    +0.000 C 
ATOM      2  O   UNL     1       4.542   6.437  19.475  0.00  0.00    +0.000 OA
ATOM      3  N   UNL     1       2.881   5.075  18.688  0.00  0.00    +0.000 N 
ATOM      4  H   UNL     1       1.918   5.007  18.392  0.00  0.00    +0.000 HD
ENDROOT
BRANCH   1  13
ATOM      5  C   UNL     1       0.170  10.925  19.737  0.00  0.00    +0.000 A 
ATOM      6  C   UNL     1      -0.446  11.199  20.962  0.00  0.00    +0.000 A 
ATOM      7  C   UNL     1      -0.417  10.265  21.997  0.00  0.00    +0.000 A 
ATOM      8  C   UNL     1       0.231   9.045  21.810  0.00  0.00    +0.000 A 
ATOM      9  C   UNL     1       0.879   8.767  20.601  0.00  0.00    +0.000 A 
ATOM     10  C   UNL     1       0.865   9.717  19.566  0.00  0.00    +0.000 A 
ATOM     11  O   UNL     1       1.620   9.548  18.434  0.00  0.00    +0.000 OA
ATOM     12  C   UNL     1       2.101   8.226  18.140  0.00  0.00    +0.000 C 
ATOM     13  C   UNL     1       2.352   7.350  19.335  0.00  0.00    +0.000 C 
ATOM     14  C   UNL     1       1.686   7.556  20.480  0.00  0.00    +0.000 C 
BRANCH   5  16
ATOM     15  C   UNL     1      -1.216  12.165  18.268  0.00  0.00    +0.000 C 
ATOM     16  O   UNL     1       0.077  11.951  18.829  0.00  0.00    +0.000 OA
ENDBRANCH   5  16
ENDBRANCH   1  13
BRANCH   3  17
ATOM     17  C   UNL     1       3.665   3.841  18.588  0.00  0.00    +0.000 C 
BRANCH  17  18
ATOM     18  C   UNL     1       4.884   4.103  17.742  0.00  0.00    +0.000 A 
ATOM     19  N   UNL     1       6.126   4.266  18.163  0.00  0.00    +0.000 NA
ATOM     20  C   UNL     1       6.895   4.347  17.039  0.00  0.00    +0.000 A 
ATOM     21  C   UNL     1       6.123   4.309  15.904  0.00  0.00    +0.000 A 
ATOM     22  N   UNL     1       4.833   4.197  16.376  0.00  0.00    +0.000 N 
ATOM     23  H   UNL     1       3.987   4.117  15.826  0.00  0.00    +0.000 HD
BRANCH  21  24
ATOM     24  C   UNL     1       6.479   4.348  14.492  0.00  0.00    +0.000 A 
ATOM     25  C   UNL     1       5.849   3.491  13.579  0.00  0.00    +0.000 A 
ATOM     26  C   UNL     1       6.208   3.501  12.231  0.00  0.00    +0.000 A 
ATOM     27  C   UNL     1       7.204   4.367  11.784  0.00  0.00    +0.000 A 
ATOM     28  C   UNL     1       7.835   5.226  12.684  0.00  0.00    +0.000 A 
ATOM     29  C   UNL     1       7.474   5.220  14.027  0.00  0.00    +0.000 A 
ENDBRANCH  21  24
ENDBRANCH  17  18
BRANCH  17  30
ATOM     30  C   UNL     1       2.816   2.663  18.014  0.00  0.00    +0.000 C 
ATOM     31  C   UNL     1       3.484   1.308  18.264  0.00  0.00    +0.000 C 
ATOM     32  C   UNL     1       1.368   2.590  18.539  0.00  0.00    +0.000 C 
ENDBRANCH  17  30
ENDBRANCH   3  17
TORSDOF 6
ENDMDL
MODEL 5
REMARK VINA RESULT:      -8.2      1.150      1.248
REMARK  Name = 
REMARK  9 active torsions:
REMARK  status: ('A' for Active; 'I' for Inactive)
REMARK    1  A    between atoms: C_1  and  O_2
REMARK    2  A    between atoms: O_2  and  C_3
REMARK    3  A    between atoms: C_11  and  C_12
REMARK    4  A    between atoms: N_14  and  C_15
REMARK    5  A    between atoms: C_15  and  C_16
REMARK    6  A    between atoms: C_15  and  C_27
REMARK    7  A    between atoms: C_19  and  C_20
REMARK    8  A    between atoms: C_27  and  C_28
REMARK    9  A    between atoms: C_27  and  C_29
REMARK                            x       y       z     vdW  Elec       q    Type
REMARK                         _______ _______ _______ _____ _____    ______ ____
ROOT
ATOM      1  C   UNL     1       2.965   6.482  18.677  0.00  0.00    +0.000 C 
ATOM      2  O   UNL     1       3.113   6.280  17.479  0.00  0.00    +0.000 OA
ATOM      3  N   UNL     1       3.616   5.766  19.650  0.00  0.00    +0.000 N 
ATOM      4  H   UNL     1       3.415   5.940  20.624  0.00  0.00    +0.000 HD
ENDROOT
BRANCH   1  13
ATOM      5  C   UNL     1       0.400  11.197  20.539  0.00  0.00    +0.000 A 
ATOM      6  C   UNL     1      -0.087  11.254  21.848  0.00  0.00    +0.000 A 
ATOM      7  C   UNL     1      -0.096  10.116  22.654  0.00  0.00    +0.000 A 
ATOM      8  C   UNL     1       0.385   8.908  22.151  0.00  0.00    +0.000 A 
ATOM      9  C   UNL     1       0.905   8.841  20.852  0.00  0.00    +0.000 A 
ATOM     10  C   UNL     1       0.930   9.993  20.049  0.00  0.00    +0.000 A 
ATOM     11  O   UNL     1       1.574  10.002  18.839  0.00  0.00    +0.000 OA
ATOM     12  C   UNL     1       1.869   8.736  18.226  0.00  0.00    +0.000 C 
ATOM     13  C   UNL     1       2.100   7.597  19.177  0.00  0.00    +0.000 C 
ATOM     14  C   UNL     1       1.549   7.611  20.400  0.00  0.00    +0.000 C 
BRANCH   5  16
ATOM     15  C   UNL     1      -0.839  12.687  19.175  0.00  0.00    +0.000 C 
ATOM     16  O   UNL     1       0.366  12.402  19.883  0.00  0.00    +0.000 OA
ENDBRANCH   5  16
ENDBRANCH   1  13
BRANCH   3  17
ATOM     17  C   UNL     1       4.626   4.739  19.384  0.00  0.00    +0.000 C 
BRANCH  17  18
ATOM     18  C   UNL     1       5.477   5.178  18.221  0.00  0.00    +0.000 A 
ATOM     19  N   UNL     1       6.442   6.081  18.235  0.00  0.00    +0.000 NA
ATOM     20  C   UNL     1       7.005   6.048  16.993  0.00  0.00    +0.000 A 
ATOM     21  C   UNL     1       6.341   5.171  16.169  0.00  0.00    +0.000 A 
ATOM     22  N   UNL     1       5.337   4.657  16.961  0.00  0.00    +0.000 N 
ATOM     23  H   UNL     1       4.654   3.956  16.702  0.00  0.00    +0.000 HD
BRANCH  21  24
ATOM     24  C   UNL     1       6.571   4.786  14.784  0.00  0.00    +0.000 A 
ATOM     25  C   UNL     1       7.583   5.402  14.036  0.00  0.00    +0.000 A 
ATOM     26  C   UNL     1       7.788   5.061  12.699  0.00  0.00    +0.000 A 
ATOM     27  C   UNL     1       6.977   4.103  12.095  0.00  0.00    +0.000 A 
ATOM     28  C   UNL     1       5.968   3.481  12.831  0.00  0.00    +0.000 A 
ATOM     29  C   UNL     1       5.766   3.817  14.165  0.00  0.00    +0.000 A 
ENDBRANCH  21  24
ENDBRANCH  17  18
BRANCH  17  30
ATOM     30  C   UNL     1       3.977   3.344  19.120  0.00  0.00    +0.000 C 
ATOM     31  C   UNL     1       4.585   2.257  20.010  0.00  0.00    +0.000 C 
ATOM     32  C   UNL     1       2.445   3.299  19.285  0.00  0.00    +0.000 C 
ENDBRANCH  17  30
ENDBRANCH   3  17
TORSDOF 6
ENDMDL
MODEL 6
REMARK VINA RESULT:      -8.1      3.751     10.155
REMARK  Name = 
REMARK  9 active torsions:
REMARK  status: ('A' for Active; 'I' for Inactive)
REMARK    1  A    between atoms: C_1  and  O_2
REMARK    2  A    between atoms: O_2  and  C_3
REMARK    3  A    between atoms: C_11  and  C_12
REMARK    4  A    between atoms: N_14  and  C_15
REMARK    5  A    between atoms: C_15  and  C_16
REMARK    6  A    between atoms: C_15  and  C_27
REMARK    7  A    between atoms: C_19  and  C_20
REMARK    8  A    between atoms: C_27  and  C_28
REMARK    9  A    between atoms: C_27  and  C_29
REMARK                            x       y       z     vdW  Elec       q    Type
REMARK                         _______ _______ _______ _____ _____    ______ ____
ROOT
ATOM      1  C   UNL     1       1.375   8.673  19.981  0.00  0.00    +0.000 C 
ATOM      2  O   UNL     1       1.334   8.914  21.180  0.00  0.00    +0.000 OA
ATOM      3  N   UNL     1       0.772   9.461  19.032  0.00  0.00    +0.000 N 
ATOM      4  H   UNL     1       0.792   9.186  18.061  0.00  0.00    +0.000 HD
ENDROOT
BRANCH   1  13
ATOM      5  C   UNL     1       4.862   4.391  18.646  0.00  0.00    +0.000 A 
ATOM      6  C   UNL     1       5.685   4.489  17.521  0.00  0.00    +0.000 A 
ATOM      7  C   UNL     1       5.550   5.554  16.631  0.00  0.00    +0.000 A 
ATOM      8  C   UNL     1       4.584   6.531  16.863  0.00  0.00    +0.000 A 
ATOM      9  C   UNL     1       3.771   6.465  18.001  0.00  0.00    +0.000 A 
ATOM     10  C   UNL     1       3.922   5.401  18.906  0.00  0.00    +0.000 A 
ATOM     11  O   UNL     1       3.259   5.389  20.106  0.00  0.00    +0.000 OA
ATOM     12  C   UNL     1       2.119   6.254  20.252  0.00  0.00    +0.000 C 
ATOM     13  C   UNL     1       2.162   7.519  19.444  0.00  0.00    +0.000 C 
ATOM     14  C   UNL     1       2.878   7.578  18.311  0.00  0.00    +0.000 C 
BRANCH   5  16
ATOM     15  C   UNL     1       4.155   2.266  19.419  0.00  0.00    +0.000 C 
ATOM     16  O   UNL     1       5.132   3.303  19.438  0.00  0.00    +0.000 OA
ENDBRANCH   5  16
ENDBRANCH   1  13
BRANCH   3  17
ATOM     17  C   UNL     1       0.086  10.723  19.319  0.00  0.00    +0.000 C 
BRANCH  17  18
ATOM     18  C   UNL     1      -1.210  10.762  18.551  0.00  0.00    +0.000 A 
ATOM     19  N   UNL     1      -1.507  10.088  17.454  0.00  0.00    +0.000 NA
ATOM     20  C   UNL     1      -2.822  10.345  17.200  0.00  0.00    +0.000 A 
ATOM     21  C   UNL     1      -3.336  11.246  18.101  0.00  0.00    +0.000 A 
ATOM     22  N   UNL     1      -2.275  11.536  18.931  0.00  0.00    +0.000 N 
ATOM     23  H   UNL     1      -2.281  12.150  19.737  0.00  0.00    +0.000 HD
BRANCH  21  24
ATOM     24  C   UNL     1      -4.670  11.812  18.247  0.00  0.00    +0.000 A 
ATOM     25  C   UNL     1      -5.446  12.096  17.115  0.00  0.00    +0.000 A 
ATOM     26  C   UNL     1      -6.712  12.668  17.246  0.00  0.00    +0.000 A 
ATOM     27  C   UNL     1      -7.211  12.965  18.513  0.00  0.00    +0.000 A 
ATOM     28  C   UNL     1      -6.448  12.684  19.646  0.00  0.00    +0.000 A 
ATOM     29  C   UNL     1      -5.188  12.109  19.516  0.00  0.00    +0.000 A 
ENDBRANCH  21  24
ENDBRANCH  17  18
BRANCH  17  30
ATOM     30  C   UNL     1       0.982  11.957  18.987  0.00  0.00    +0.000 C 
ATOM     31  C   UNL     1       1.468  12.664  20.255  0.00  0.00    +0.000 C 
ATOM     32  C   UNL     1       2.210  11.649  18.107  0.00  0.00    +0.000 C 
ENDBRANCH  17  30
ENDBRANCH   3  17
TORSDOF 6
ENDMDL
MODEL 7
REMARK VINA RESULT:      -8.1      0.823      1.082
REMARK  Name = 
REMARK  9 active torsions:
REMARK  status: ('A' for Active; 'I' for Inactive)
REMARK    1  A    between atoms: C_1  and  O_2
REMARK    2  A    between atoms: O_2  and  C_3
REMARK    3  A    between atoms: C_11  and  C_12
REMARK    4  A    between atoms: N_14  and  C_15
REMARK    5  A    between atoms: C_15  and  C_16
REMARK    6  A    between atoms: C_15  and  C_27
REMARK    7  A    between atoms: C_19  and  C_20
REMARK    8  A    between atoms: C_27  and  C_28
REMARK    9  A    between atoms: C_27  and  C_29
REMARK                            x       y       z     vdW  Elec       q    Type
REMARK                         _______ _______ _______ _____ _____    ______ ____
ROOT
ATOM      1  C   UNL     1       2.492   6.018  20.050  0.00  0.00    +0.000 C 
ATOM      2  O   UNL     1       2.016   5.207  20.834  0.00  0.00    +0.000 OA
ATOM      3  N   UNL     1       3.553   5.737  19.225  0.00  0.00    +0.000 N 
ATOM      4  H   UNL     1       3.938   6.461  18.636  0.00  0.00    +0.000 HD
ENDROOT
BRANCH   1  13
ATOM      5  C   UNL     1       1.036  11.462  19.331  0.00  0.00    +0.000 A 
ATOM      6  C   UNL     1       0.430  12.164  20.377  0.00  0.00    +0.000 A 
ATOM      7  C   UNL     1       0.034  11.506  21.540  0.00  0.00    +0.000 A 
ATOM      8  C   UNL     1       0.240  10.132  21.663  0.00  0.00    +0.000 A 
ATOM      9  C   UNL     1       0.873   9.419  20.638  0.00  0.00    +0.000 A 
ATOM     10  C   UNL     1       1.289  10.088  19.475  0.00  0.00    +0.000 A 
ATOM     11  O   UNL     1       2.051   9.457  18.525  0.00  0.00    +0.000 OA
ATOM     12  C   UNL     1       2.078   8.020  18.533  0.00  0.00    +0.000 C 
ATOM     13  C   UNL     1       1.893   7.379  19.878  0.00  0.00    +0.000 C 
ATOM     14  C   UNL     1       1.225   8.018  20.850  0.00  0.00    +0.000 C 
BRANCH   5  16
ATOM     15  C   UNL     1       2.552  13.058  18.455  0.00  0.00    +0.000 C 
ATOM     16  O   UNL     1       1.391  12.252  18.266  0.00  0.00    +0.000 OA
ENDBRANCH   5  16
ENDBRANCH   1  13
BRANCH   3  17
ATOM     17  C   UNL     1       4.188   4.422  19.113  0.00  0.00    +0.000 C 
BRANCH  17  18
ATOM     18  C   UNL     1       5.347   4.518  18.154  0.00  0.00    +0.000 A 
ATOM     19  N   UNL     1       6.632   4.574  18.459  0.00  0.00    +0.000 NA
ATOM     20  C   UNL     1       7.302   4.523  17.272  0.00  0.00    +0.000 A 
ATOM     21  C   UNL     1       6.431   4.511  16.210  0.00  0.00    +0.000 A 
ATOM     22  N   UNL     1       5.184   4.554  16.794  0.00  0.00    +0.000 N 
ATOM     23  H   UNL     1       4.288   4.535  16.322  0.00  0.00    +0.000 HD
BRANCH  21  24
ATOM     24  C   UNL     1       6.662   4.449  14.773  0.00  0.00    +0.000 A 
ATOM     25  C   UNL     1       7.616   5.281  14.173  0.00  0.00    +0.000 A 
ATOM     26  C   UNL     1       7.819   5.250  12.793  0.00  0.00    +0.000 A 
ATOM     27  C   UNL     1       7.065   4.387  11.999  0.00  0.00    +0.000 A 
ATOM     28  C   UNL     1       6.115   3.553  12.587  0.00  0.00    +0.000 A 
ATOM     29  C   UNL     1       5.915   3.580  13.963  0.00  0.00    +0.000 A 
ENDBRANCH  21  24
ENDBRANCH  17  18
BRANCH  17  30
ATOM     30  C   UNL     1       3.171   3.324  18.668  0.00  0.00    +0.000 C 
ATOM     31  C   UNL     1       2.503   3.676  17.336  0.00  0.00    +0.000 C 
ATOM     32  C   UNL     1       3.758   1.904  18.552  0.00  0.00    +0.000 C 
ENDBRANCH  17  30
ENDBRANCH   3  17
TORSDOF 6
ENDMDL
MODEL 8
REMARK VINA RESULT:      -8.0      1.094      1.610
REMARK  Name = 
REMARK  9 active torsions:
REMARK  status: ('A' for Active; 'I' for Inactive)
REMARK    1  A    between atoms: C_1  and  O_2
REMARK    2  A    between atoms: O_2  and  C_3
REMARK    3  A    between atoms: C_11  and  C_12
REMARK    4  A    between atoms: N_14  and  C_15
REMARK    5  A    between atoms: C_15  and  C_16
REMARK    6  A    between atoms: C_15  and  C_27
REMARK    7  A    between atoms: C_19  and  C_20
REMARK    8  A    between atoms: C_27  and  C_28
REMARK    9  A    between atoms: C_27  and  C_29
REMARK                            x       y       z     vdW  Elec       q    Type
REMARK                         _______ _______ _______ _____ _____    ______ ____
ROOT
ATOM      1  C   UNL     1       2.300   6.802  19.549  0.00  0.00    +0.000 C 
ATOM      2  O   UNL     1       2.066   6.203  20.591  0.00  0.00    +0.000 OA
ATOM      3  N   UNL     1       2.954   6.235  18.484  0.00  0.00    +0.000 N 
ATOM      4  H   UNL     1       3.167   6.792  17.669  0.00  0.00    +0.000 HD
ENDROOT
BRANCH   1  13
ATOM      5  C   UNL     1       1.297  12.336  18.749  0.00  0.00    +0.000 A 
ATOM      6  C   UNL     1       0.621  13.069  19.728  0.00  0.00    +0.000 A 
ATOM      7  C   UNL     1       0.049  12.430  20.828  0.00  0.00    +0.000 A 
ATOM      8  C   UNL     1       0.150  11.046  20.953  0.00  0.00    +0.000 A 
ATOM      9  C   UNL     1       0.850  10.299  19.997  0.00  0.00    +0.000 A 
ATOM     10  C   UNL     1       1.442  10.947  18.901  0.00  0.00    +0.000 A 
ATOM     11  O   UNL     1       2.266  10.274  18.036  0.00  0.00    +0.000 OA
ATOM     12  C   UNL     1       2.198   8.838  18.025  0.00  0.00    +0.000 C 
ATOM     13  C   UNL     1       1.815   8.201  19.330  0.00  0.00    +0.000 C 
ATOM     14  C   UNL     1       1.082   8.876  20.228  0.00  0.00    +0.000 C 
BRANCH   5  16
ATOM     15  C   UNL     1       2.730  14.129  18.160  0.00  0.00    +0.000 C 
ATOM     16  O   UNL     1       1.826  13.108  17.745  0.00  0.00    +0.000 OA
ENDBRANCH   5  16
ENDBRANCH   1  13
BRANCH   3  17
ATOM     17  C   UNL     1       3.374   4.833  18.421  0.00  0.00    +0.000 C 
BRANCH  17  18
ATOM     18  C   UNL     1       4.657   4.741  17.635  0.00  0.00    +0.000 A 
ATOM     19  N   UNL     1       5.873   4.545  18.115  0.00  0.00    +0.000 NA
ATOM     20  C   UNL     1       6.686   4.407  17.028  0.00  0.00    +0.000 A 
ATOM     21  C   UNL     1       5.989   4.591  15.859  0.00  0.00    +0.000 A 
ATOM     22  N   UNL     1       4.700   4.848  16.270  0.00  0.00    +0.000 N 
ATOM     23  H   UNL     1       3.892   5.012  15.681  0.00  0.00    +0.000 HD
BRANCH  21  24
ATOM     24  C   UNL     1       6.409   4.531  14.465  0.00  0.00    +0.000 A 
ATOM     25  C   UNL     1       5.764   3.668  13.569  0.00  0.00    +0.000 A 
ATOM     26  C   UNL     1       6.182   3.582  12.241  0.00  0.00    +0.000 A 
ATOM     27  C   UNL     1       7.253   4.355  11.798  0.00  0.00    +0.000 A 
ATOM     28  C   UNL     1       7.900   5.219  12.681  0.00  0.00    +0.000 A 
ATOM     29  C   UNL     1       7.481   5.310  14.004  0.00  0.00    +0.000 A 
ENDBRANCH  21  24
ENDBRANCH  17  18
BRANCH  17  30
ATOM     30  C   UNL     1       2.263   3.924  17.806  0.00  0.00    +0.000 C 
ATOM     31  C   UNL     1       2.830   2.592  17.309  0.00  0.00    +0.000 C 
ATOM     32  C   UNL     1       1.078   3.623  18.745  0.00  0.00    +0.000 C 
ENDBRANCH  17  30
ENDBRANCH   3  17
TORSDOF 6
ENDMDL
MODEL 9
REMARK VINA RESULT:      -8.0      1.198      1.598
REMARK  Name = 
REMARK  9 active torsions:
REMARK  status: ('A' for Active; 'I' for Inactive)
REMARK    1  A    between atoms: C_1  and  O_2
REMARK    2  A    between atoms: O_2  and  C_3
REMARK    3  A    between atoms: C_11  and  C_12
REMARK    4  A    between atoms: N_14  and  C_15
REMARK    5  A    between atoms: C_15  and  C_16
REMARK    6  A    between atoms: C_15  and  C_27
REMARK    7  A    between atoms: C_19  and  C_20
REMARK    8  A    between atoms: C_27  and  C_28
REMARK    9  A    between atoms: C_27  and  C_29
REMARK                            x       y       z     vdW  Elec       q    Type
REMARK                         _______ _______ _______ _____ _____    ______ ____
ROOT
ATOM      1  C   UNL     1       3.205   6.537  18.550  0.00  0.00    +0.000 C 
ATOM      2  O   UNL     1       3.541   6.517  17.373  0.00  0.00    +0.000 OA
ATOM      3  N   UNL     1       3.692   5.662  19.489  0.00  0.00    +0.000 N 
ATOM      4  H   UNL     1       3.340   5.690  20.435  0.00  0.00    +0.000 HD
ENDROOT
BRANCH   1  13
ATOM      5  C   UNL     1       0.354  11.053  20.488  0.00  0.00    +0.000 A 
ATOM      6  C   UNL     1      -0.092  11.078  21.813  0.00  0.00    +0.000 A 
ATOM      7  C   UNL     1       0.013   9.946  22.621  0.00  0.00    +0.000 A 
ATOM      8  C   UNL     1       0.566   8.776  22.104  0.00  0.00    +0.000 A 
ATOM      9  C   UNL     1       1.046   8.742  20.789  0.00  0.00    +0.000 A 
ATOM     10  C   UNL     1       0.957   9.889  19.983  0.00  0.00    +0.000 A 
ATOM     11  O   UNL     1       1.558   9.942  18.752  0.00  0.00    +0.000 OA
ATOM     12  C   UNL     1       1.928   8.699  18.132  0.00  0.00    +0.000 C 
ATOM     13  C   UNL     1       2.276   7.586  19.077  0.00  0.00    +0.000 C 
ATOM     14  C   UNL     1       1.767   7.563  20.318  0.00  0.00    +0.000 C 
BRANCH   5  16
ATOM     15  C   UNL     1       1.085  13.293  20.242  0.00  0.00    +0.000 C 
ATOM     16  O   UNL     1       0.206  12.249  19.831  0.00  0.00    +0.000 OA
ENDBRANCH   5  16
ENDBRANCH   1  13
BRANCH   3  17
ATOM     17  C   UNL     1       4.729   4.661  19.228  0.00  0.00    +0.000 C 
BRANCH  17  18
ATOM     18  C   UNL     1       5.576   5.124  18.070  0.00  0.00    +0.000 A 
ATOM     19  N   UNL     1       6.553   6.013  18.102  0.00  0.00    +0.000 NA
ATOM     20  C   UNL     1       7.104   6.009  16.855  0.00  0.00    +0.000 A 
ATOM     21  C   UNL     1       6.422   5.166  16.012  0.00  0.00    +0.000 A 
ATOM     22  N   UNL     1       5.419   4.642  16.797  0.00  0.00    +0.000 N 
ATOM     23  H   UNL     1       4.724   3.958  16.523  0.00  0.00    +0.000 HD
BRANCH  21  24
ATOM     24  C   UNL     1       6.635   4.818  14.613  0.00  0.00    +0.000 A 
ATOM     25  C   UNL     1       5.869   3.812  14.009  0.00  0.00    +0.000 A 
ATOM     26  C   UNL     1       6.090   3.452  12.680  0.00  0.00    +0.000 A 
ATOM     27  C   UNL     1       7.083   4.093  11.942  0.00  0.00    +0.000 A 
ATOM     28  C   UNL     1       7.849   5.098  12.533  0.00  0.00    +0.000 A 
ATOM     29  C   UNL     1       7.627   5.461  13.857  0.00  0.00    +0.000 A 
ENDBRANCH  21  24
ENDBRANCH  17  18
BRANCH  17  30
ATOM     30  C   UNL     1       4.115   3.251  18.957  0.00  0.00    +0.000 C 
ATOM     31  C   UNL     1       4.435   2.266  20.084  0.00  0.00    +0.000 C 
ATOM     32  C   UNL     1       2.591   3.240  18.726  0.00  0.00    +0.000 C 
ENDBRANCH  17  30
ENDBRANCH   3  17
TORSDOF 6
ENDMDL
