MODEL 1
REMARK VINA RESULT:      -9.1      0.000      0.000
REMARK  Name = 
REMARK  7 active torsions:
REMARK  status: ('A' for Active; 'I' for Inactive)
REMARK    1  A    between atoms: C_10  and  C_11
REMARK    2  A    between atoms: C_14  and  O_15
REMARK    3  A    between atoms: O_15  and  C_16
REMARK    4  A    between atoms: C_16  and  C_17
REMARK    5  A    between atoms: C_17  and  C_18
REMARK    6  A    between atoms: C_18  and  N_19
REMARK    7  A    between atoms: N_27  and  C_28
REMARK                            x       y       z     vdW  Elec       q    Type
REMARK                         _______ _______ _______ _____ _____    ______ ____
ROOT
ATOM      1  O   UNL     1       4.646   2.697  18.099  0.00  0.00    +0.000 OA
ATOM      2  C   UNL     1       4.436   3.857  17.742  0.00  0.00    +0.000 A 
ATOM      3  C   UNL     1       5.161   4.356  16.567  0.00  0.00    +0.000 A 
ATOM      4  C   UNL     1       5.948   3.488  15.800  0.00  0.00    +0.000 A 
ATOM      5  C   UNL     1       6.605   3.974  14.678  0.00  0.00    +0.000 A 
ATOM      6  C   UNL     1       6.490   5.323  14.335  0.00  0.00    +0.000 A 
ATOM      7  C   UNL     1       5.694   6.177  15.104  0.00  0.00    +0.000 A 
ATOM      8  C   UNL     1       5.000   5.690  16.211  0.00  0.00    +0.000 A 
ATOM      9  N   UNL     1       4.149   6.536  16.910  0.00  0.00    +0.000 NA
ATOM     10  C   UNL     1       3.457   6.053  17.894  0.00  0.00    +0.000 A 
ATOM     11  N   UNL     1       3.524   4.730  18.328  0.00  0.00    +0.000 N 
ENDROOT
BRANCH  10  12
ATOM     12  C   UNL     1       2.596   7.045  18.636  0.00  0.00    +0.000 A 
ATOM     13  C   UNL     1       2.164   8.176  17.941  0.00  0.00    +0.000 A 
ATOM     14  C   UNL     1       1.496   9.187  18.615  0.00  0.00    +0.000 A 
ATOM     15  C   UNL     1       1.232   9.086  19.986  0.00  0.00    +0.000 A 
ATOM     16  C   UNL     1       1.606   7.941  20.677  0.00  0.00    +0.000 A 
ATOM     17  C   UNL     1       2.319   6.946  20.006  0.00  0.00    +0.000 A 
BRANCH  15  18
ATOM     18  O   UNL     1       0.641  10.082  20.725  0.00  0.00    +0.000 OA
BRANCH  18  19
ATOM     19  C   UNL     1       0.643  11.355  20.065  0.00  0.00    +0.000 C 
BRANCH  19  20
ATOM     20  C   UNL     1      -0.780  11.827  19.841  0.00  0.00    +0.000 C 
BRANCH  20  21
ATOM     21  C   UNL     1      -1.671  10.704  19.278  0.00  0.00    +0.000 C 
BRANCH  21  22
ATOM     22  N   UNL     1      -2.307  11.030  17.986  0.00  0.00    +0.000 NA
ATOM     23  C   UNL     1      -2.029   9.996  16.976  0.00  0.00    +0.000 C 
ATOM     24  C   UNL     1      -2.599  10.381  15.613  0.00  0.00    +0.000 C 
ATOM     25  C   UNL     1      -4.094  10.647  15.691  0.00  0.00    +0.000 C 
ATOM     26  C   UNL     1      -4.398  11.646  16.802  0.00  0.00    +0.000 C 
ATOM     27  C   UNL     1      -3.763  11.218  18.132  0.00  0.00    +0.000 C 
ENDBRANCH  21  22
ENDBRANCH  20  21
ENDBRANCH  19  20
ENDBRANCH  18  19
ENDBRANCH  15  18
ENDBRANCH  10  12
BRANCH  11  28
ATOM     28  C   UNL     1       2.642   4.165  19.295  0.00  0.00    +0.000 A 
ATOM     29  C   UNL     1       3.055   4.068  20.634  0.00  0.00    +0.000 A 
ATOM     30  C   UNL     1       2.216   3.501  21.593  0.00  0.00    +0.000 A 
ATOM     31  C   UNL     1       0.968   3.010  21.218  0.00  0.00    +0.000 A 
ATOM     32  C   UNL     1       0.535   3.131  19.897  0.00  0.00    +0.000 A 
ATOM     33  C   UNL     1       1.363   3.719  18.937  0.00  0.00    +0.000 A 
ENDBRANCH  11  28
TORSDOF 7
ENDMDL
MODEL 2
REMARK VINA RESULT:      -8.8      2.550      3.577
REMARK  Name = 
REMARK  7 active torsions:
REMARK  status: ('A' for Active; 'I' for Inactive)
REMARK    1  A    between atoms: C_10  and  C_11
REMARK    2  A    between atoms: C_14  and  O_15
REMARK    3  A    between atoms: O_15  and  C_16
REMARK    4  A    between atoms: C_16  and  C_17
REMARK    5  A    between atoms: C_17  and  C_18
REMARK    6  A    between atoms: C_18  and  N_19
REMARK    7  A    between atoms: N_27  and  C_28
REMARK                            x       y       z     vdW  Elec       q    Type
REMARK                         _______ _______ _______ _____ _____    ______ ____
ROOT
ATOM      1  O   UNL     1       4.783   2.734  18.096  0.00  0.00    +0.000 OA
ATOM      2  C   UNL     1       4.519   3.889  17.756  0.00  0.00    +0.000 A 
ATOM      3  C   UNL     1       5.219   4.438  16.587  0.00  0.00    +0.000 A 
ATOM      4  C   UNL     1       6.044   3.619  15.807  0.00  0.00    +0.000 A 
ATOM      5  C   UNL     1       6.675   4.152  14.692  0.00  0.00    +0.000 A 
ATOM      6  C   UNL     1       6.497   5.498  14.370  0.00  0.00    +0.000 A 
ATOM      7  C   UNL     1       5.664   6.303  15.152  0.00  0.00    +0.000 A 
ATOM      8  C   UNL     1       4.995   5.768  16.252  0.00  0.00    +0.000 A 
ATOM      9  N   UNL     1       4.107   6.563  16.964  0.00  0.00    +0.000 NA
ATOM     10  C   UNL     1       3.439   6.034  17.941  0.00  0.00    +0.000 A 
ATOM     11  N   UNL     1       3.568   4.710  18.355  0.00  0.00    +0.000 N 
ENDROOT
BRANCH  10  12
ATOM     12  C   UNL     1       2.535   6.974  18.698  0.00  0.00    +0.000 A 
ATOM     13  C   UNL     1       2.090   8.120  18.037  0.00  0.00    +0.000 A 
ATOM     14  C   UNL     1       1.379   9.087  18.733  0.00  0.00    +0.000 A 
ATOM     15  C   UNL     1       1.085   8.925  20.091  0.00  0.00    +0.000 A 
ATOM     16  C   UNL     1       1.471   7.764  20.747  0.00  0.00    +0.000 A 
ATOM     17  C   UNL     1       2.226   6.814  20.056  0.00  0.00    +0.000 A 
BRANCH  15  18
ATOM     18  O   UNL     1       0.449   9.876  20.852  0.00  0.00    +0.000 OA
BRANCH  18  19
ATOM     19  C   UNL     1      -0.403   9.318  21.861  0.00  0.00    +0.000 C 
BRANCH  19  20
ATOM     20  C   UNL     1      -0.491  10.259  23.046  0.00  0.00    +0.000 C 
BRANCH  20  21
ATOM     21  C   UNL     1      -0.702  11.719  22.601  0.00  0.00    +0.000 C 
BRANCH  21  22
ATOM     22  N   UNL     1      -1.538  12.514  23.521  0.00  0.00    +0.000 NA
ATOM     23  C   UNL     1      -1.278  13.955  23.372  0.00  0.00    +0.000 C 
ATOM     24  C   UNL     1      -2.065  14.773  24.393  0.00  0.00    +0.000 C 
ATOM     25  C   UNL     1      -3.558  14.497  24.292  0.00  0.00    +0.000 C 
ATOM     26  C   UNL     1      -3.826  12.998  24.350  0.00  0.00    +0.000 C 
ATOM     27  C   UNL     1      -2.974  12.234  23.326  0.00  0.00    +0.000 C 
ENDBRANCH  21  22
ENDBRANCH  20  21
ENDBRANCH  19  20
ENDBRANCH  18  19
ENDBRANCH  15  18
ENDBRANCH  10  12
BRANCH  11  28
ATOM     28  C   UNL     1       2.715   4.090  19.315  0.00  0.00    +0.000 A 
ATOM     29  C   UNL     1       1.470   3.583  18.907  0.00  0.00    +0.000 A 
ATOM     30  C   UNL     1       0.611   2.990  19.831  0.00  0.00    +0.000 A 
ATOM     31  C   UNL     1       0.981   2.915  21.172  0.00  0.00    +0.000 A 
ATOM     32  C   UNL     1       2.229   3.388  21.581  0.00  0.00    +0.000 A 
ATOM     33  C   UNL     1       3.102   3.962  20.654  0.00  0.00    +0.000 A 
ENDBRANCH  11  28
TORSDOF 7
ENDMDL
MODEL 3
REMARK VINA RESULT:      -8.8      1.980      2.630
REMARK  Name = 
REMARK  7 active torsions:
REMARK  status: ('A' for Active; 'I' for Inactive)
REMARK    1  A    between atoms: C_10  and  C_11
REMARK    2  A    between atoms: C_14  and  O_15
REMARK    3  A    between atoms: O_15  and  C_16
REMARK    4  A    between atoms: C_16  and  C_17
REMARK    5  A    between atoms: C_17  and  C_18
REMARK    6  A    between atoms: C_18  and  N_19
REMARK    7  A    between atoms: N_27  and  C_28
REMARK                            x       y       z     vdW  Elec       q    Type
REMARK                         _______ _______ _______ _____ _____    ______ ____
ROOT
ATOM      1  O   UNL     1       4.639   2.766  18.143  0.00  0.00    +0.000 OA
ATOM      2  C   UNL     1       4.399   3.932  17.829  0.00  0.00    +0.000 A 
ATOM      3  C   UNL     1       5.111   4.492  16.672  0.00  0.00    +0.000 A 
ATOM      4  C   UNL     1       5.919   3.674  15.875  0.00  0.00    +0.000 A 
ATOM      5  C   UNL     1       6.562   4.217  14.772  0.00  0.00    +0.000 A 
ATOM      6  C   UNL     1       6.412   5.574  14.478  0.00  0.00    +0.000 A 
ATOM      7  C   UNL     1       5.595   6.379  15.277  0.00  0.00    +0.000 A 
ATOM      8  C   UNL     1       4.914   5.834  16.365  0.00  0.00    +0.000 A 
ATOM      9  N   UNL     1       4.042   6.631  17.094  0.00  0.00    +0.000 NA
ATOM     10  C   UNL     1       3.363   6.095  18.059  0.00  0.00    +0.000 A 
ATOM     11  N   UNL     1       3.465   4.760  18.445  0.00  0.00    +0.000 N 
ENDROOT
BRANCH  10  12
ATOM     12  C   UNL     1       2.478   7.037  18.837  0.00  0.00    +0.000 A 
ATOM     13  C   UNL     1       2.061   8.208  18.203  0.00  0.00    +0.000 A 
ATOM     14  C   UNL     1       1.370   9.173  18.919  0.00  0.00    +0.000 A 
ATOM     15  C   UNL     1       1.067   8.986  20.272  0.00  0.00    +0.000 A 
ATOM     16  C   UNL     1       1.425   7.801  20.901  0.00  0.00    +0.000 A 
ATOM     17  C   UNL     1       2.161   6.851  20.189  0.00  0.00    +0.000 A 
BRANCH  15  18
ATOM     18  O   UNL     1       0.450   9.932  21.054  0.00  0.00    +0.000 OA
BRANCH  18  19
ATOM     19  C   UNL     1       0.482   9.620  22.453  0.00  0.00    +0.000 C 
BRANCH  19  20
ATOM     20  C   UNL     1      -0.673  10.297  23.163  0.00  0.00    +0.000 C 
BRANCH  20  21
ATOM     21  C   UNL     1      -0.879  11.742  22.670  0.00  0.00    +0.000 C 
BRANCH  21  22
ATOM     22  N   UNL     1      -2.233  12.013  22.149  0.00  0.00    +0.000 NA
ATOM     23  C   UNL     1      -3.047  12.752  23.128  0.00  0.00    +0.000 C 
ATOM     24  C   UNL     1      -4.478  12.944  22.633  0.00  0.00    +0.000 C 
ATOM     25  C   UNL     1      -4.509  13.652  21.287  0.00  0.00    +0.000 C 
ATOM     26  C   UNL     1      -3.592  12.946  20.295  0.00  0.00    +0.000 C 
ATOM     27  C   UNL     1      -2.183  12.750  20.871  0.00  0.00    +0.000 C 
ENDBRANCH  21  22
ENDBRANCH  20  21
ENDBRANCH  19  20
ENDBRANCH  18  19
ENDBRANCH  15  18
ENDBRANCH  10  12
BRANCH  11  28
ATOM     28  C   UNL     1       2.599   4.137  19.391  0.00  0.00    +0.000 A 
ATOM     29  C   UNL     1       3.026   3.977  20.719  0.00  0.00    +0.000 A 
ATOM     30  C   UNL     1       2.203   3.354  21.656  0.00  0.00    +0.000 A 
ATOM     31  C   UNL     1       0.956   2.869  21.269  0.00  0.00    +0.000 A 
ATOM     32  C   UNL     1       0.510   3.050  19.959  0.00  0.00    +0.000 A 
ATOM     33  C   UNL     1       1.322   3.695  19.023  0.00  0.00    +0.000 A 
ENDBRANCH  11  28
TORSDOF 7
ENDMDL
MODEL 4
REMARK VINA RESULT:      -8.8      0.623      1.377
REMARK  Name = 
REMARK  7 active torsions:
REMARK  status: ('A' for Active; 'I' for Inactive)
REMARK    1  A    between atoms: C_10  and  C_11
REMARK    2  A    between atoms: C_14  and  O_15
REMARK    3  A    between atoms: O_15  and  C_16
REMARK    4  A    between atoms: C_16  and  C_17
REMARK    5  A    between atoms: C_17  and  C_18
REMARK    6  A    between atoms: C_18  and  N_19
REMARK    7  A    between atoms: N_27  and  C_28
REMARK                            x       y       z     vdW  Elec       q    Type
REMARK                         _______ _______ _______ _____ _____    ______ ____
ROOT
ATOM      1  O   UNL     1       4.597   2.644  17.913  0.00  0.00    +0.000 OA
ATOM      2  C   UNL     1       4.427   3.814  17.570  0.00  0.00    +0.000 A 
ATOM      3  C   UNL     1       5.171   4.303  16.402  0.00  0.00    +0.000 A 
ATOM      4  C   UNL     1       5.929   3.418  15.625  0.00  0.00    +0.000 A 
ATOM      5  C   UNL     1       6.604   3.896  14.511  0.00  0.00    +0.000 A 
ATOM      6  C   UNL     1       6.535   5.251  14.184  0.00  0.00    +0.000 A 
ATOM      7  C   UNL     1       5.768   6.123  14.963  0.00  0.00    +0.000 A 
ATOM      8  C   UNL     1       5.055   5.646  16.062  0.00  0.00    +0.000 A 
ATOM      9  N   UNL     1       4.232   6.511  16.770  0.00  0.00    +0.000 NA
ATOM     10  C   UNL     1       3.522   6.040  17.747  0.00  0.00    +0.000 A 
ATOM     11  N   UNL     1       3.544   4.711  18.165  0.00  0.00    +0.000 N 
ENDROOT
BRANCH  10  12
ATOM     12  C   UNL     1       2.694   7.051  18.500  0.00  0.00    +0.000 A 
ATOM     13  C   UNL     1       2.266   8.184  17.807  0.00  0.00    +0.000 A 
ATOM     14  C   UNL     1       1.629   9.211  18.487  0.00  0.00    +0.000 A 
ATOM     15  C   UNL     1       1.393   9.124  19.864  0.00  0.00    +0.000 A 
ATOM     16  C   UNL     1       1.763   7.978  20.555  0.00  0.00    +0.000 A 
ATOM     17  C   UNL     1       2.445   6.966  19.876  0.00  0.00    +0.000 A 
BRANCH  15  18
ATOM     18  O   UNL     1       0.834  10.135  20.608  0.00  0.00    +0.000 OA
BRANCH  18  19
ATOM     19  C   UNL     1      -0.519   9.869  20.998  0.00  0.00    +0.000 C 
BRANCH  19  20
ATOM     20  C   UNL     1      -1.269  11.172  21.194  0.00  0.00    +0.000 C 
BRANCH  20  21
ATOM     21  C   UNL     1      -1.512  11.897  19.857  0.00  0.00    +0.000 C 
BRANCH  21  22
ATOM     22  N   UNL     1      -2.264  11.101  18.867  0.00  0.00    +0.000 NA
ATOM     23  C   UNL     1      -3.563  11.720  18.557  0.00  0.00    +0.000 C 
ATOM     24  C   UNL     1      -4.384  10.846  17.612  0.00  0.00    +0.000 C 
ATOM     25  C   UNL     1      -3.625  10.551  16.328  0.00  0.00    +0.000 C 
ATOM     26  C   UNL     1      -2.240  10.000  16.644  0.00  0.00    +0.000 C 
ATOM     27  C   UNL     1      -1.486  10.905  17.629  0.00  0.00    +0.000 C 
ENDBRANCH  21  22
ENDBRANCH  20  21
ENDBRANCH  19  20
ENDBRANCH  18  19
ENDBRANCH  15  18
ENDBRANCH  10  12
BRANCH  11  28
ATOM     28  C   UNL     1       2.641   4.163  19.124  0.00  0.00    +0.000 A 
ATOM     29  C   UNL     1       1.386   3.695  18.702  0.00  0.00    +0.000 A 
ATOM     30  C   UNL     1       0.480   3.173  19.625  0.00  0.00    +0.000 A 
ATOM     31  C   UNL     1       0.814   3.133  20.977  0.00  0.00    +0.000 A 
ATOM     32  C   UNL     1       2.071   3.567  21.401  0.00  0.00    +0.000 A 
ATOM     33  C   UNL     1       2.990   4.069  20.476  0.00  0.00    +0.000 A 
ENDBRANCH  11  28
TORSDOF 7
ENDMDL
MODEL 5
REMARK VINA RESULT:      -8.7      2.280      3.339
REMARK  Name = 
REMARK  7 active torsions:
REMARK  status: ('A' for Active; 'I' for Inactive)
REMARK    1  A    between atoms: C_10  and  C_11
REMARK    2  A    between atoms: C_14  and  O_15
REMARK    3  A    between atoms: O_15  and  C_16
REMARK    4  A    between atoms: C_16  and  C_17
REMARK    5  A    between atoms: C_17  and  C_18
REMARK    6  A    between atoms: C_18  and  N_19
REMARK    7  A    between atoms: N_27  and  C_28
REMARK                            x       y       z     vdW  Elec       q    Type
REMARK                         _______ _______ _______ _____ _____    ______ ____
ROOT
ATOM      1  O   UNL     1       4.607   2.660  18.051  0.00  0.00    +0.000 OA
ATOM      2  C   UNL     1       4.391   3.830  17.732  0.00  0.00    +0.000 A 
ATOM      3  C   UNL     1       5.099   4.365  16.561  0.00  0.00    +0.000 A 
ATOM      4  C   UNL     1       5.874   3.521  15.757  0.00  0.00    +0.000 A 
ATOM      5  C   UNL     1       6.514   4.041  14.640  0.00  0.00    +0.000 A 
ATOM      6  C   UNL     1       6.393   5.399  14.340  0.00  0.00    +0.000 A 
ATOM      7  C   UNL     1       5.610   6.230  15.147  0.00  0.00    +0.000 A 
ATOM      8  C   UNL     1       4.932   5.709  16.248  0.00  0.00    +0.000 A 
ATOM      9  N   UNL     1       4.092   6.533  16.986  0.00  0.00    +0.000 NA
ATOM     10  C   UNL     1       3.415   6.021  17.964  0.00  0.00    +0.000 A 
ATOM     11  N   UNL     1       3.489   4.685  18.357  0.00  0.00    +0.000 N 
ENDROOT
BRANCH  10  12
ATOM     12  C   UNL     1       2.566   6.989  18.749  0.00  0.00    +0.000 A 
ATOM     13  C   UNL     1       2.109   8.133  18.091  0.00  0.00    +0.000 A 
ATOM     14  C   UNL     1       1.451   9.123  18.804  0.00  0.00    +0.000 A 
ATOM     15  C   UNL     1       1.221   8.990  20.178  0.00  0.00    +0.000 A 
ATOM     16  C   UNL     1       1.619   7.832  20.833  0.00  0.00    +0.000 A 
ATOM     17  C   UNL     1       2.322   6.857  20.123  0.00  0.00    +0.000 A 
BRANCH  15  18
ATOM     18  O   UNL     1       0.640   9.964  20.952  0.00  0.00    +0.000 OA
BRANCH  18  19
ATOM     19  C   UNL     1       0.142  11.072  20.191  0.00  0.00    +0.000 C 
BRANCH  19  20
ATOM     20  C   UNL     1      -0.497  12.091  21.113  0.00  0.00    +0.000 C 
BRANCH  20  21
ATOM     21  C   UNL     1      -1.211  11.418  22.300  0.00  0.00    +0.000 C 
BRANCH  21  22
ATOM     22  N   UNL     1      -1.744  12.366  23.299  0.00  0.00    +0.000 NA
ATOM     23  C   UNL     1      -1.165  13.708  23.126  0.00  0.00    +0.000 C 
ATOM     24  C   UNL     1      -1.636  14.663  24.220  0.00  0.00    +0.000 C 
ATOM     25  C   UNL     1      -3.154  14.749  24.266  0.00  0.00    +0.000 C 
ATOM     26  C   UNL     1      -3.763  13.355  24.348  0.00  0.00    +0.000 C 
ATOM     27  C   UNL     1      -3.217  12.437  23.245  0.00  0.00    +0.000 C 
ENDBRANCH  21  22
ENDBRANCH  20  21
ENDBRANCH  19  20
ENDBRANCH  18  19
ENDBRANCH  15  18
ENDBRANCH  10  12
BRANCH  11  28
ATOM     28  C   UNL     1       2.621   4.091  19.320  0.00  0.00    +0.000 A 
ATOM     29  C   UNL     1       3.059   3.941  20.646  0.00  0.00    +0.000 A 
ATOM     30  C   UNL     1       2.236   3.345  21.600  0.00  0.00    +0.000 A 
ATOM     31  C   UNL     1       0.976   2.877  21.233  0.00  0.00    +0.000 A 
ATOM     32  C   UNL     1       0.519   3.050  19.925  0.00  0.00    +0.000 A 
ATOM     33  C   UNL     1       1.333   3.668  18.972  0.00  0.00    +0.000 A 
ENDBRANCH  11  28
TORSDOF 7
ENDMDL
MODEL 6
REMARK VINA RESULT:      -8.6      2.218      3.271
REMARK  Name = 
REMARK  7 active torsions:
REMARK  status: ('A' for Active; 'I' for Inactive)
REMARK    1  A    between atoms: C_10  and  C_11
REMARK    2  A    between atoms: C_14  and  O_15
REMARK    3  A    between atoms: O_15  and  C_16
REMARK    4  A    between atoms: C_16  and  C_17
REMARK    5  A    between atoms: C_17  and  C_18
REMARK    6  A    between atoms: C_18  and  N_19
REMARK    7  A    between atoms: N_27  and  C_28
REMARK                            x       y       z     vdW  Elec       q    Type
REMARK                         _______ _______ _______ _____ _____    ______ ____
ROOT
ATOM      1  O   UNL     1       4.619   2.730  18.105  0.00  0.00    +0.000 OA
ATOM      2  C   UNL     1       4.410   3.893  17.759  0.00  0.00    +0.000 A 
ATOM      3  C   UNL     1       5.148   4.408  16.598  0.00  0.00    +0.000 A 
ATOM      4  C   UNL     1       5.945   3.550  15.830  0.00  0.00    +0.000 A 
ATOM      5  C   UNL     1       6.613   4.051  14.721  0.00  0.00    +0.000 A 
ATOM      6  C   UNL     1       6.498   5.403  14.393  0.00  0.00    +0.000 A 
ATOM      7  C   UNL     1       5.692   6.247  15.163  0.00  0.00    +0.000 A 
ATOM      8  C   UNL     1       4.987   5.745  16.256  0.00  0.00    +0.000 A 
ATOM      9  N   UNL     1       4.126   6.581  16.955  0.00  0.00    +0.000 NA
ATOM     10  C   UNL     1       3.424   6.085  17.925  0.00  0.00    +0.000 A 
ATOM     11  N   UNL     1       3.489   4.758  18.344  0.00  0.00    +0.000 N 
ENDROOT
BRANCH  10  12
ATOM     12  C   UNL     1       2.552   7.066  18.668  0.00  0.00    +0.000 A 
ATOM     13  C   UNL     1       2.075   8.173  17.965  0.00  0.00    +0.000 A 
ATOM     14  C   UNL     1       1.393   9.177  18.636  0.00  0.00    +0.000 A 
ATOM     15  C   UNL     1       1.162   9.093  20.014  0.00  0.00    +0.000 A 
ATOM     16  C   UNL     1       1.582   7.971  20.716  0.00  0.00    +0.000 A 
ATOM     17  C   UNL     1       2.307   6.984  20.046  0.00  0.00    +0.000 A 
BRANCH  15  18
ATOM     18  O   UNL     1       0.559  10.085  20.748  0.00  0.00    +0.000 OA
BRANCH  18  19
ATOM     19  C   UNL     1       0.156  11.211  19.957  0.00  0.00    +0.000 C 
BRANCH  19  20
ATOM     20  C   UNL     1       0.642  12.496  20.596  0.00  0.00    +0.000 C 
BRANCH  20  21
ATOM     21  C   UNL     1       0.369  13.718  19.699  0.00  0.00    +0.000 C 
BRANCH  21  22
ATOM     22  N   UNL     1       1.580  14.477  19.330  0.00  0.00    +0.000 NA
ATOM     23  C   UNL     1       2.434  13.711  18.408  0.00  0.00    +0.000 C 
ATOM     24  C   UNL     1       3.734  14.451  18.107  0.00  0.00    +0.000 C 
ATOM     25  C   UNL     1       3.466  15.837  17.541  0.00  0.00    +0.000 C 
ATOM     26  C   UNL     1       2.505  16.602  18.444  0.00  0.00    +0.000 C 
ATOM     27  C   UNL     1       1.239  15.785  18.738  0.00  0.00    +0.000 C 
ENDBRANCH  21  22
ENDBRANCH  20  21
ENDBRANCH  19  20
ENDBRANCH  18  19
ENDBRANCH  15  18
ENDBRANCH  10  12
BRANCH  11  28
ATOM     28  C   UNL     1       2.598   4.179  19.295  0.00  0.00    +0.000 A 
ATOM     29  C   UNL     1       2.992   4.077  20.639  0.00  0.00    +0.000 A 
ATOM     30  C   UNL     1       2.145   3.497  21.582  0.00  0.00    +0.000 A 
ATOM     31  C   UNL     1       0.906   2.998  21.186  0.00  0.00    +0.000 A 
ATOM     32  C   UNL     1       0.492   3.123  19.859  0.00  0.00    +0.000 A 
ATOM     33  C   UNL     1       1.329   3.725  18.916  0.00  0.00    +0.000 A 
ENDBRANCH  11  28
TORSDOF 7
ENDMDL
MODEL 7
REMARK VINA RESULT:      -8.6      0.624      1.097
REMARK  Name = 
REMARK  7 active torsions:
REMARK  status: ('A' for Active; 'I' for Inactive)
REMARK    1  A    between atoms: C_10  and  C_11
REMARK    2  A    between atoms: C_14  and  O_15
REMARK    3  A    between atoms: O_15  and  C_16
REMARK    4  A    between atoms: C_16  and  C_17
REMARK    5  A    between atoms: C_17  and  C_18
REMARK    6  A    between atoms: C_18  and  N_19
REMARK    7  A    between atoms: N_27  and  C_28
REMARK                            x       y       z     vdW  Elec       q    Type
REMARK                         _______ _______ _______ _____ _____    ______ ____
ROOT
ATOM      1  O   UNL     1       4.538   2.637  17.949  0.00  0.00    +0.000 OA
ATOM      2  C   UNL     1       4.394   3.822  17.645  0.00  0.00    +0.000 A 
ATOM      3  C   UNL     1       5.129   4.326  16.477  0.00  0.00    +0.000 A 
ATOM      4  C   UNL     1       5.847   3.445  15.659  0.00  0.00    +0.000 A 
ATOM      5  C   UNL     1       6.513   3.938  14.546  0.00  0.00    +0.000 A 
ATOM      6  C   UNL     1       6.476   5.304  14.262  0.00  0.00    +0.000 A 
ATOM      7  C   UNL     1       5.749   6.172  15.082  0.00  0.00    +0.000 A 
ATOM      8  C   UNL     1       5.045   5.681  16.181  0.00  0.00    +0.000 A 
ATOM      9  N   UNL     1       4.261   6.547  16.932  0.00  0.00    +0.000 NA
ATOM     10  C   UNL     1       3.557   6.065  17.908  0.00  0.00    +0.000 A 
ATOM     11  N   UNL     1       3.549   4.724  18.285  0.00  0.00    +0.000 N 
ENDROOT
BRANCH  10  12
ATOM     12  C   UNL     1       2.772   7.075  18.708  0.00  0.00    +0.000 A 
ATOM     13  C   UNL     1       2.520   6.786  20.050  0.00  0.00    +0.000 A 
ATOM     14  C   UNL     1       1.682   7.607  20.788  0.00  0.00    +0.000 A 
ATOM     15  C   UNL     1       1.092   8.738  20.212  0.00  0.00    +0.000 A 
ATOM     16  C   UNL     1       1.380   9.070  18.895  0.00  0.00    +0.000 A 
ATOM     17  C   UNL     1       2.187   8.216  18.141  0.00  0.00    +0.000 A 
BRANCH  15  18
ATOM     18  O   UNL     1       0.198   9.550  20.867  0.00  0.00    +0.000 OA
BRANCH  18  19
ATOM     19  C   UNL     1       0.533  10.941  20.789  0.00  0.00    +0.000 C 
BRANCH  19  20
ATOM     20  C   UNL     1      -0.719  11.765  20.563  0.00  0.00    +0.000 C 
BRANCH  20  21
ATOM     21  C   UNL     1      -0.737  12.403  19.161  0.00  0.00    +0.000 C 
BRANCH  21  22
ATOM     22  N   UNL     1      -1.807  11.894  18.281  0.00  0.00    +0.000 NA
ATOM     23  C   UNL     1      -1.522  10.523  17.827  0.00  0.00    +0.000 C 
ATOM     24  C   UNL     1      -2.576  10.034  16.836  0.00  0.00    +0.000 C 
ATOM     25  C   UNL     1      -3.973  10.108  17.430  0.00  0.00    +0.000 C 
ATOM     26  C   UNL     1      -4.239  11.501  17.990  0.00  0.00    +0.000 C 
ATOM     27  C   UNL     1      -3.124  11.945  18.946  0.00  0.00    +0.000 C 
ENDBRANCH  21  22
ENDBRANCH  20  21
ENDBRANCH  19  20
ENDBRANCH  18  19
ENDBRANCH  15  18
ENDBRANCH  10  12
BRANCH  11  28
ATOM     28  C   UNL     1       2.650   4.172  19.245  0.00  0.00    +0.000 A 
ATOM     29  C   UNL     1       3.090   3.961  20.562  0.00  0.00    +0.000 A 
ATOM     30  C   UNL     1       2.235   3.405  21.512  0.00  0.00    +0.000 A 
ATOM     31  C   UNL     1       0.940   3.040  21.150  0.00  0.00    +0.000 A 
ATOM     32  C   UNL     1       0.484   3.275  19.852  0.00  0.00    +0.000 A 
ATOM     33  C   UNL     1       1.330   3.853  18.903  0.00  0.00    +0.000 A 
ENDBRANCH  11  28
TORSDOF 7
ENDMDL
MODEL 8
REMARK VINA RESULT:      -8.6      2.166      3.378
REMARK  Name = 
REMARK  7 active torsions:
REMARK  status: ('A' for Active; 'I' for Inactive)
REMARK    1  A    between atoms: C_10  and  C_11
REMARK    2  A    between atoms: C_14  and  O_15
REMARK    3  A    between atoms: O_15  and  C_16
REMARK    4  A    between atoms: C_16  and  C_17
REMARK    5  A    between atoms: C_17  and  C_18
REMARK    6  A    between atoms: C_18  and  N_19
REMARK    7  A    between atoms: N_27  and  C_28
REMARK                            x       y       z     vdW  Elec       q    Type
REMARK                         _______ _______ _______ _____ _____    ______ ____
ROOT
ATOM      1  O   UNL     1       4.661   2.658  18.010  0.00  0.00    +0.000 OA
ATOM      2  C   UNL     1       4.446   3.824  17.675  0.00  0.00    +0.000 A 
ATOM      3  C   UNL     1       5.160   4.344  16.501  0.00  0.00    +0.000 A 
ATOM      4  C   UNL     1       5.940   3.490  15.712  0.00  0.00    +0.000 A 
ATOM      5  C   UNL     1       6.585   3.996  14.593  0.00  0.00    +0.000 A 
ATOM      6  C   UNL     1       6.465   5.350  14.274  0.00  0.00    +0.000 A 
ATOM      7  C   UNL     1       5.676   6.190  15.065  0.00  0.00    +0.000 A 
ATOM      8  C   UNL     1       4.993   5.683  16.170  0.00  0.00    +0.000 A 
ATOM      9  N   UNL     1       4.149   6.516  16.891  0.00  0.00    +0.000 NA
ATOM     10  C   UNL     1       3.466   6.016  17.873  0.00  0.00    +0.000 A 
ATOM     11  N   UNL     1       3.539   4.686  18.284  0.00  0.00    +0.000 N 
ENDROOT
BRANCH  10  12
ATOM     12  C   UNL     1       2.612   6.994  18.640  0.00  0.00    +0.000 A 
ATOM     13  C   UNL     1       2.177   8.139  17.972  0.00  0.00    +0.000 A 
ATOM     14  C   UNL     1       1.515   9.138  18.670  0.00  0.00    +0.000 A 
ATOM     15  C   UNL     1       1.259   9.010  20.040  0.00  0.00    +0.000 A 
ATOM     16  C   UNL     1       1.636   7.850  20.706  0.00  0.00    +0.000 A 
ATOM     17  C   UNL     1       2.343   6.868  20.010  0.00  0.00    +0.000 A 
BRANCH  15  18
ATOM     18  O   UNL     1       0.674   9.991  20.802  0.00  0.00    +0.000 OA
BRANCH  18  19
ATOM     19  C   UNL     1      -0.570  10.459  20.265  0.00  0.00    +0.000 C 
BRANCH  19  20
ATOM     20  C   UNL     1      -0.689  11.958  20.459  0.00  0.00    +0.000 C 
BRANCH  20  21
ATOM     21  C   UNL     1      -0.515  12.358  21.936  0.00  0.00    +0.000 C 
BRANCH  21  22
ATOM     22  N   UNL     1      -1.700  13.008  22.528  0.00  0.00    +0.000 NA
ATOM     23  C   UNL     1      -2.582  12.026  23.179  0.00  0.00    +0.000 C 
ATOM     24  C   UNL     1      -3.857  12.683  23.702  0.00  0.00    +0.000 C 
ATOM     25  C   UNL     1      -3.543  13.821  24.661  0.00  0.00    +0.000 C 
ATOM     26  C   UNL     1      -2.554  14.791  24.027  0.00  0.00    +0.000 C 
ATOM     27  C   UNL     1      -1.316  14.061  23.488  0.00  0.00    +0.000 C 
ENDBRANCH  21  22
ENDBRANCH  20  21
ENDBRANCH  19  20
ENDBRANCH  18  19
ENDBRANCH  15  18
ENDBRANCH  10  12
BRANCH  11  28
ATOM     28  C   UNL     1       2.667   4.103  19.250  0.00  0.00    +0.000 A 
ATOM     29  C   UNL     1       1.399   3.650  18.852  0.00  0.00    +0.000 A 
ATOM     30  C   UNL     1       0.522   3.094  19.783  0.00  0.00    +0.000 A 
ATOM     31  C   UNL     1       0.898   3.004  21.121  0.00  0.00    +0.000 A 
ATOM     32  C   UNL     1       2.169   3.422  21.521  0.00  0.00    +0.000 A 
ATOM     33  C   UNL     1       3.059   3.958  20.587  0.00  0.00    +0.000 A 
ENDBRANCH  11  28
TORSDOF 7
ENDMDL
MODEL 9
REMARK VINA RESULT:      -8.5      1.768      2.632
REMARK  Name = 
REMARK  7 active torsions:
REMARK  status: ('A' for Active; 'I' for Inactive)
REMARK    1  A    between atoms: C_10  and  C_11
REMARK    2  A    between atoms: C_14  and  O_15
REMARK    3  A    between atoms: O_15  and  C_16
REMARK    4  A    between atoms: C_16  and  C_17
REMARK    5  A    between atoms: C_17  and  C_18
REMARK    6  A    between atoms: C_18  and  N_19
REMARK    7  A    between atoms: N_27  and  C_28
REMARK                            x       y       z     vdW  Elec       q    Type
REMARK                         _______ _______ _______ _____ _____    ______ ____
ROOT
ATOM      1  O   UNL     1       4.673   2.767  18.046  0.00  0.00    +0.000 OA
ATOM      2  C   UNL     1       4.452   3.929  17.704  0.00  0.00    +0.000 A 
ATOM      3  C   UNL     1       5.177   4.452  16.538  0.00  0.00    +0.000 A 
ATOM      4  C   UNL     1       5.976   3.602  15.763  0.00  0.00    +0.000 A 
ATOM      5  C   UNL     1       6.632   4.111  14.651  0.00  0.00    +0.000 A 
ATOM      6  C   UNL     1       6.505   5.462  14.326  0.00  0.00    +0.000 A 
ATOM      7  C   UNL     1       5.697   6.298  15.103  0.00  0.00    +0.000 A 
ATOM      8  C   UNL     1       5.003   5.789  16.200  0.00  0.00    +0.000 A 
ATOM      9  N   UNL     1       4.141   6.616  16.907  0.00  0.00    +0.000 NA
ATOM     10  C   UNL     1       3.450   6.113  17.880  0.00  0.00    +0.000 A 
ATOM     11  N   UNL     1       3.529   4.785  18.297  0.00  0.00    +0.000 N 
ENDROOT
BRANCH  10  12
ATOM     12  C   UNL     1       2.576   7.085  18.632  0.00  0.00    +0.000 A 
ATOM     13  C   UNL     1       2.116   8.210  17.945  0.00  0.00    +0.000 A 
ATOM     14  C   UNL     1       1.434   9.206  18.627  0.00  0.00    +0.000 A 
ATOM     15  C   UNL     1       1.183   9.096  20.000  0.00  0.00    +0.000 A 
ATOM     16  C   UNL     1       1.584   7.956  20.684  0.00  0.00    +0.000 A 
ATOM     17  C   UNL     1       2.311   6.977  20.004  0.00  0.00    +0.000 A 
BRANCH  15  18
ATOM     18  O   UNL     1       0.578  10.077  20.746  0.00  0.00    +0.000 OA
BRANCH  18  19
ATOM     19  C   UNL     1       1.131  11.381  20.523  0.00  0.00    +0.000 C 
BRANCH  19  20
ATOM     20  C   UNL     1       0.029  12.422  20.530  0.00  0.00    +0.000 C 
BRANCH  20  21
ATOM     21  C   UNL     1      -1.306  11.842  20.025  0.00  0.00    +0.000 C 
BRANCH  21  22
ATOM     22  N   UNL     1      -2.406  11.917  21.007  0.00  0.00    +0.000 NA
ATOM     23  C   UNL     1      -1.904  12.253  22.349  0.00  0.00    +0.000 C 
ATOM     24  C   UNL     1      -3.024  12.230  23.385  0.00  0.00    +0.000 C 
ATOM     25  C   UNL     1      -4.156  13.170  23.000  0.00  0.00    +0.000 C 
ATOM     26  C   UNL     1      -4.616  12.890  21.574  0.00  0.00    +0.000 C 
ATOM     27  C   UNL     1      -3.436  12.888  20.592  0.00  0.00    +0.000 C 
ENDBRANCH  21  22
ENDBRANCH  20  21
ENDBRANCH  19  20
ENDBRANCH  18  19
ENDBRANCH  15  18
ENDBRANCH  10  12
BRANCH  11  28
ATOM     28  C   UNL     1       2.649   4.197  19.253  0.00  0.00    +0.000 A 
ATOM     29  C   UNL     1       1.403   3.703  18.833  0.00  0.00    +0.000 A 
ATOM     30  C   UNL     1       0.519   3.142  19.753  0.00  0.00    +0.000 A 
ATOM     31  C   UNL     1       0.864   3.087  21.101  0.00  0.00    +0.000 A 
ATOM     32  C   UNL     1       2.113   3.546  21.523  0.00  0.00    +0.000 A 
ATOM     33  C   UNL     1       3.011   4.088  20.601  0.00  0.00    +0.000 A 
ENDBRANCH  11  28
TORSDOF 7
ENDMDL
