MODEL 1
REMARK VINA RESULT:      -8.3      0.000      0.000
REMARK  Name = 
REMARK  14 active torsions:
REMARK  status: ('A' for Active; 'I' for Inactive)
REMARK    1  A    between atoms: C_1  and  C_2
REMARK    2  A    between atoms: C_2  and  C_3
REMARK    3  A    between atoms: C_3  and  C_4
REMARK    4  A    between atoms: C_4  and  C_5
REMARK    5  A    between atoms: C_5  and  C_6
REMARK    6  A    between atoms: C_6  and  C_7
REMARK    7  A    between atoms: C_9  and  C_10
REMARK    8  A    between atoms: C_13  and  C_14
REMARK    9  A    between atoms: C_17  and  C_18
REMARK   10  A    between atoms: C_18  and  C_19
REMARK   11  A    between atoms: C_22  and  O_23
REMARK   12  A    between atoms: C_28  and  O_29
REMARK   13  A    between atoms: O_29  and  C_30
REMARK   14  A    between atoms: C_32  and  C_33
REMARK                            x       y       z     vdW  Elec       q    Type
REMARK                         _______ _______ _______ _____ _____    ______ ____
ROOT
ATOM      1  C   UNL     1       4.201   3.957  19.079  0.00  0.00    +0.000 C 
ATOM      2  C   UNL     1       3.288   4.689  19.739  0.00  0.00    +0.000 C 
ATOM      3  N   UNL     1       3.041   6.032  19.541  0.00  0.00    +0.000 NA
ATOM      4  C   UNL     1       2.082   6.336  20.367  0.00  0.00    +0.000 C 
ATOM      5  C   UNL     1       1.601   5.213  21.196  0.00  0.00    +0.000 C 
ATOM      6  C   UNL     1       2.392   4.215  20.765  0.00  0.00    +0.000 C 
ENDROOT
BRANCH   1   9
ATOM      7  C   UNL     1       6.154   5.104  16.190  0.00  0.00    +0.000 A 
ATOM      8  C   UNL     1       5.258   4.143  16.746  0.00  0.00    +0.000 A 
ATOM      9  C   UNL     1       5.023   4.490  18.056  0.00  0.00    +0.000 A 
ATOM     10  N   UNL     1       5.777   5.607  18.309  0.00  0.00    +0.000 N 
ATOM     11  C   UNL     1       6.467   6.000  17.200  0.00  0.00    +0.000 A 
ATOM     12  C   UNL     1       7.346   7.196  17.243  0.00  0.00    +0.000 C 
ATOM     13  H   UNL     1       5.784   6.068  19.213  0.00  0.00    +0.000 HD
BRANCH   7  14
ATOM     14  C   UNL     1       6.644   5.124  14.783  0.00  0.00    +0.000 C 
BRANCH  14  15
ATOM     15  C   UNL     1       5.809   4.227  13.879  0.00  0.00    +0.000 C 
BRANCH  15  16
ATOM     16  C   UNL     1       6.622   3.721  12.696  0.00  0.00    +0.000 C 
BRANCH  16  17
ATOM     17  C   UNL     1       5.724   2.938  11.746  0.00  0.00    +0.000 C 
BRANCH  17  19
ATOM     18  C   UNL     1       3.585   3.405  10.529  0.00  0.00    +0.000 C 
ATOM     19  C   UNL     1       4.269   3.367  11.886  0.00  0.00    +0.000 C 
ENDBRANCH  17  19
ENDBRANCH  16  17
ENDBRANCH  15  16
ENDBRANCH  14  15
ENDBRANCH   7  14
ENDBRANCH   1   9
BRANCH   4  20
ATOM     20  C   UNL     1       1.600   7.696  20.399  0.00  0.00    +0.000 A 
ATOM     21  C   UNL     1       1.424   8.579  21.447  0.00  0.00    +0.000 A 
ATOM     22  C   UNL     1       0.954   9.808  20.912  0.00  0.00    +0.000 A 
ATOM     23  C   UNL     1       0.835   9.666  19.543  0.00  0.00    +0.000 A 
ATOM     24  N   UNL     1       1.204   8.374  19.251  0.00  0.00    +0.000 N 
ATOM     25  H   UNL     1       1.228   7.957  18.329  0.00  0.00    +0.000 HD
BRANCH  23  26
ATOM     26  C   UNL     1       0.457  10.666  18.483  0.00  0.00    +0.000 C 
BRANCH  26  27
ATOM     27  C   UNL     1      -1.020  10.722  18.146  0.00  0.00    +0.000 A 
ATOM     28  C   UNL     1      -1.868  11.658  18.759  0.00  0.00    +0.000 A 
ATOM     29  C   UNL     1      -3.224  11.732  18.425  0.00  0.00    +0.000 A 
ATOM     30  C   UNL     1      -3.737  10.875  17.457  0.00  0.00    +0.000 A 
ATOM     31  C   UNL     1      -2.913   9.962  16.812  0.00  0.00    +0.000 A 
ATOM     32  C   UNL     1      -1.558   9.888  17.152  0.00  0.00    +0.000 A 
BRANCH  30  33
ATOM     33  O   UNL     1      -5.054  10.906  17.107  0.00  0.00    +0.000 OA
ATOM     34  H   UNL     1      -5.547  11.379  17.798  0.00  0.00    +0.000 HD
ENDBRANCH  30  33
ENDBRANCH  26  27
ENDBRANCH  23  26
ENDBRANCH   4  20
BRANCH   6  35
ATOM     35  O   UNL     1       2.492   2.901  21.102  0.00  0.00    +0.000 OA
ATOM     36  C   UNL     1       1.721   1.936  20.410  0.00  0.00    +0.000 C 
ENDBRANCH   6  35
TORSDOF 11
ENDMDL
MODEL 2
REMARK VINA RESULT:      -8.2      1.064      1.374
REMARK  Name = 
REMARK  14 active torsions:
REMARK  status: ('A' for Active; 'I' for Inactive)
REMARK    1  A    between atoms: C_1  and  C_2
REMARK    2  A    between atoms: C_2  and  C_3
REMARK    3  A    between atoms: C_3  and  C_4
REMARK    4  A    between atoms: C_4  and  C_5
REMARK    5  A    between atoms: C_5  and  C_6
REMARK    6  A    between atoms: C_6  and  C_7
REMARK    7  A    between atoms: C_9  and  C_10
REMARK    8  A    between atoms: C_13  and  C_14
REMARK    9  A    between atoms: C_17  and  C_18
REMARK   10  A    between atoms: C_18  and  C_19
REMARK   11  A    between atoms: C_22  and  O_23
REMARK   12  A    between atoms: C_28  and  O_29
REMARK   13  A    between atoms: O_29  and  C_30
REMARK   14  A    between atoms: C_32  and  C_33
REMARK                            x       y       z     vdW  Elec       q    Type
REMARK                         _______ _______ _______ _____ _____    ______ ____
ROOT
ATOM      1  C   UNL     1       4.090   4.717  19.418  0.00  0.00    +0.000 C 
ATOM      2  C   UNL     1       3.125   5.586  19.759  0.00  0.00    +0.000 C 
ATOM      3  N   UNL     1       2.927   6.828  19.193  0.00  0.00    +0.000 NA
ATOM      4  C   UNL     1       1.889   7.328  19.801  0.00  0.00    +0.000 C 
ATOM      5  C   UNL     1       1.299   6.454  20.835  0.00  0.00    +0.000 C 
ATOM      6  C   UNL     1       2.112   5.386  20.768  0.00  0.00    +0.000 C 
ENDROOT
BRANCH   1   9
ATOM      7  C   UNL     1       6.336   5.128  16.544  0.00  0.00    +0.000 A 
ATOM      8  C   UNL     1       5.304   4.376  17.181  0.00  0.00    +0.000 A 
ATOM      9  C   UNL     1       5.029   4.974  18.389  0.00  0.00    +0.000 A 
ATOM     10  N   UNL     1       5.888   6.036  18.508  0.00  0.00    +0.000 N 
ATOM     11  C   UNL     1       6.685   6.154  17.408  0.00  0.00    +0.000 A 
ATOM     12  C   UNL     1       7.689   7.243  17.318  0.00  0.00    +0.000 C 
ATOM     13  H   UNL     1       5.891   6.648  19.318  0.00  0.00    +0.000 HD
BRANCH   7  14
ATOM     14  C   UNL     1       6.912   4.848  15.198  0.00  0.00    +0.000 C 
BRANCH  14  15
ATOM     15  C   UNL     1       6.239   3.655  14.531  0.00  0.00    +0.000 C 
BRANCH  15  16
ATOM     16  C   UNL     1       5.743   4.008  13.136  0.00  0.00    +0.000 C 
BRANCH  16  17
ATOM     17  C   UNL     1       6.363   3.064  12.111  0.00  0.00    +0.000 C 
BRANCH  17  19
ATOM     18  C   UNL     1       4.037   3.171  11.186  0.00  0.00    +0.000 C 
ATOM     19  C   UNL     1       5.287   2.319  11.330  0.00  0.00    +0.000 C 
ENDBRANCH  17  19
ENDBRANCH  16  17
ENDBRANCH  15  16
ENDBRANCH  14  15
ENDBRANCH   7  14
ENDBRANCH   1   9
BRANCH   4  20
ATOM     20  C   UNL     1       1.432   8.644  19.424  0.00  0.00    +0.000 A 
ATOM     21  C   UNL     1       2.075   9.685  18.781  0.00  0.00    +0.000 A 
ATOM     22  C   UNL     1       1.145  10.747  18.627  0.00  0.00    +0.000 A 
ATOM     23  C   UNL     1      -0.056  10.355  19.186  0.00  0.00    +0.000 A 
ATOM     24  N   UNL     1       0.142   9.090  19.688  0.00  0.00    +0.000 N 
ATOM     25  H   UNL     1      -0.551   8.522  20.159  0.00  0.00    +0.000 HD
BRANCH  23  26
ATOM     26  C   UNL     1      -1.389  11.052  19.234  0.00  0.00    +0.000 C 
BRANCH  26  27
ATOM     27  C   UNL     1      -2.264  10.857  18.012  0.00  0.00    +0.000 A 
ATOM     28  C   UNL     1      -3.450  11.591  17.845  0.00  0.00    +0.000 A 
ATOM     29  C   UNL     1      -4.241  11.435  16.703  0.00  0.00    +0.000 A 
ATOM     30  C   UNL     1      -3.838  10.551  15.709  0.00  0.00    +0.000 A 
ATOM     31  C   UNL     1      -2.654   9.837  15.833  0.00  0.00    +0.000 A 
ATOM     32  C   UNL     1      -1.867   9.992  16.979  0.00  0.00    +0.000 A 
BRANCH  30  33
ATOM     33  O   UNL     1      -4.583  10.360  14.583  0.00  0.00    +0.000 OA
ATOM     34  H   UNL     1      -5.500  10.625  14.769  0.00  0.00    +0.000 HD
ENDBRANCH  30  33
ENDBRANCH  26  27
ENDBRANCH  23  26
ENDBRANCH   4  20
BRANCH   6  35
ATOM     35  O   UNL     1       2.150   4.207  21.444  0.00  0.00    +0.000 OA
ATOM     36  C   UNL     1       1.346   3.124  21.015  0.00  0.00    +0.000 C 
ENDBRANCH   6  35
TORSDOF 11
ENDMDL
MODEL 3
REMARK VINA RESULT:      -8.1      1.956      2.604
REMARK  Name = 
REMARK  14 active torsions:
REMARK  status: ('A' for Active; 'I' for Inactive)
REMARK    1  A    between atoms: C_1  and  C_2
REMARK    2  A    between atoms: C_2  and  C_3
REMARK    3  A    between atoms: C_3  and  C_4
REMARK    4  A    between atoms: C_4  and  C_5
REMARK    5  A    between atoms: C_5  and  C_6
REMARK    6  A    between atoms: C_6  and  C_7
REMARK    7  A    between atoms: C_9  and  C_10
REMARK    8  A    between atoms: C_13  and  C_14
REMARK    9  A    between atoms: C_17  and  C_18
REMARK   10  A    between atoms: C_18  and  C_19
REMARK   11  A    between atoms: C_22  and  O_23
REMARK   12  A    between atoms: C_28  and  O_29
REMARK   13  A    between atoms: O_29  and  C_30
REMARK   14  A    between atoms: C_32  and  C_33
REMARK                            x       y       z     vdW  Elec       q    Type
REMARK                         _______ _______ _______ _____ _____    ______ ____
ROOT
ATOM      1  C   UNL     1       3.975   4.521  19.164  0.00  0.00    +0.000 C 
ATOM      2  C   UNL     1       3.073   5.424  19.584  0.00  0.00    +0.000 C 
ATOM      3  N   UNL     1       2.956   6.717  19.118  0.00  0.00    +0.000 NA
ATOM      4  C   UNL     1       1.958   7.235  19.776  0.00  0.00    +0.000 C 
ATOM      5  C   UNL     1       1.318   6.325  20.747  0.00  0.00    +0.000 C 
ATOM      6  C   UNL     1       2.058   5.214  20.588  0.00  0.00    +0.000 C 
ENDROOT
BRANCH   1   9
ATOM      7  C   UNL     1       6.250   4.966  16.318  0.00  0.00    +0.000 A 
ATOM      8  C   UNL     1       5.229   4.193  16.948  0.00  0.00    +0.000 A 
ATOM      9  C   UNL     1       4.921   4.794  18.147  0.00  0.00    +0.000 A 
ATOM     10  N   UNL     1       5.750   5.879  18.268  0.00  0.00    +0.000 N 
ATOM     11  C   UNL     1       6.559   6.008  17.178  0.00  0.00    +0.000 A 
ATOM     12  C   UNL     1       7.536   7.123  17.091  0.00  0.00    +0.000 C 
ATOM     13  H   UNL     1       5.726   6.498  19.072  0.00  0.00    +0.000 HD
BRANCH   7  14
ATOM     14  C   UNL     1       6.852   4.689  14.983  0.00  0.00    +0.000 C 
BRANCH  14  15
ATOM     15  C   UNL     1       5.867   3.994  14.051  0.00  0.00    +0.000 C 
BRANCH  15  16
ATOM     16  C   UNL     1       6.491   3.725  12.689  0.00  0.00    +0.000 C 
BRANCH  16  17
ATOM     17  C   UNL     1       5.649   2.709  11.925  0.00  0.00    +0.000 C 
BRANCH  17  19
ATOM     18  C   UNL     1       6.181   0.356  11.252  0.00  0.00    +0.000 C 
ATOM     19  C   UNL     1       6.523   1.822  11.046  0.00  0.00    +0.000 C 
ENDBRANCH  17  19
ENDBRANCH  16  17
ENDBRANCH  15  16
ENDBRANCH  14  15
ENDBRANCH   7  14
ENDBRANCH   1   9
BRANCH   4  20
ATOM     20  C   UNL     1       1.589   8.604  19.507  0.00  0.00    +0.000 A 
ATOM     21  C   UNL     1       1.250   9.246  18.331  0.00  0.00    +0.000 A 
ATOM     22  C   UNL     1       0.937  10.596  18.642  0.00  0.00    +0.000 A 
ATOM     23  C   UNL     1       1.096  10.775  20.002  0.00  0.00    +0.000 A 
ATOM     24  N   UNL     1       1.517   9.567  20.508  0.00  0.00    +0.000 N 
ATOM     25  H   UNL     1       1.720   9.369  21.479  0.00  0.00    +0.000 HD
BRANCH  23  26
ATOM     26  C   UNL     1       0.829  11.975  20.870  0.00  0.00    +0.000 C 
BRANCH  26  27
ATOM     27  C   UNL     1      -0.602  12.121  21.348  0.00  0.00    +0.000 A 
ATOM     28  C   UNL     1      -1.626  12.500  20.464  0.00  0.00    +0.000 A 
ATOM     29  C   UNL     1      -2.951  12.603  20.897  0.00  0.00    +0.000 A 
ATOM     30  C   UNL     1      -3.263  12.310  22.220  0.00  0.00    +0.000 A 
ATOM     31  C   UNL     1      -2.275  11.902  23.106  0.00  0.00    +0.000 A 
ATOM     32  C   UNL     1      -0.950  11.804  22.672  0.00  0.00    +0.000 A 
BRANCH  30  33
ATOM     33  O   UNL     1      -4.540  12.407  22.687  0.00  0.00    +0.000 OA
ATOM     34  H   UNL     1      -4.509  12.659  23.625  0.00  0.00    +0.000 HD
ENDBRANCH  30  33
ENDBRANCH  26  27
ENDBRANCH  23  26
ENDBRANCH   4  20
BRANCH   6  35
ATOM     35  O   UNL     1       2.021   3.986  21.171  0.00  0.00    +0.000 OA
ATOM     36  C   UNL     1       1.064   3.034  20.744  0.00  0.00    +0.000 C 
ENDBRANCH   6  35
TORSDOF 11
ENDMDL
MODEL 4
REMARK VINA RESULT:      -8.0      0.511      1.021
REMARK  Name = 
REMARK  14 active torsions:
REMARK  status: ('A' for Active; 'I' for Inactive)
REMARK    1  A    between atoms: C_1  and  C_2
REMARK    2  A    between atoms: C_2  and  C_3
REMARK    3  A    between atoms: C_3  and  C_4
REMARK    4  A    between atoms: C_4  and  C_5
REMARK    5  A    between atoms: C_5  and  C_6
REMARK    6  A    between atoms: C_6  and  C_7
REMARK    7  A    between atoms: C_9  and  C_10
REMARK    8  A    between atoms: C_13  and  C_14
REMARK    9  A    between atoms: C_17  and  C_18
REMARK   10  A    between atoms: C_18  and  C_19
REMARK   11  A    between atoms: C_22  and  O_23
REMARK   12  A    between atoms: C_28  and  O_29
REMARK   13  A    between atoms: O_29  and  C_30
REMARK   14  A    between atoms: C_32  and  C_33
REMARK                            x       y       z     vdW  Elec       q    Type
REMARK                         _______ _______ _______ _____ _____    ______ ____
ROOT
ATOM      1  C   UNL     1       3.859   3.926  18.786  0.00  0.00    +0.000 C 
ATOM      2  C   UNL     1       2.988   4.660  19.499  0.00  0.00    +0.000 C 
ATOM      3  N   UNL     1       2.855   6.031  19.437  0.00  0.00    +0.000 NA
ATOM      4  C   UNL     1       1.898   6.327  20.269  0.00  0.00    +0.000 C 
ATOM      5  C   UNL     1       1.304   5.168  20.965  0.00  0.00    +0.000 C 
ATOM      6  C   UNL     1       2.025   4.158  20.450  0.00  0.00    +0.000 C 
ENDROOT
BRANCH   1   9
ATOM      7  C   UNL     1       5.982   5.203  16.078  0.00  0.00    +0.000 A 
ATOM      8  C   UNL     1       4.987   4.273  16.506  0.00  0.00    +0.000 A 
ATOM      9  C   UNL     1       4.752   4.492  17.844  0.00  0.00    +0.000 A 
ATOM     10  N   UNL     1       5.599   5.497  18.235  0.00  0.00    +0.000 N 
ATOM     11  C   UNL     1       6.350   5.946  17.188  0.00  0.00    +0.000 A 
ATOM     12  C   UNL     1       7.333   7.041  17.381  0.00  0.00    +0.000 C 
ATOM     13  H   UNL     1       5.626   5.851  19.185  0.00  0.00    +0.000 HD
BRANCH   7  14
ATOM     14  C   UNL     1       6.507   5.336  14.690  0.00  0.00    +0.000 C 
BRANCH  14  15
ATOM     15  C   UNL     1       6.600   3.986  13.988  0.00  0.00    +0.000 C 
BRANCH  15  16
ATOM     16  C   UNL     1       6.585   4.148  12.474  0.00  0.00    +0.000 C 
BRANCH  16  17
ATOM     17  C   UNL     1       6.693   2.782  11.806  0.00  0.00    +0.000 C 
BRANCH  17  19
ATOM     18  C   UNL     1       4.277   3.313  11.413  0.00  0.00    +0.000 C 
ATOM     19  C   UNL     1       5.314   2.207  11.504  0.00  0.00    +0.000 C 
ENDBRANCH  17  19
ENDBRANCH  16  17
ENDBRANCH  15  16
ENDBRANCH  14  15
ENDBRANCH   7  14
ENDBRANCH   1   9
BRANCH   4  20
ATOM     20  C   UNL     1       1.525   7.712  20.432  0.00  0.00    +0.000 A 
ATOM     21  C   UNL     1       1.484   8.522  21.551  0.00  0.00    +0.000 A 
ATOM     22  C   UNL     1       1.078   9.819  21.140  0.00  0.00    +0.000 A 
ATOM     23  C   UNL     1       0.863   9.793  19.775  0.00  0.00    +0.000 A 
ATOM     24  N   UNL     1       1.113   8.504  19.366  0.00  0.00    +0.000 N 
ATOM     25  H   UNL     1       1.047   8.159  18.417  0.00  0.00    +0.000 HD
BRANCH  23  26
ATOM     26  C   UNL     1       0.498  10.896  18.819  0.00  0.00    +0.000 C 
BRANCH  26  27
ATOM     27  C   UNL     1      -0.952  10.916  18.379  0.00  0.00    +0.000 A 
ATOM     28  C   UNL     1      -1.432  10.007  17.422  0.00  0.00    +0.000 A 
ATOM     29  C   UNL     1      -2.777  10.004  17.040  0.00  0.00    +0.000 A 
ATOM     30  C   UNL     1      -3.657  10.904  17.630  0.00  0.00    +0.000 A 
ATOM     31  C   UNL     1      -3.216  11.792  18.602  0.00  0.00    +0.000 A 
ATOM     32  C   UNL     1      -1.869  11.796  18.979  0.00  0.00    +0.000 A 
BRANCH  30  33
ATOM     33  O   UNL     1      -4.974  10.942  17.281  0.00  0.00    +0.000 OA
ATOM     34  H   UNL     1      -5.037  10.988  16.312  0.00  0.00    +0.000 HD
ENDBRANCH  30  33
ENDBRANCH  26  27
ENDBRANCH  23  26
ENDBRANCH   4  20
BRANCH   6  35
ATOM     35  O   UNL     1       2.010   2.813  20.650  0.00  0.00    +0.000 OA
ATOM     36  C   UNL     1       2.899   2.231  21.585  0.00  0.00    +0.000 C 
ENDBRANCH   6  35
TORSDOF 11
ENDMDL
MODEL 5
REMARK VINA RESULT:      -7.9      1.283      1.576
REMARK  Name = 
REMARK  14 active torsions:
REMARK  status: ('A' for Active; 'I' for Inactive)
REMARK    1  A    between atoms: C_1  and  C_2
REMARK    2  A    between atoms: C_2  and  C_3
REMARK    3  A    between atoms: C_3  and  C_4
REMARK    4  A    between atoms: C_4  and  C_5
REMARK    5  A    between atoms: C_5  and  C_6
REMARK    6  A    between atoms: C_6  and  C_7
REMARK    7  A    between atoms: C_9  and  C_10
REMARK    8  A    between atoms: C_13  and  C_14
REMARK    9  A    between atoms: C_17  and  C_18
REMARK   10  A    between atoms: C_18  and  C_19
REMARK   11  A    between atoms: C_22  and  O_23
REMARK   12  A    between atoms: C_28  and  O_29
REMARK   13  A    between atoms: O_29  and  C_30
REMARK   14  A    between atoms: C_32  and  C_33
REMARK                            x       y       z     vdW  Elec       q    Type
REMARK                         _______ _______ _______ _____ _____    ______ ____
ROOT
ATOM      1  C   UNL     1       3.522   3.670  18.920  0.00  0.00    +0.000 C 
ATOM      2  C   UNL     1       2.729   4.675  19.328  0.00  0.00    +0.000 C 
ATOM      3  N   UNL     1       2.834   5.992  18.932  0.00  0.00    +0.000 NA
ATOM      4  C   UNL     1       1.872   6.619  19.547  0.00  0.00    +0.000 C 
ATOM      5  C   UNL     1       1.035   5.767  20.415  0.00  0.00    +0.000 C 
ATOM      6  C   UNL     1       1.618   4.568  20.243  0.00  0.00    +0.000 C 
ENDROOT
BRANCH   1   9
ATOM      7  C   UNL     1       5.983   4.148  16.238  0.00  0.00    +0.000 A 
ATOM      8  C   UNL     1       4.640   3.845  16.615  0.00  0.00    +0.000 A 
ATOM      9  C   UNL     1       4.574   3.850  17.989  0.00  0.00    +0.000 A 
ATOM     10  N   UNL     1       5.841   4.112  18.444  0.00  0.00    +0.000 N 
ATOM     11  C   UNL     1       6.710   4.298  17.409  0.00  0.00    +0.000 A 
ATOM     12  C   UNL     1       8.139   4.602  17.670  0.00  0.00    +0.000 C 
ATOM     13  H   UNL     1       6.066   4.170  19.431  0.00  0.00    +0.000 HD
BRANCH   7  14
ATOM     14  C   UNL     1       6.486   4.279  14.842  0.00  0.00    +0.000 C 
BRANCH  14  15
ATOM     15  C   UNL     1       5.489   3.731  13.827  0.00  0.00    +0.000 C 
BRANCH  15  16
ATOM     16  C   UNL     1       6.123   3.589  12.450  0.00  0.00    +0.000 C 
BRANCH  16  17
ATOM     17  C   UNL     1       5.218   2.759  11.546  0.00  0.00    +0.000 C 
BRANCH  17  19
ATOM     18  C   UNL     1       3.484   3.791  10.062  0.00  0.00    +0.000 C 
ATOM     19  C   UNL     1       3.816   3.353  11.479  0.00  0.00    +0.000 C 
ENDBRANCH  17  19
ENDBRANCH  16  17
ENDBRANCH  15  16
ENDBRANCH  14  15
ENDBRANCH   7  14
ENDBRANCH   1   9
BRANCH   4  20
ATOM     20  C   UNL     1       1.725   8.039  19.335  0.00  0.00    +0.000 A 
ATOM     21  C   UNL     1       2.119   8.853  18.290  0.00  0.00    +0.000 A 
ATOM     22  C   UNL     1       1.687  10.175  18.576  0.00  0.00    +0.000 A 
ATOM     23  C   UNL     1       1.042  10.165  19.797  0.00  0.00    +0.000 A 
ATOM     24  N   UNL     1       1.096   8.869  20.256  0.00  0.00    +0.000 N 
ATOM     25  H   UNL     1       0.708   8.531  21.128  0.00  0.00    +0.000 HD
BRANCH  23  26
ATOM     26  C   UNL     1       0.329  11.264  20.539  0.00  0.00    +0.000 C 
BRANCH  26  27
ATOM     27  C   UNL     1      -1.074  11.567  20.051  0.00  0.00    +0.000 A 
ATOM     28  C   UNL     1      -1.915  12.439  20.762  0.00  0.00    +0.000 A 
ATOM     29  C   UNL     1      -3.197  12.745  20.295  0.00  0.00    +0.000 A 
ATOM     30  C   UNL     1      -3.640  12.190  19.100  0.00  0.00    +0.000 A 
ATOM     31  C   UNL     1      -2.816  11.351  18.361  0.00  0.00    +0.000 A 
ATOM     32  C   UNL     1      -1.536  11.043  18.833  0.00  0.00    +0.000 A 
BRANCH  30  33
ATOM     33  O   UNL     1      -4.885  12.453  18.612  0.00  0.00    +0.000 OA
ATOM     34  H   UNL     1      -5.010  11.947  17.792  0.00  0.00    +0.000 HD
ENDBRANCH  30  33
ENDBRANCH  26  27
ENDBRANCH  23  26
ENDBRANCH   4  20
BRANCH   6  35
ATOM     35  O   UNL     1       1.360   3.332  20.748  0.00  0.00    +0.000 OA
ATOM     36  C   UNL     1       2.014   2.904  21.929  0.00  0.00    +0.000 C 
ENDBRANCH   6  35
TORSDOF 11
ENDMDL
MODEL 6
REMARK VINA RESULT:      -7.8      2.156      2.596
REMARK  Name = 
REMARK  14 active torsions:
REMARK  status: ('A' for Active; 'I' for Inactive)
REMARK    1  A    between atoms: C_1  and  C_2
REMARK    2  A    between atoms: C_2  and  C_3
REMARK    3  A    between atoms: C_3  and  C_4
REMARK    4  A    between atoms: C_4  and  C_5
REMARK    5  A    between atoms: C_5  and  C_6
REMARK    6  A    between atoms: C_6  and  C_7
REMARK    7  A    between atoms: C_9  and  C_10
REMARK    8  A    between atoms: C_13  and  C_14
REMARK    9  A    between atoms: C_17  and  C_18
REMARK   10  A    between atoms: C_18  and  C_19
REMARK   11  A    between atoms: C_22  and  O_23
REMARK   12  A    between atoms: C_28  and  O_29
REMARK   13  A    between atoms: O_29  and  C_30
REMARK   14  A    between atoms: C_32  and  C_33
REMARK                            x       y       z     vdW  Elec       q    Type
REMARK                         _______ _______ _______ _____ _____    ______ ____
ROOT
ATOM      1  C   UNL     1       3.822   3.848  18.740  0.00  0.00    +0.000 C 
ATOM      2  C   UNL     1       2.968   4.674  19.367  0.00  0.00    +0.000 C 
ATOM      3  N   UNL     1       2.896   6.040  19.187  0.00  0.00    +0.000 NA
ATOM      4  C   UNL     1       1.935   6.444  19.967  0.00  0.00    +0.000 C 
ATOM      5  C   UNL     1       1.276   5.374  20.742  0.00  0.00    +0.000 C 
ATOM      6  C   UNL     1       1.964   4.295  20.332  0.00  0.00    +0.000 C 
ENDROOT
BRANCH   1   9
ATOM      7  C   UNL     1       6.059   4.798  15.989  0.00  0.00    +0.000 A 
ATOM      8  C   UNL     1       5.023   3.943  16.473  0.00  0.00    +0.000 A 
ATOM      9  C   UNL     1       4.759   4.294  17.777  0.00  0.00    +0.000 A 
ATOM     10  N   UNL     1       5.627   5.306  18.097  0.00  0.00    +0.000 N 
ATOM     11  C   UNL     1       6.420   5.631  17.036  0.00  0.00    +0.000 A 
ATOM     12  C   UNL     1       7.433   6.710  17.155  0.00  0.00    +0.000 C 
ATOM     13  H   UNL     1       5.639   5.747  19.010  0.00  0.00    +0.000 HD
BRANCH   7  14
ATOM     14  C   UNL     1       6.626   4.783  14.612  0.00  0.00    +0.000 C 
BRANCH  14  15
ATOM     15  C   UNL     1       5.693   4.096  13.622  0.00  0.00    +0.000 C 
BRANCH  15  16
ATOM     16  C   UNL     1       6.466   3.500  12.454  0.00  0.00    +0.000 C 
BRANCH  16  17
ATOM     17  C   UNL     1       5.504   2.814  11.491  0.00  0.00    +0.000 C 
BRANCH  17  19
ATOM     18  C   UNL     1       3.285   3.009  10.346  0.00  0.00    +0.000 C 
ATOM     19  C   UNL     1       4.135   3.482  11.513  0.00  0.00    +0.000 C 
ENDBRANCH  17  19
ENDBRANCH  16  17
ENDBRANCH  15  16
ENDBRANCH  14  15
ENDBRANCH   7  14
ENDBRANCH   1   9
BRANCH   4  20
ATOM     20  C   UNL     1       1.619   7.852  20.005  0.00  0.00    +0.000 A 
ATOM     21  C   UNL     1       1.054   8.636  20.993  0.00  0.00    +0.000 A 
ATOM     22  C   UNL     1       1.002   9.973  20.516  0.00  0.00    +0.000 A 
ATOM     23  C   UNL     1       1.524   9.997  19.238  0.00  0.00    +0.000 A 
ATOM     24  N   UNL     1       1.869   8.701  18.933  0.00  0.00    +0.000 N 
ATOM     25  H   UNL     1       2.283   8.386  18.065  0.00  0.00    +0.000 HD
BRANCH  23  26
ATOM     26  C   UNL     1       1.777  11.150  18.305  0.00  0.00    +0.000 C 
BRANCH  26  27
ATOM     27  C   UNL     1       1.317  12.504  18.810  0.00  0.00    +0.000 A 
ATOM     28  C   UNL     1       2.171  13.324  19.565  0.00  0.00    +0.000 A 
ATOM     29  C   UNL     1       1.758  14.586  20.003  0.00  0.00    +0.000 A 
ATOM     30  C   UNL     1       0.487  15.042  19.673  0.00  0.00    +0.000 A 
ATOM     31  C   UNL     1      -0.366  14.265  18.901  0.00  0.00    +0.000 A 
ATOM     32  C   UNL     1       0.048  13.001  18.467  0.00  0.00    +0.000 A 
BRANCH  30  33
ATOM     33  O   UNL     1       0.039  16.262  20.087  0.00  0.00    +0.000 OA
ATOM     34  H   UNL     1      -0.867  16.162  20.422  0.00  0.00    +0.000 HD
ENDBRANCH  30  33
ENDBRANCH  26  27
ENDBRANCH  23  26
ENDBRANCH   4  20
BRANCH   6  35
ATOM     35  O   UNL     1       1.886   2.973  20.643  0.00  0.00    +0.000 OA
ATOM     36  C   UNL     1       2.492   2.493  21.829  0.00  0.00    +0.000 C 
ENDBRANCH   6  35
TORSDOF 11
ENDMDL
MODEL 7
REMARK VINA RESULT:      -7.8      1.724      4.301
REMARK  Name = 
REMARK  14 active torsions:
REMARK  status: ('A' for Active; 'I' for Inactive)
REMARK    1  A    between atoms: C_1  and  C_2
REMARK    2  A    between atoms: C_2  and  C_3
REMARK    3  A    between atoms: C_3  and  C_4
REMARK    4  A    between atoms: C_4  and  C_5
REMARK    5  A    between atoms: C_5  and  C_6
REMARK    6  A    between atoms: C_6  and  C_7
REMARK    7  A    between atoms: C_9  and  C_10
REMARK    8  A    between atoms: C_13  and  C_14
REMARK    9  A    between atoms: C_17  and  C_18
REMARK   10  A    between atoms: C_18  and  C_19
REMARK   11  A    between atoms: C_22  and  O_23
REMARK   12  A    between atoms: C_28  and  O_29
REMARK   13  A    between atoms: O_29  and  C_30
REMARK   14  A    between atoms: C_32  and  C_33
REMARK                            x       y       z     vdW  Elec       q    Type
REMARK                         _______ _______ _______ _____ _____    ______ ____
ROOT
ATOM      1  C   UNL     1       4.439   4.269  18.881  0.00  0.00    +0.000 C 
ATOM      2  C   UNL     1       3.420   4.871  19.516  0.00  0.00    +0.000 C 
ATOM      3  N   UNL     1       3.159   6.225  19.510  0.00  0.00    +0.000 NA
ATOM      4  C   UNL     1       2.085   6.377  20.230  0.00  0.00    +0.000 C 
ATOM      5  C   UNL     1       1.530   5.125  20.784  0.00  0.00    +0.000 C 
ATOM      6  C   UNL     1       2.405   4.222  20.311  0.00  0.00    +0.000 C 
ENDROOT
BRANCH   1   9
ATOM      7  C   UNL     1       6.953   6.300  17.140  0.00  0.00    +0.000 A 
ATOM      8  C   UNL     1       6.135   6.105  18.294  0.00  0.00    +0.000 A 
ATOM      9  C   UNL     1       5.378   4.974  18.089  0.00  0.00    +0.000 A 
ATOM     10  N   UNL     1       5.691   4.510  16.838  0.00  0.00    +0.000 N 
ATOM     11  C   UNL     1       6.641   5.289  16.245  0.00  0.00    +0.000 A 
ATOM     12  C   UNL     1       7.138   4.966  14.884  0.00  0.00    +0.000 C 
ATOM     13  H   UNL     1       5.266   3.679  16.441  0.00  0.00    +0.000 HD
BRANCH   7  14
ATOM     14  C   UNL     1       7.952   7.390  16.957  0.00  0.00    +0.000 C 
BRANCH  14  15
ATOM     15  C   UNL     1       7.580   8.638  17.749  0.00  0.00    +0.000 C 
BRANCH  15  16
ATOM     16  C   UNL     1       8.734   9.098  18.630  0.00  0.00    +0.000 C 
BRANCH  16  17
ATOM     17  C   UNL     1       9.097  10.541  18.296  0.00  0.00    +0.000 C 
BRANCH  17  19
ATOM     18  C   UNL     1       9.414  12.021  20.292  0.00  0.00    +0.000 C 
ATOM     19  C   UNL     1      10.100  11.100  19.297  0.00  0.00    +0.000 C 
ENDBRANCH  17  19
ENDBRANCH  16  17
ENDBRANCH  15  16
ENDBRANCH  14  15
ENDBRANCH   7  14
ENDBRANCH   1   9
BRANCH   4  20
ATOM     20  C   UNL     1       1.559   7.708  20.418  0.00  0.00    +0.000 A 
ATOM     21  C   UNL     1       1.327   8.446  21.564  0.00  0.00    +0.000 A 
ATOM     22  C   UNL     1       0.833   9.718  21.173  0.00  0.00    +0.000 A 
ATOM     23  C   UNL     1       0.754   9.748  19.794  0.00  0.00    +0.000 A 
ATOM     24  N   UNL     1       1.171   8.514  19.354  0.00  0.00    +0.000 N 
ATOM     25  H   UNL     1       1.232   8.218  18.388  0.00  0.00    +0.000 HD
BRANCH  23  26
ATOM     26  C   UNL     1       0.371  10.862  18.858  0.00  0.00    +0.000 C 
BRANCH  26  27
ATOM     27  C   UNL     1      -1.074  10.853  18.400  0.00  0.00    +0.000 A 
ATOM     28  C   UNL     1      -2.008  11.759  18.929  0.00  0.00    +0.000 A 
ATOM     29  C   UNL     1      -3.333  11.773  18.483  0.00  0.00    +0.000 A 
ATOM     30  C   UNL     1      -3.728  10.886  17.488  0.00  0.00    +0.000 A 
ATOM     31  C   UNL     1      -2.817  10.002  16.924  0.00  0.00    +0.000 A 
ATOM     32  C   UNL     1      -1.494   9.988  17.376  0.00  0.00    +0.000 A 
BRANCH  30  33
ATOM     33  O   UNL     1      -5.012  10.858  17.029  0.00  0.00    +0.000 OA
ATOM     34  H   UNL     1      -5.064  10.230  16.290  0.00  0.00    +0.000 HD
ENDBRANCH  30  33
ENDBRANCH  26  27
ENDBRANCH  23  26
ENDBRANCH   4  20
BRANCH   6  35
ATOM     35  O   UNL     1       2.501   2.871  20.436  0.00  0.00    +0.000 OA
ATOM     36  C   UNL     1       1.744   2.030  19.584  0.00  0.00    +0.000 C 
ENDBRANCH   6  35
TORSDOF 11
ENDMDL
MODEL 8
REMARK VINA RESULT:      -7.7      2.383      2.934
REMARK  Name = 
REMARK  14 active torsions:
REMARK  status: ('A' for Active; 'I' for Inactive)
REMARK    1  A    between atoms: C_1  and  C_2
REMARK    2  A    between atoms: C_2  and  C_3
REMARK    3  A    between atoms: C_3  and  C_4
REMARK    4  A    between atoms: C_4  and  C_5
REMARK    5  A    between atoms: C_5  and  C_6
REMARK    6  A    between atoms: C_6  and  C_7
REMARK    7  A    between atoms: C_9  and  C_10
REMARK    8  A    between atoms: C_13  and  C_14
REMARK    9  A    between atoms: C_17  and  C_18
REMARK   10  A    between atoms: C_18  and  C_19
REMARK   11  A    between atoms: C_22  and  O_23
REMARK   12  A    between atoms: C_28  and  O_29
REMARK   13  A    between atoms: O_29  and  C_30
REMARK   14  A    between atoms: C_32  and  C_33
REMARK                            x       y       z     vdW  Elec       q    Type
REMARK                         _______ _______ _______ _____ _____    ______ ____
ROOT
ATOM      1  C   UNL     1       3.557   3.545  18.850  0.00  0.00    +0.000 C 
ATOM      2  C   UNL     1       2.747   4.533  19.266  0.00  0.00    +0.000 C 
ATOM      3  N   UNL     1       2.856   5.862  18.914  0.00  0.00    +0.000 NA
ATOM      4  C   UNL     1       1.875   6.466  19.521  0.00  0.00    +0.000 C 
ATOM      5  C   UNL     1       1.018   5.584  20.339  0.00  0.00    +0.000 C 
ATOM      6  C   UNL     1       1.611   4.394  20.146  0.00  0.00    +0.000 C 
ENDROOT
BRANCH   1   9
ATOM      7  C   UNL     1       6.093   4.086  16.251  0.00  0.00    +0.000 A 
ATOM      8  C   UNL     1       4.756   3.714  16.586  0.00  0.00    +0.000 A 
ATOM      9  C   UNL     1       4.634   3.759  17.955  0.00  0.00    +0.000 A 
ATOM     10  N   UNL     1       5.863   4.110  18.450  0.00  0.00    +0.000 N 
ATOM     11  C   UNL     1       6.761   4.315  17.444  0.00  0.00    +0.000 A 
ATOM     12  C   UNL     1       8.158   4.712  17.749  0.00  0.00    +0.000 C 
ATOM     13  H   UNL     1       6.044   4.212  19.443  0.00  0.00    +0.000 HD
BRANCH   7  14
ATOM     14  C   UNL     1       6.644   4.202  14.872  0.00  0.00    +0.000 C 
BRANCH  14  15
ATOM     15  C   UNL     1       5.587   3.911  13.813  0.00  0.00    +0.000 C 
BRANCH  15  16
ATOM     16  C   UNL     1       6.224   3.592  12.468  0.00  0.00    +0.000 C 
BRANCH  16  17
ATOM     17  C   UNL     1       5.263   2.763  11.623  0.00  0.00    +0.000 C 
BRANCH  17  19
ATOM     18  C   UNL     1       3.470   3.683  10.136  0.00  0.00    +0.000 C 
ATOM     19  C   UNL     1       3.883   3.406  11.571  0.00  0.00    +0.000 C 
ENDBRANCH  17  19
ENDBRANCH  16  17
ENDBRANCH  15  16
ENDBRANCH  14  15
ENDBRANCH   7  14
ENDBRANCH   1   9
BRANCH   4  20
ATOM     20  C   UNL     1       1.725   7.891  19.349  0.00  0.00    +0.000 A 
ATOM     21  C   UNL     1       1.986   8.714  18.269  0.00  0.00    +0.000 A 
ATOM     22  C   UNL     1       1.623  10.038  18.629  0.00  0.00    +0.000 A 
ATOM     23  C   UNL     1       1.153  10.021  19.928  0.00  0.00    +0.000 A 
ATOM     24  N   UNL     1       1.247   8.719  20.359  0.00  0.00    +0.000 N 
ATOM     25  H   UNL     1       0.978   8.374  21.272  0.00  0.00    +0.000 HD
BRANCH  23  26
ATOM     26  C   UNL     1       0.572  11.121  20.774  0.00  0.00    +0.000 C 
BRANCH  26  27
ATOM     27  C   UNL     1       0.705  12.518  20.200  0.00  0.00    +0.000 A 
ATOM     28  C   UNL     1      -0.367  13.131  19.532  0.00  0.00    +0.000 A 
ATOM     29  C   UNL     1      -0.255  14.432  19.030  0.00  0.00    +0.000 A 
ATOM     30  C   UNL     1       0.931  15.134  19.211  0.00  0.00    +0.000 A 
ATOM     31  C   UNL     1       1.995  14.563  19.896  0.00  0.00    +0.000 A 
ATOM     32  C   UNL     1       1.882  13.260  20.393  0.00  0.00    +0.000 A 
BRANCH  30  33
ATOM     33  O   UNL     1       1.087  16.401  18.730  0.00  0.00    +0.000 OA
ATOM     34  H   UNL     1       0.829  17.030  19.425  0.00  0.00    +0.000 HD
ENDBRANCH  30  33
ENDBRANCH  26  27
ENDBRANCH  23  26
ENDBRANCH   4  20
BRANCH   6  35
ATOM     35  O   UNL     1       1.346   3.141  20.605  0.00  0.00    +0.000 OA
ATOM     36  C   UNL     1       1.805   2.749  21.885  0.00  0.00    +0.000 C 
ENDBRANCH   6  35
TORSDOF 11
ENDMDL
MODEL 9
REMARK VINA RESULT:      -7.7      2.009      2.527
REMARK  Name = 
REMARK  14 active torsions:
REMARK  status: ('A' for Active; 'I' for Inactive)
REMARK    1  A    between atoms: C_1  and  C_2
REMARK    2  A    between atoms: C_2  and  C_3
REMARK    3  A    between atoms: C_3  and  C_4
REMARK    4  A    between atoms: C_4  and  C_5
REMARK    5  A    between atoms: C_5  and  C_6
REMARK    6  A    between atoms: C_6  and  C_7
REMARK    7  A    between atoms: C_9  and  C_10
REMARK    8  A    between atoms: C_13  and  C_14
REMARK    9  A    between atoms: C_17  and  C_18
REMARK   10  A    between atoms: C_18  and  C_19
REMARK   11  A    between atoms: C_22  and  O_23
REMARK   12  A    between atoms: C_28  and  O_29
REMARK   13  A    between atoms: O_29  and  C_30
REMARK   14  A    between atoms: C_32  and  C_33
REMARK                            x       y       z     vdW  Elec       q    Type
REMARK                         _______ _______ _______ _____ _____    ______ ____
ROOT
ATOM      1  C   UNL     1       4.055   3.885  18.784  0.00  0.00    +0.000 C 
ATOM      2  C   UNL     1       3.137   4.674  19.367  0.00  0.00    +0.000 C 
ATOM      3  N   UNL     1       3.022   6.037  19.190  0.00  0.00    +0.000 NA
ATOM      4  C   UNL     1       2.005   6.399  19.918  0.00  0.00    +0.000 C 
ATOM      5  C   UNL     1       1.347   5.299  20.652  0.00  0.00    +0.000 C 
ATOM      6  C   UNL     1       2.098   4.250  20.274  0.00  0.00    +0.000 C 
ENDROOT
BRANCH   1   9
ATOM      7  C   UNL     1       6.415   4.919  16.170  0.00  0.00    +0.000 A 
ATOM      8  C   UNL     1       5.418   3.998  16.611  0.00  0.00    +0.000 A 
ATOM      9  C   UNL     1       5.025   4.374  17.875  0.00  0.00    +0.000 A 
ATOM     10  N   UNL     1       5.780   5.466  18.215  0.00  0.00    +0.000 N 
ATOM     11  C   UNL     1       6.625   5.818  17.204  0.00  0.00    +0.000 A 
ATOM     12  C   UNL     1       7.534   6.981  17.352  0.00  0.00    +0.000 C 
ATOM     13  H   UNL     1       5.685   5.940  19.107  0.00  0.00    +0.000 HD
BRANCH   7  14
ATOM     14  C   UNL     1       7.088   4.901  14.841  0.00  0.00    +0.000 C 
BRANCH  14  15
ATOM     15  C   UNL     1       6.089   4.740  13.702  0.00  0.00    +0.000 C 
BRANCH  15  16
ATOM     16  C   UNL     1       6.540   3.670  12.717  0.00  0.00    +0.000 C 
BRANCH  16  17
ATOM     17  C   UNL     1       5.325   3.029  12.056  0.00  0.00    +0.000 C 
BRANCH  17  19
ATOM     18  C   UNL     1       7.196   1.720  11.027  0.00  0.00    +0.000 C 
ATOM     19  C   UNL     1       5.708   1.744  11.332  0.00  0.00    +0.000 C 
ENDBRANCH  17  19
ENDBRANCH  16  17
ENDBRANCH  15  16
ENDBRANCH  14  15
ENDBRANCH   7  14
ENDBRANCH   1   9
BRANCH   4  20
ATOM     20  C   UNL     1       1.634   7.794  19.944  0.00  0.00    +0.000 A 
ATOM     21  C   UNL     1       1.685   8.772  18.969  0.00  0.00    +0.000 A 
ATOM     22  C   UNL     1       1.158   9.969  19.521  0.00  0.00    +0.000 A 
ATOM     23  C   UNL     1       0.798   9.721  20.831  0.00  0.00    +0.000 A 
ATOM     24  N   UNL     1       1.116   8.407  21.080  0.00  0.00    +0.000 N 
ATOM     25  H   UNL     1       0.972   7.916  21.954  0.00  0.00    +0.000 HD
BRANCH  23  26
ATOM     26  C   UNL     1       0.126  10.605  21.847  0.00  0.00    +0.000 C 
BRANCH  26  27
ATOM     27  C   UNL     1      -0.349  11.946  21.323  0.00  0.00    +0.000 A 
ATOM     28  C   UNL     1       0.533  13.032  21.206  0.00  0.00    +0.000 A 
ATOM     29  C   UNL     1       0.102  14.259  20.692  0.00  0.00    +0.000 A 
ATOM     30  C   UNL     1      -1.216  14.401  20.276  0.00  0.00    +0.000 A 
ATOM     31  C   UNL     1      -2.101  13.333  20.350  0.00  0.00    +0.000 A 
ATOM     32  C   UNL     1      -1.669  12.108  20.868  0.00  0.00    +0.000 A 
BRANCH  30  33
ATOM     33  O   UNL     1      -1.681  15.582  19.777  0.00  0.00    +0.000 OA
ATOM     34  H   UNL     1      -2.341  15.390  19.090  0.00  0.00    +0.000 HD
ENDBRANCH  30  33
ENDBRANCH  26  27
ENDBRANCH  23  26
ENDBRANCH   4  20
BRANCH   6  35
ATOM     35  O   UNL     1       2.055   2.924  20.575  0.00  0.00    +0.000 OA
ATOM     36  C   UNL     1       2.599   2.462  21.797  0.00  0.00    +0.000 C 
ENDBRANCH   6  35
TORSDOF 11
ENDMDL
