MODEL 1
REMARK VINA RESULT:      -8.7      0.000      0.000
REMARK  Name = 
REMARK  5 active torsions:
REMARK  status: ('A' for Active; 'I' for Inactive)
REMARK    1  A    between atoms: C_1  and  C_2
REMARK    2  A    between atoms: N_8  and  C_9
REMARK    3  A    between atoms: C_9  and  C_10
REMARK    4  A    between atoms: C_13  and  C_14
REMARK    5  A    between atoms: C_14  and  N_15
REMARK                            x       y       z     vdW  Elec       q    Type
REMARK                         _______ _______ _______ _____ _____    ______ ____
ROOT
ATOM      1  C   UNL     1       5.864   3.911  15.275  0.00  0.00    +0.000 C 
ATOM      2  C   UNL     1       5.012   4.342  16.410  0.00  0.00    +0.000 A 
ATOM      3  N   UNL     1       4.562   3.456  17.313  0.00  0.00    +0.000 NA
ATOM      4  N   UNL     1       3.853   4.221  18.179  0.00  0.00    +0.000 N 
ATOM      5  C   UNL     1       3.836   5.557  17.851  0.00  0.00    +0.000 A 
ATOM      6  N   UNL     1       3.193   6.490  18.596  0.00  0.00    +0.000 NA
ATOM      7  C   UNL     1       2.548   6.117  19.672  0.00  0.00    +0.000 A 
ATOM      8  N   UNL     1       1.920   7.104  20.411  0.00  0.00    +0.000 N 
ATOM      9  C   UNL     1       2.505   4.667  20.100  0.00  0.00    +0.000 A 
ATOM     10  C   UNL     1       1.839   4.223  21.244  0.00  0.00    +0.000 A 
ATOM     11  C   UNL     1       1.859   2.861  21.581  0.00  0.00    +0.000 A 
ATOM     12  C   UNL     1       2.547   1.940  20.785  0.00  0.00    +0.000 A 
ATOM     13  C   UNL     1       3.220   2.367  19.643  0.00  0.00    +0.000 A 
ATOM     14  C   UNL     1       3.190   3.726  19.313  0.00  0.00    +0.000 A 
ATOM     15  C   UNL     1       4.579   5.656  16.698  0.00  0.00    +0.000 A 
ATOM     16 CL   UNL     1       4.927   7.056  15.805  0.00  0.00    +0.000 Cl
ATOM     17  H   UNL     1       1.153   6.843  21.012  0.00  0.00    +0.000 HD
ENDROOT
BRANCH   8  18
ATOM     18  C   UNL     1       1.828   8.460  19.879  0.00  0.00    +0.000 C 
BRANCH  18  19
ATOM     19  C   UNL     1       0.931   9.308  20.745  0.00  0.00    +0.000 A 
ATOM     20  C   UNL     1       0.636   8.912  22.058  0.00  0.00    +0.000 A 
ATOM     21  C   UNL     1      -0.232   9.668  22.850  0.00  0.00    +0.000 A 
ATOM     22  C   UNL     1      -0.834  10.825  22.339  0.00  0.00    +0.000 A 
ATOM     23  C   UNL     1      -0.492  11.250  21.046  0.00  0.00    +0.000 A 
ATOM     24  C   UNL     1       0.376  10.495  20.255  0.00  0.00    +0.000 A 
BRANCH  22  25
ATOM     25  C   UNL     1      -1.882  11.563  23.132  0.00  0.00    +0.000 C 
BRANCH  25  26
ATOM     26  N   UNL     1      -1.937  12.980  22.830  0.00  0.00    +0.000 N 
ATOM     27  C   UNL     1      -2.893  13.613  22.084  0.00  0.00    +0.000 A 
ATOM     28  C   UNL     1      -2.625  14.954  22.228  0.00  0.00    +0.000 A 
ATOM     29  N   UNL     1      -1.540  15.149  23.044  0.00  0.00    +0.000 NA
ATOM     30  C   UNL     1      -1.149  13.944  23.392  0.00  0.00    +0.000 A 
ENDBRANCH  25  26
ENDBRANCH  22  25
ENDBRANCH  18  19
ENDBRANCH   8  18
TORSDOF 4
ENDMDL
MODEL 2
REMARK VINA RESULT:      -8.6      3.494     10.081
REMARK  Name = 
REMARK  5 active torsions:
REMARK  status: ('A' for Active; 'I' for Inactive)
REMARK    1  A    between atoms: C_1  and  C_2
REMARK    2  A    between atoms: N_8  and  C_9
REMARK    3  A    between atoms: C_9  and  C_10
REMARK    4  A    between atoms: C_13  and  C_14
REMARK    5  A    between atoms: C_14  and  N_15
REMARK                            x       y       z     vdW  Elec       q    Type
REMARK                         _______ _______ _______ _____ _____    ______ ____
ROOT
ATOM      1  C   UNL     1      -3.870  14.027  22.129  0.00  0.00    +0.000 C 
ATOM      2  C   UNL     1      -3.178  13.102  21.199  0.00  0.00    +0.000 A 
ATOM      3  N   UNL     1      -3.734  12.755  20.027  0.00  0.00    +0.000 NA
ATOM      4  N   UNL     1      -2.810  11.933  19.472  0.00  0.00    +0.000 N 
ATOM      5  C   UNL     1      -1.694  11.746  20.253  0.00  0.00    +0.000 A 
ATOM      6  N   UNL     1      -0.650  10.969  19.873  0.00  0.00    +0.000 NA
ATOM      7  C   UNL     1      -0.695  10.357  18.716  0.00  0.00    +0.000 A 
ATOM      8  N   UNL     1       0.399   9.589  18.360  0.00  0.00    +0.000 N 
ATOM      9  C   UNL     1      -1.888  10.499  17.798  0.00  0.00    +0.000 A 
ATOM     10  C   UNL     1      -1.978   9.874  16.552  0.00  0.00    +0.000 A 
ATOM     11  C   UNL     1      -3.115  10.069  15.752  0.00  0.00    +0.000 A 
ATOM     12  C   UNL     1      -4.160  10.888  16.187  0.00  0.00    +0.000 A 
ATOM     13  C   UNL     1      -4.085  11.522  17.425  0.00  0.00    +0.000 A 
ATOM     14  C   UNL     1      -2.951  11.319  18.217  0.00  0.00    +0.000 A 
ATOM     15  C   UNL     1      -1.917  12.492  21.387  0.00  0.00    +0.000 A 
ATOM     16 CL   UNL     1      -0.895  12.669  22.730  0.00  0.00    +0.000 Cl
ATOM     17  H   UNL     1       0.272   8.851  17.684  0.00  0.00    +0.000 HD
ENDROOT
BRANCH   8  18
ATOM     18  C   UNL     1       1.451   9.329  19.338  0.00  0.00    +0.000 C 
BRANCH  18  19
ATOM     19  C   UNL     1       2.210   8.076  18.978  0.00  0.00    +0.000 A 
ATOM     20  C   UNL     1       2.199   6.972  19.842  0.00  0.00    +0.000 A 
ATOM     21  C   UNL     1       2.938   5.825  19.539  0.00  0.00    +0.000 A 
ATOM     22  C   UNL     1       3.715   5.768  18.374  0.00  0.00    +0.000 A 
ATOM     23  C   UNL     1       3.677   6.852  17.484  0.00  0.00    +0.000 A 
ATOM     24  C   UNL     1       2.938   7.997  17.787  0.00  0.00    +0.000 A 
BRANCH  22  25
ATOM     25  C   UNL     1       4.628   4.598  18.114  0.00  0.00    +0.000 C 
BRANCH  25  26
ATOM     26  N   UNL     1       5.561   4.829  17.028  0.00  0.00    +0.000 N 
ATOM     27  C   UNL     1       5.351   4.547  15.706  0.00  0.00    +0.000 A 
ATOM     28  C   UNL     1       6.427   5.099  15.052  0.00  0.00    +0.000 A 
ATOM     29  N   UNL     1       7.276   5.710  15.938  0.00  0.00    +0.000 NA
ATOM     30  C   UNL     1       6.728   5.533  17.120  0.00  0.00    +0.000 A 
ENDBRANCH  25  26
ENDBRANCH  22  25
ENDBRANCH  18  19
ENDBRANCH   8  18
TORSDOF 4
ENDMDL
MODEL 3
REMARK VINA RESULT:      -8.5      2.460      3.136
REMARK  Name = 
REMARK  5 active torsions:
REMARK  status: ('A' for Active; 'I' for Inactive)
REMARK    1  A    between atoms: C_1  and  C_2
REMARK    2  A    between atoms: N_8  and  C_9
REMARK    3  A    between atoms: C_9  and  C_10
REMARK    4  A    between atoms: C_13  and  C_14
REMARK    5  A    between atoms: C_14  and  N_15
REMARK                            x       y       z     vdW  Elec       q    Type
REMARK                         _______ _______ _______ _____ _____    ______ ____
ROOT
ATOM      1  C   UNL     1       6.856   4.549  16.086  0.00  0.00    +0.000 C 
ATOM      2  C   UNL     1       5.697   4.808  16.975  0.00  0.00    +0.000 A 
ATOM      3  N   UNL     1       4.791   3.850  17.227  0.00  0.00    +0.000 NA
ATOM      4  N   UNL     1       3.921   4.455  18.072  0.00  0.00    +0.000 N 
ATOM      5  C   UNL     1       4.243   5.762  18.357  0.00  0.00    +0.000 A 
ATOM      6  N   UNL     1       3.506   6.537  19.191  0.00  0.00    +0.000 NA
ATOM      7  C   UNL     1       2.433   6.036  19.750  0.00  0.00    +0.000 A 
ATOM      8  N   UNL     1       1.722   6.857  20.606  0.00  0.00    +0.000 N 
ATOM      9  C   UNL     1       1.999   4.613  19.483  0.00  0.00    +0.000 A 
ATOM     10  C   UNL     1       0.869   4.032  20.063  0.00  0.00    +0.000 A 
ATOM     11  C   UNL     1       0.542   2.698  19.776  0.00  0.00    +0.000 A 
ATOM     12  C   UNL     1       1.341   1.938  18.917  0.00  0.00    +0.000 A 
ATOM     13  C   UNL     1       2.474   2.500  18.334  0.00  0.00    +0.000 A 
ATOM     14  C   UNL     1       2.790   3.831  18.622  0.00  0.00    +0.000 A 
ATOM     15  C   UNL     1       5.393   6.014  17.646  0.00  0.00    +0.000 A 
ATOM     16 CL   UNL     1       6.282   7.458  17.590  0.00  0.00    +0.000 Cl
ATOM     17  H   UNL     1       0.747   6.654  20.771  0.00  0.00    +0.000 HD
ENDROOT
BRANCH   8  18
ATOM     18  C   UNL     1       2.061   8.273  20.703  0.00  0.00    +0.000 C 
BRANCH  18  19
ATOM     19  C   UNL     1       1.036   9.114  19.986  0.00  0.00    +0.000 A 
ATOM     20  C   UNL     1       1.036   9.187  18.586  0.00  0.00    +0.000 A 
ATOM     21  C   UNL     1       0.120  10.001  17.915  0.00  0.00    +0.000 A 
ATOM     22  C   UNL     1      -0.804  10.770  18.635  0.00  0.00    +0.000 A 
ATOM     23  C   UNL     1      -0.841  10.651  20.032  0.00  0.00    +0.000 A 
ATOM     24  C   UNL     1       0.076   9.837  20.701  0.00  0.00    +0.000 A 
BRANCH  22  25
ATOM     25  C   UNL     1      -1.696  11.760  17.930  0.00  0.00    +0.000 C 
BRANCH  25  26
ATOM     26  N   UNL     1      -3.107  11.542  18.182  0.00  0.00    +0.000 N 
ATOM     27  C   UNL     1      -3.848  12.109  19.182  0.00  0.00    +0.000 A 
ATOM     28  C   UNL     1      -5.147  11.747  18.909  0.00  0.00    +0.000 A 
ATOM     29  N   UNL     1      -5.211  10.985  17.771  0.00  0.00    +0.000 NA
ATOM     30  C   UNL     1      -3.969  10.880  17.354  0.00  0.00    +0.000 A 
ENDBRANCH  25  26
ENDBRANCH  22  25
ENDBRANCH  18  19
ENDBRANCH   8  18
TORSDOF 4
ENDMDL
MODEL 4
REMARK VINA RESULT:      -8.5      3.163      9.627
REMARK  Name = 
REMARK  5 active torsions:
REMARK  status: ('A' for Active; 'I' for Inactive)
REMARK    1  A    between atoms: C_1  and  C_2
REMARK    2  A    between atoms: N_8  and  C_9
REMARK    3  A    between atoms: C_9  and  C_10
REMARK    4  A    between atoms: C_13  and  C_14
REMARK    5  A    between atoms: C_14  and  N_15
REMARK                            x       y       z     vdW  Elec       q    Type
REMARK                         _______ _______ _______ _____ _____    ______ ____
ROOT
ATOM      1  C   UNL     1      -5.680  11.861  16.988  0.00  0.00    +0.000 C 
ATOM      2  C   UNL     1      -4.370  11.684  17.660  0.00  0.00    +0.000 A 
ATOM      3  N   UNL     1      -4.160  12.155  18.900  0.00  0.00    +0.000 NA
ATOM      4  N   UNL     1      -2.881  11.789  19.163  0.00  0.00    +0.000 N 
ATOM      5  C   UNL     1      -2.277  11.108  18.131  0.00  0.00    +0.000 A 
ATOM      6  N   UNL     1      -1.004  10.645  18.200  0.00  0.00    +0.000 NA
ATOM      7  C   UNL     1      -0.304  10.854  19.286  0.00  0.00    +0.000 A 
ATOM      8  N   UNL     1       0.983  10.350  19.319  0.00  0.00    +0.000 N 
ATOM      9  C   UNL     1      -0.886  11.604  20.464  0.00  0.00    +0.000 A 
ATOM     10  C   UNL     1      -0.182  11.843  21.646  0.00  0.00    +0.000 A 
ATOM     11  C   UNL     1      -0.799  12.534  22.700  0.00  0.00    +0.000 A 
ATOM     12  C   UNL     1      -2.119  12.982  22.583  0.00  0.00    +0.000 A 
ATOM     13  C   UNL     1      -2.836  12.747  21.412  0.00  0.00    +0.000 A 
ATOM     14  C   UNL     1      -2.211  12.062  20.365  0.00  0.00    +0.000 A 
ATOM     15  C   UNL     1      -3.227  11.036  17.140  0.00  0.00    +0.000 A 
ATOM     16 CL   UNL     1      -3.081  10.310  15.614  0.00  0.00    +0.000 Cl
ATOM     17  H   UNL     1       1.651  10.770  19.949  0.00  0.00    +0.000 HD
ENDROOT
BRANCH   8  18
ATOM     18  C   UNL     1       1.575   9.792  18.108  0.00  0.00    +0.000 C 
BRANCH  18  19
ATOM     19  C   UNL     1       2.214   8.457  18.396  0.00  0.00    +0.000 A 
ATOM     20  C   UNL     1       1.915   7.773  19.583  0.00  0.00    +0.000 A 
ATOM     21  C   UNL     1       2.538   6.558  19.881  0.00  0.00    +0.000 A 
ATOM     22  C   UNL     1       3.486   6.014  19.004  0.00  0.00    +0.000 A 
ATOM     23  C   UNL     1       3.741   6.671  17.791  0.00  0.00    +0.000 A 
ATOM     24  C   UNL     1       3.117   7.885  17.494  0.00  0.00    +0.000 A 
BRANCH  22  25
ATOM     25  C   UNL     1       4.269   4.784  19.385  0.00  0.00    +0.000 C 
BRANCH  25  26
ATOM     26  N   UNL     1       3.598   3.546  19.037  0.00  0.00    +0.000 N 
ATOM     27  C   UNL     1       2.647   2.904  19.782  0.00  0.00    +0.000 A 
ATOM     28  C   UNL     1       2.188   1.891  18.972  0.00  0.00    +0.000 A 
ATOM     29  N   UNL     1       2.829   1.908  17.761  0.00  0.00    +0.000 NA
ATOM     30  C   UNL     1       3.670   2.915  17.828  0.00  0.00    +0.000 A 
ENDBRANCH  25  26
ENDBRANCH  22  25
ENDBRANCH  18  19
ENDBRANCH   8  18
TORSDOF 4
ENDMDL
MODEL 5
REMARK VINA RESULT:      -8.5      2.889      3.651
REMARK  Name = 
REMARK  5 active torsions:
REMARK  status: ('A' for Active; 'I' for Inactive)
REMARK    1  A    between atoms: C_1  and  C_2
REMARK    2  A    between atoms: N_8  and  C_9
REMARK    3  A    between atoms: C_9  and  C_10
REMARK    4  A    between atoms: C_13  and  C_14
REMARK    5  A    between atoms: C_14  and  N_15
REMARK                            x       y       z     vdW  Elec       q    Type
REMARK                         _______ _______ _______ _____ _____    ______ ____
ROOT
ATOM      1  C   UNL     1       6.601   4.711  15.411  0.00  0.00    +0.000 C 
ATOM      2  C   UNL     1       5.522   4.904  16.410  0.00  0.00    +0.000 A 
ATOM      3  N   UNL     1       4.634   3.929  16.666  0.00  0.00    +0.000 NA
ATOM      4  N   UNL     1       3.841   4.470  17.624  0.00  0.00    +0.000 N 
ATOM      5  C   UNL     1       4.194   5.752  17.977  0.00  0.00    +0.000 A 
ATOM      6  N   UNL     1       3.534   6.463  18.924  0.00  0.00    +0.000 NA
ATOM      7  C   UNL     1       2.509   5.922  19.533  0.00  0.00    +0.000 A 
ATOM      8  N   UNL     1       1.876   6.677  20.504  0.00  0.00    +0.000 N 
ATOM      9  C   UNL     1       2.046   4.522  19.199  0.00  0.00    +0.000 A 
ATOM     10  C   UNL     1       0.965   3.900  19.827  0.00  0.00    +0.000 A 
ATOM     11  C   UNL     1       0.607   2.591  19.471  0.00  0.00    +0.000 A 
ATOM     12  C   UNL     1       1.327   1.896  18.494  0.00  0.00    +0.000 A 
ATOM     13  C   UNL     1       2.410   2.500  17.861  0.00  0.00    +0.000 A 
ATOM     14  C   UNL     1       2.757   3.807  18.219  0.00  0.00    +0.000 A 
ATOM     15  C   UNL     1       5.281   6.056  17.192  0.00  0.00    +0.000 A 
ATOM     16 CL   UNL     1       6.171   7.501  17.168  0.00  0.00    +0.000 Cl
ATOM     17  H   UNL     1       0.918   6.462  20.735  0.00  0.00    +0.000 HD
ENDROOT
BRANCH   8  18
ATOM     18  C   UNL     1       2.231   8.082  20.676  0.00  0.00    +0.000 C 
BRANCH  18  19
ATOM     19  C   UNL     1       1.149   8.973  20.121  0.00  0.00    +0.000 A 
ATOM     20  C   UNL     1       0.148   9.478  20.965  0.00  0.00    +0.000 A 
ATOM     21  C   UNL     1      -0.885  10.266  20.450  0.00  0.00    +0.000 A 
ATOM     22  C   UNL     1      -0.945  10.550  19.079  0.00  0.00    +0.000 A 
ATOM     23  C   UNL     1       0.088  10.092  18.248  0.00  0.00    +0.000 A 
ATOM     24  C   UNL     1       1.120   9.305  18.763  0.00  0.00    +0.000 A 
BRANCH  22  25
ATOM     25  C   UNL     1      -2.132  11.272  18.495  0.00  0.00    +0.000 C 
BRANCH  25  26
ATOM     26  N   UNL     1      -2.486  10.811  17.165  0.00  0.00    +0.000 N 
ATOM     27  C   UNL     1      -2.886   9.548  16.826  0.00  0.00    +0.000 A 
ATOM     28  C   UNL     1      -3.277   9.643  15.510  0.00  0.00    +0.000 A 
ATOM     29  N   UNL     1      -3.130  10.926  15.050  0.00  0.00    +0.000 NA
ATOM     30  C   UNL     1      -2.655  11.607  16.068  0.00  0.00    +0.000 A 
ENDBRANCH  25  26
ENDBRANCH  22  25
ENDBRANCH  18  19
ENDBRANCH   8  18
TORSDOF 4
ENDMDL
MODEL 6
REMARK VINA RESULT:      -8.5      1.016      1.259
REMARK  Name = 
REMARK  5 active torsions:
REMARK  status: ('A' for Active; 'I' for Inactive)
REMARK    1  A    between atoms: C_1  and  C_2
REMARK    2  A    between atoms: N_8  and  C_9
REMARK    3  A    between atoms: C_9  and  C_10
REMARK    4  A    between atoms: C_13  and  C_14
REMARK    5  A    between atoms: C_14  and  N_15
REMARK                            x       y       z     vdW  Elec       q    Type
REMARK                         _______ _______ _______ _____ _____    ______ ____
ROOT
ATOM      1  C   UNL     1       6.380   3.893  15.486  0.00  0.00    +0.000 C 
ATOM      2  C   UNL     1       5.446   4.338  16.549  0.00  0.00    +0.000 A 
ATOM      3  N   UNL     1       5.088   3.512  17.545  0.00  0.00    +0.000 NA
ATOM      4  N   UNL     1       4.260   4.273  18.302  0.00  0.00    +0.000 N 
ATOM      5  C   UNL     1       4.080   5.548  17.816  0.00  0.00    +0.000 A 
ATOM      6  N   UNL     1       3.299   6.469  18.433  0.00  0.00    +0.000 NA
ATOM      7  C   UNL     1       2.676   6.143  19.537  0.00  0.00    +0.000 A 
ATOM      8  N   UNL     1       1.904   7.117  20.143  0.00  0.00    +0.000 N 
ATOM      9  C   UNL     1       2.808   4.760  20.136  0.00  0.00    +0.000 A 
ATOM     10  C   UNL     1       2.171   4.369  21.315  0.00  0.00    +0.000 A 
ATOM     11  C   UNL     1       2.357   3.071  21.814  0.00  0.00    +0.000 A 
ATOM     12  C   UNL     1       3.182   2.161  21.144  0.00  0.00    +0.000 A 
ATOM     13  C   UNL     1       3.828   2.537  19.969  0.00  0.00    +0.000 A 
ATOM     14  C   UNL     1       3.632   3.831  19.477  0.00  0.00    +0.000 A 
ATOM     15  C   UNL     1       4.838   5.608  16.670  0.00  0.00    +0.000 A 
ATOM     16 CL   UNL     1       5.029   6.927  15.620  0.00  0.00    +0.000 Cl
ATOM     17  H   UNL     1       1.159   6.830  20.760  0.00  0.00    +0.000 HD
ENDROOT
BRANCH   8  18
ATOM     18  C   UNL     1       1.653   8.377  19.451  0.00  0.00    +0.000 C 
BRANCH  18  19
ATOM     19  C   UNL     1       0.986   9.366  20.374  0.00  0.00    +0.000 A 
ATOM     20  C   UNL     1       0.249   8.914  21.478  0.00  0.00    +0.000 A 
ATOM     21  C   UNL     1      -0.412   9.821  22.312  0.00  0.00    +0.000 A 
ATOM     22  C   UNL     1      -0.360  11.195  22.046  0.00  0.00    +0.000 A 
ATOM     23  C   UNL     1       0.425  11.648  20.975  0.00  0.00    +0.000 A 
ATOM     24  C   UNL     1       1.085  10.741  20.143  0.00  0.00    +0.000 A 
BRANCH  22  25
ATOM     25  C   UNL     1      -1.188  12.165  22.850  0.00  0.00    +0.000 C 
BRANCH  25  26
ATOM     26  N   UNL     1      -2.469  12.468  22.240  0.00  0.00    +0.000 N 
ATOM     27  C   UNL     1      -2.711  12.638  20.905  0.00  0.00    +0.000 A 
ATOM     28  C   UNL     1      -4.080  12.726  20.801  0.00  0.00    +0.000 A 
ATOM     29  N   UNL     1      -4.669  12.608  22.033  0.00  0.00    +0.000 NA
ATOM     30  C   UNL     1      -3.676  12.452  22.879  0.00  0.00    +0.000 A 
ENDBRANCH  25  26
ENDBRANCH  22  25
ENDBRANCH  18  19
ENDBRANCH   8  18
TORSDOF 4
ENDMDL
MODEL 7
REMARK VINA RESULT:      -8.4      1.416      1.883
REMARK  Name = 
REMARK  5 active torsions:
REMARK  status: ('A' for Active; 'I' for Inactive)
REMARK    1  A    between atoms: C_1  and  C_2
REMARK    2  A    between atoms: N_8  and  C_9
REMARK    3  A    between atoms: C_9  and  C_10
REMARK    4  A    between atoms: C_13  and  C_14
REMARK    5  A    between atoms: C_14  and  N_15
REMARK                            x       y       z     vdW  Elec       q    Type
REMARK                         _______ _______ _______ _____ _____    ______ ____
ROOT
ATOM      1  C   UNL     1       7.896   4.421  17.729  0.00  0.00    +0.000 C 
ATOM      2  C   UNL     1       6.544   4.808  18.200  0.00  0.00    +0.000 A 
ATOM      3  N   UNL     1       5.749   3.921  18.821  0.00  0.00    +0.000 NA
ATOM      4  N   UNL     1       4.636   4.642  19.104  0.00  0.00    +0.000 N 
ATOM      5  C   UNL     1       4.699   5.949  18.680  0.00  0.00    +0.000 A 
ATOM      6  N   UNL     1       3.694   6.837  18.878  0.00  0.00    +0.000 NA
ATOM      7  C   UNL     1       2.605   6.446  19.491  0.00  0.00    +0.000 A 
ATOM      8  N   UNL     1       1.613   7.389  19.686  0.00  0.00    +0.000 N 
ATOM      9  C   UNL     1       2.447   5.024  19.980  0.00  0.00    +0.000 A 
ATOM     10  C   UNL     1       1.309   4.564  20.647  0.00  0.00    +0.000 A 
ATOM     11  C   UNL     1       1.246   3.231  21.084  0.00  0.00    +0.000 A 
ATOM     12  C   UNL     1       2.315   2.358  20.864  0.00  0.00    +0.000 A 
ATOM     13  C   UNL     1       3.458   2.802  20.205  0.00  0.00    +0.000 A 
ATOM     14  C   UNL     1       3.510   4.130  19.769  0.00  0.00    +0.000 A 
ATOM     15  C   UNL     1       5.931   6.075  18.082  0.00  0.00    +0.000 A 
ATOM     16 CL   UNL     1       6.598   7.460  17.363  0.00  0.00    +0.000 Cl
ATOM     17  H   UNL     1       0.664   7.072  19.821  0.00  0.00    +0.000 HD
ENDROOT
BRANCH   8  18
ATOM     18  C   UNL     1       1.719   8.697  19.048  0.00  0.00    +0.000 C 
BRANCH  18  19
ATOM     19  C   UNL     1       1.009   9.746  19.866  0.00  0.00    +0.000 A 
ATOM     20  C   UNL     1       0.912  11.063  19.396  0.00  0.00    +0.000 A 
ATOM     21  C   UNL     1       0.297  12.051  20.169  0.00  0.00    +0.000 A 
ATOM     22  C   UNL     1      -0.219  11.743  21.435  0.00  0.00    +0.000 A 
ATOM     23  C   UNL     1      -0.172  10.413  21.878  0.00  0.00    +0.000 A 
ATOM     24  C   UNL     1       0.442   9.425  21.104  0.00  0.00    +0.000 A 
BRANCH  22  25
ATOM     25  C   UNL     1      -0.750  12.829  22.335  0.00  0.00    +0.000 C 
BRANCH  25  26
ATOM     26  N   UNL     1      -2.186  12.762  22.528  0.00  0.00    +0.000 N 
ATOM     27  C   UNL     1      -3.143  13.041  21.592  0.00  0.00    +0.000 A 
ATOM     28  C   UNL     1      -4.330  12.667  22.178  0.00  0.00    +0.000 A 
ATOM     29  N   UNL     1      -4.116  12.167  23.436  0.00  0.00    +0.000 NA
ATOM     30  C   UNL     1      -2.817  12.235  23.619  0.00  0.00    +0.000 A 
ENDBRANCH  25  26
ENDBRANCH  22  25
ENDBRANCH  18  19
ENDBRANCH   8  18
TORSDOF 4
ENDMDL
MODEL 8
REMARK VINA RESULT:      -8.4      3.244      9.739
REMARK  Name = 
REMARK  5 active torsions:
REMARK  status: ('A' for Active; 'I' for Inactive)
REMARK    1  A    between atoms: C_1  and  C_2
REMARK    2  A    between atoms: N_8  and  C_9
REMARK    3  A    between atoms: C_9  and  C_10
REMARK    4  A    between atoms: C_13  and  C_14
REMARK    5  A    between atoms: C_14  and  N_15
REMARK                            x       y       z     vdW  Elec       q    Type
REMARK                         _______ _______ _______ _____ _____    ______ ____
ROOT
ATOM      1  C   UNL     1      -5.947  12.111  17.090  0.00  0.00    +0.000 C 
ATOM      2  C   UNL     1      -4.643  11.871  17.756  0.00  0.00    +0.000 A 
ATOM      3  N   UNL     1      -4.407  12.326  18.997  0.00  0.00    +0.000 NA
ATOM      4  N   UNL     1      -3.145  11.901  19.252  0.00  0.00    +0.000 N 
ATOM      5  C   UNL     1      -2.576  11.199  18.215  0.00  0.00    +0.000 A 
ATOM      6  N   UNL     1      -1.325  10.679  18.275  0.00  0.00    +0.000 NA
ATOM      7  C   UNL     1      -0.612  10.850  19.360  0.00  0.00    +0.000 A 
ATOM      8  N   UNL     1       0.651  10.288  19.385  0.00  0.00    +0.000 N 
ATOM      9  C   UNL     1      -1.155  11.618  20.544  0.00  0.00    +0.000 A 
ATOM     10  C   UNL     1      -0.437  11.819  21.725  0.00  0.00    +0.000 A 
ATOM     11  C   UNL     1      -1.018  12.531  22.785  0.00  0.00    +0.000 A 
ATOM     12  C   UNL     1      -2.316  13.039  22.676  0.00  0.00    +0.000 A 
ATOM     13  C   UNL     1      -3.048  12.843  21.507  0.00  0.00    +0.000 A 
ATOM     14  C   UNL     1      -2.459  12.137  20.454  0.00  0.00    +0.000 A 
ATOM     15  C   UNL     1      -3.533  11.176  17.227  0.00  0.00    +0.000 A 
ATOM     16 CL   UNL     1      -3.425  10.452  15.696  0.00  0.00    +0.000 Cl
ATOM     17  H   UNL     1       1.339  10.674  20.014  0.00  0.00    +0.000 HD
ENDROOT
BRANCH   8  18
ATOM     18  C   UNL     1       1.213   9.711  18.168  0.00  0.00    +0.000 C 
BRANCH  18  19
ATOM     19  C   UNL     1       2.031   8.486  18.491  0.00  0.00    +0.000 A 
ATOM     20  C   UNL     1       3.010   8.034  17.594  0.00  0.00    +0.000 A 
ATOM     21  C   UNL     1       3.739   6.873  17.864  0.00  0.00    +0.000 A 
ATOM     22  C   UNL     1       3.491   6.134  19.028  0.00  0.00    +0.000 A 
ATOM     23  C   UNL     1       2.553   6.619  19.950  0.00  0.00    +0.000 A 
ATOM     24  C   UNL     1       1.824   7.780  19.680  0.00  0.00    +0.000 A 
BRANCH  22  25
ATOM     25  C   UNL     1       4.167   4.806  19.254  0.00  0.00    +0.000 C 
BRANCH  25  26
ATOM     26  N   UNL     1       3.354   3.673  18.852  0.00  0.00    +0.000 N 
ATOM     27  C   UNL     1       3.405   3.027  17.648  0.00  0.00    +0.000 A 
ATOM     28  C   UNL     1       2.592   1.928  17.802  0.00  0.00    +0.000 A 
ATOM     29  N   UNL     1       2.057   1.891  19.063  0.00  0.00    +0.000 NA
ATOM     30  C   UNL     1       2.535   2.952  19.674  0.00  0.00    +0.000 A 
ENDBRANCH  25  26
ENDBRANCH  22  25
ENDBRANCH  18  19
ENDBRANCH   8  18
TORSDOF 4
ENDMDL
MODEL 9
REMARK VINA RESULT:      -8.4      0.941      1.086
REMARK  Name = 
REMARK  5 active torsions:
REMARK  status: ('A' for Active; 'I' for Inactive)
REMARK    1  A    between atoms: C_1  and  C_2
REMARK    2  A    between atoms: N_8  and  C_9
REMARK    3  A    between atoms: C_9  and  C_10
REMARK    4  A    between atoms: C_13  and  C_14
REMARK    5  A    between atoms: C_14  and  N_15
REMARK                            x       y       z     vdW  Elec       q    Type
REMARK                         _______ _______ _______ _____ _____    ______ ____
ROOT
ATOM      1  C   UNL     1       6.435   3.910  15.418  0.00  0.00    +0.000 C 
ATOM      2  C   UNL     1       5.465   4.432  16.412  0.00  0.00    +0.000 A 
ATOM      3  N   UNL     1       5.047   3.671  17.436  0.00  0.00    +0.000 NA
ATOM      4  N   UNL     1       4.204   4.489  18.112  0.00  0.00    +0.000 N 
ATOM      5  C   UNL     1       4.071   5.737  17.548  0.00  0.00    +0.000 A 
ATOM      6  N   UNL     1       3.284   6.705  18.079  0.00  0.00    +0.000 NA
ATOM      7  C   UNL     1       2.607   6.453  19.171  0.00  0.00    +0.000 A 
ATOM      8  N   UNL     1       1.830   7.475  19.686  0.00  0.00    +0.000 N 
ATOM      9  C   UNL     1       2.685   5.105  19.850  0.00  0.00    +0.000 A 
ATOM     10  C   UNL     1       1.990   4.793  21.021  0.00  0.00    +0.000 A 
ATOM     11  C   UNL     1       2.127   3.522  21.599  0.00  0.00    +0.000 A 
ATOM     12  C   UNL     1       2.961   2.561  21.018  0.00  0.00    +0.000 A 
ATOM     13  C   UNL     1       3.665   2.857  19.853  0.00  0.00    +0.000 A 
ATOM     14  C   UNL     1       3.517   4.125  19.282  0.00  0.00    +0.000 A 
ATOM     15  C   UNL     1       4.879   5.718  16.436  0.00  0.00    +0.000 A 
ATOM     16 CL   UNL     1       5.142   6.972  15.323  0.00  0.00    +0.000 Cl
ATOM     17  H   UNL     1       1.054   7.237  20.285  0.00  0.00    +0.000 HD
ENDROOT
BRANCH   8  18
ATOM     18  C   UNL     1       1.636   8.698  18.914  0.00  0.00    +0.000 C 
BRANCH  18  19
ATOM     19  C   UNL     1       0.786   9.679  19.682  0.00  0.00    +0.000 A 
ATOM     20  C   UNL     1       0.879   9.752  21.080  0.00  0.00    +0.000 A 
ATOM     21  C   UNL     1       0.062  10.625  21.803  0.00  0.00    +0.000 A 
ATOM     22  C   UNL     1      -0.876  11.429  21.142  0.00  0.00    +0.000 A 
ATOM     23  C   UNL     1      -0.927  11.396  19.741  0.00  0.00    +0.000 A 
ATOM     24  C   UNL     1      -0.110  10.524  19.019  0.00  0.00    +0.000 A 
BRANCH  22  25
ATOM     25  C   UNL     1      -1.861  12.262  21.922  0.00  0.00    +0.000 C 
BRANCH  25  26
ATOM     26  N   UNL     1      -1.253  13.404  22.578  0.00  0.00    +0.000 N 
ATOM     27  C   UNL     1      -0.493  14.371  21.980  0.00  0.00    +0.000 A 
ATOM     28  C   UNL     1      -0.298  15.322  22.955  0.00  0.00    +0.000 A 
ATOM     29  N   UNL     1      -0.923  14.959  24.120  0.00  0.00    +0.000 NA
ATOM     30  C   UNL     1      -1.491  13.803  23.863  0.00  0.00    +0.000 A 
ENDBRANCH  25  26
ENDBRANCH  22  25
ENDBRANCH  18  19
ENDBRANCH   8  18
TORSDOF 4
ENDMDL
