MODEL 1
REMARK VINA RESULT:      -6.9      0.000      0.000
REMARK  Name = 
REMARK  13 active torsions:
REMARK  status: ('A' for Active; 'I' for Inactive)
REMARK    1  A    between atoms: C_1  and  C_2
REMARK    2  A    between atoms: C_2  and  O_3
REMARK    3  A    between atoms: O_3  and  C_4
REMARK    4  A    between atoms: C_4  and  C_6
REMARK    5  A    between atoms: C_6  and  N_7
REMARK    6  A    between atoms: N_7  and  C_8
REMARK    7  A    between atoms: C_8  and  C_9
REMARK    8  A    between atoms: C_9  and  C_10
REMARK    9  A    between atoms: C_9  and  C_11
REMARK   10  A    between atoms: C_12  and  C_14
REMARK   11  A    between atoms: C_14  and  C_15
REMARK   12  A    between atoms: C_18  and  C_19
REMARK   13  A    between atoms: C_19  and  C_20
REMARK                            x       y       z     vdW  Elec       q    Type
REMARK                         _______ _______ _______ _____ _____    ______ ____
ROOT
ATOM      1  N   UNL     1       5.977   5.532  16.596  0.00  0.00    +0.000 N 
ATOM      2  C   UNL     1       4.728   4.953  16.782  0.00  0.00    +0.000 C 
ATOM      3  O   UNL     1       4.478   3.817  16.349  0.00  0.00    +0.000 OA
ENDROOT
BRANCH   1   4
ATOM      4  C   UNL     1       6.998   4.711  15.912  0.00  0.00    +0.000 C 
BRANCH   4   5
ATOM      5  C   UNL     1       7.112   4.766  14.386  0.00  0.00    +0.000 C 
ATOM      6  O   UNL     1       7.837   5.572  13.813  0.00  0.00    +0.000 OA
BRANCH   5   7
ATOM      7  O   UNL     1       6.306   3.872  13.753  0.00  0.00    +0.000 OA
BRANCH   7   9
ATOM      8  C   UNL     1       5.662   2.620  11.748  0.00  0.00    +0.000 C 
ATOM      9  C   UNL     1       6.558   3.690  12.351  0.00  0.00    +0.000 C 
ENDBRANCH   7   9
ENDBRANCH   5   7
ENDBRANCH   4   5
ENDBRANCH   1   4
BRANCH   1  10
ATOM     10  C   UNL     1       6.314   6.927  16.928  0.00  0.00    +0.000 C 
BRANCH  10  11
ATOM     11  C   UNL     1       7.718   7.134  17.544  0.00  0.00    +0.000 C 
ATOM     12  C   UNL     1       8.041   8.601  17.829  0.00  0.00    +0.000 C 
ATOM     13  C   UNL     1       7.834   6.350  18.860  0.00  0.00    +0.000 C 
ENDBRANCH  10  11
ENDBRANCH   1  10
BRANCH   2  14
ATOM     14  C   UNL     1       3.651   5.716  17.540  0.00  0.00    +0.000 C 
BRANCH  14  15
ATOM     15  C   UNL     1       2.799   4.814  18.369  0.00  0.00    +0.000 A 
ATOM     16  C   UNL     1       1.583   4.264  18.010  0.00  0.00    +0.000 A 
ATOM     17  S   UNL     1       0.972   3.296  19.283  0.00  0.00    +0.000 S 
ATOM     18  C   UNL     1       2.367   3.662  20.220  0.00  0.00    +0.000 A 
ATOM     19  N   UNL     1       3.248   4.447  19.633  0.00  0.00    +0.000 NA
BRANCH  18  20
ATOM     20  C   UNL     1       2.519   3.100  21.600  0.00  0.00    +0.000 C 
ATOM     21  C   UNL     1       1.275   2.343  22.040  0.00  0.00    +0.000 C 
ENDBRANCH  18  20
ENDBRANCH  14  15
ENDBRANCH   2  14
TORSDOF 9
ENDMDL
MODEL 2
REMARK VINA RESULT:      -6.3      1.583      2.013
REMARK  Name = 
REMARK  13 active torsions:
REMARK  status: ('A' for Active; 'I' for Inactive)
REMARK    1  A    between atoms: C_1  and  C_2
REMARK    2  A    between atoms: C_2  and  O_3
REMARK    3  A    between atoms: O_3  and  C_4
REMARK    4  A    between atoms: C_4  and  C_6
REMARK    5  A    between atoms: C_6  and  N_7
REMARK    6  A    between atoms: N_7  and  C_8
REMARK    7  A    between atoms: C_8  and  C_9
REMARK    8  A    between atoms: C_9  and  C_10
REMARK    9  A    between atoms: C_9  and  C_11
REMARK   10  A    between atoms: C_12  and  C_14
REMARK   11  A    between atoms: C_14  and  C_15
REMARK   12  A    between atoms: C_18  and  C_19
REMARK   13  A    between atoms: C_19  and  C_20
REMARK                            x       y       z     vdW  Elec       q    Type
REMARK                         _______ _______ _______ _____ _____    ______ ____
ROOT
ATOM      1  N   UNL     1       5.507   5.366  16.835  0.00  0.00    +0.000 N 
ATOM      2  C   UNL     1       4.964   4.207  17.375  0.00  0.00    +0.000 C 
ATOM      3  O   UNL     1       4.509   3.311  16.644  0.00  0.00    +0.000 OA
ENDROOT
BRANCH   1   4
ATOM      4  C   UNL     1       5.564   5.453  15.362  0.00  0.00    +0.000 C 
BRANCH   4   5
ATOM      5  C   UNL     1       6.763   4.860  14.616  0.00  0.00    +0.000 C 
ATOM      6  O   UNL     1       7.820   4.601  15.180  0.00  0.00    +0.000 OA
BRANCH   5   7
ATOM      7  O   UNL     1       6.543   4.698  13.284  0.00  0.00    +0.000 OA
BRANCH   7   9
ATOM      8  C   UNL     1       5.054   3.340  11.891  0.00  0.00    +0.000 C 
ATOM      9  C   UNL     1       6.223   3.363  12.862  0.00  0.00    +0.000 C 
ENDBRANCH   7   9
ENDBRANCH   5   7
ENDBRANCH   4   5
ENDBRANCH   1   4
BRANCH   1  10
ATOM     10  C   UNL     1       5.918   6.544  17.619  0.00  0.00    +0.000 C 
BRANCH  10  11
ATOM     11  C   UNL     1       7.446   6.756  17.730  0.00  0.00    +0.000 C 
ATOM     12  C   UNL     1       7.859   8.226  17.642  0.00  0.00    +0.000 C 
ATOM     13  C   UNL     1       7.960   6.190  19.063  0.00  0.00    +0.000 C 
ENDBRANCH  10  11
ENDBRANCH   1  10
BRANCH   2  14
ATOM     14  C   UNL     1       4.937   4.020  18.885  0.00  0.00    +0.000 C 
BRANCH  14  15
ATOM     15  C   UNL     1       3.588   4.292  19.464  0.00  0.00    +0.000 A 
ATOM     16  C   UNL     1       2.575   3.375  19.666  0.00  0.00    +0.000 A 
ATOM     17  S   UNL     1       1.208   4.145  20.352  0.00  0.00    +0.000 S 
ATOM     18  C   UNL     1       2.058   5.640  20.346  0.00  0.00    +0.000 A 
ATOM     19  N   UNL     1       3.287   5.586  19.875  0.00  0.00    +0.000 NA
BRANCH  18  20
ATOM     20  C   UNL     1       1.399   6.886  20.853  0.00  0.00    +0.000 C 
ATOM     21  C   UNL     1       1.744   8.094  19.995  0.00  0.00    +0.000 C 
ENDBRANCH  18  20
ENDBRANCH  14  15
ENDBRANCH   2  14
TORSDOF 9
ENDMDL
MODEL 3
REMARK VINA RESULT:      -6.2      1.473      2.184
REMARK  Name = 
REMARK  13 active torsions:
REMARK  status: ('A' for Active; 'I' for Inactive)
REMARK    1  A    between atoms: C_1  and  C_2
REMARK    2  A    between atoms: C_2  and  O_3
REMARK    3  A    between atoms: O_3  and  C_4
REMARK    4  A    between atoms: C_4  and  C_6
REMARK    5  A    between atoms: C_6  and  N_7
REMARK    6  A    between atoms: N_7  and  C_8
REMARK    7  A    between atoms: C_8  and  C_9
REMARK    8  A    between atoms: C_9  and  C_10
REMARK    9  A    between atoms: C_9  and  C_11
REMARK   10  A    between atoms: C_12  and  C_14
REMARK   11  A    between atoms: C_14  and  C_15
REMARK   12  A    between atoms: C_18  and  C_19
REMARK   13  A    between atoms: C_19  and  C_20
REMARK                            x       y       z     vdW  Elec       q    Type
REMARK                         _______ _______ _______ _____ _____    ______ ____
ROOT
ATOM      1  N   UNL     1       5.894   4.654  16.649  0.00  0.00    +0.000 N 
ATOM      2  C   UNL     1       4.760   4.038  17.163  0.00  0.00    +0.000 C 
ATOM      3  O   UNL     1       3.694   4.023  16.527  0.00  0.00    +0.000 OA
ENDROOT
BRANCH   1   4
ATOM      4  C   UNL     1       5.780   5.237  15.296  0.00  0.00    +0.000 C 
BRANCH   4   5
ATOM      5  C   UNL     1       6.691   4.728  14.176  0.00  0.00    +0.000 C 
ATOM      6  O   UNL     1       7.600   5.408  13.712  0.00  0.00    +0.000 OA
BRANCH   5   7
ATOM      7  O   UNL     1       6.359   3.485  13.734  0.00  0.00    +0.000 OA
BRANCH   7   9
ATOM      8  C   UNL     1       6.939   2.613  11.519  0.00  0.00    +0.000 C 
ATOM      9  C   UNL     1       5.948   3.400  12.361  0.00  0.00    +0.000 C 
ENDBRANCH   7   9
ENDBRANCH   5   7
ENDBRANCH   4   5
ENDBRANCH   1   4
BRANCH   1  10
ATOM     10  C   UNL     1       7.147   4.863  17.394  0.00  0.00    +0.000 C 
BRANCH  10  11
ATOM     11  C   UNL     1       7.135   6.060  18.374  0.00  0.00    +0.000 C 
ATOM     12  C   UNL     1       7.934   5.801  19.653  0.00  0.00    +0.000 C 
ATOM     13  C   UNL     1       7.713   7.307  17.688  0.00  0.00    +0.000 C 
ENDBRANCH  10  11
ENDBRANCH   1  10
BRANCH   2  14
ATOM     14  C   UNL     1       4.825   3.356  18.523  0.00  0.00    +0.000 C 
BRANCH  14  15
ATOM     15  C   UNL     1       3.674   3.728  19.397  0.00  0.00    +0.000 A 
ATOM     16  C   UNL     1       2.859   2.864  20.103  0.00  0.00    +0.000 A 
ATOM     17  S   UNL     1       1.669   3.744  20.965  0.00  0.00    +0.000 S 
ATOM     18  C   UNL     1       2.324   5.211  20.353  0.00  0.00    +0.000 A 
ATOM     19  N   UNL     1       3.369   5.075  19.562  0.00  0.00    +0.000 NA
BRANCH  18  20
ATOM     20  C   UNL     1       1.710   6.526  20.725  0.00  0.00    +0.000 C 
ATOM     21  C   UNL     1       2.052   7.613  19.717  0.00  0.00    +0.000 C 
ENDBRANCH  18  20
ENDBRANCH  14  15
ENDBRANCH   2  14
TORSDOF 9
ENDMDL
MODEL 4
REMARK VINA RESULT:      -6.2      2.436      4.313
REMARK  Name = 
REMARK  13 active torsions:
REMARK  status: ('A' for Active; 'I' for Inactive)
REMARK    1  A    between atoms: C_1  and  C_2
REMARK    2  A    between atoms: C_2  and  O_3
REMARK    3  A    between atoms: O_3  and  C_4
REMARK    4  A    between atoms: C_4  and  C_6
REMARK    5  A    between atoms: C_6  and  N_7
REMARK    6  A    between atoms: N_7  and  C_8
REMARK    7  A    between atoms: C_8  and  C_9
REMARK    8  A    between atoms: C_9  and  C_10
REMARK    9  A    between atoms: C_9  and  C_11
REMARK   10  A    between atoms: C_12  and  C_14
REMARK   11  A    between atoms: C_14  and  C_15
REMARK   12  A    between atoms: C_18  and  C_19
REMARK   13  A    between atoms: C_19  and  C_20
REMARK                            x       y       z     vdW  Elec       q    Type
REMARK                         _______ _______ _______ _____ _____    ______ ____
ROOT
ATOM      1  N   UNL     1       5.451   5.814  17.749  0.00  0.00    +0.000 N 
ATOM      2  C   UNL     1       5.779   4.480  17.543  0.00  0.00    +0.000 C 
ATOM      3  O   UNL     1       6.874   4.025  17.912  0.00  0.00    +0.000 OA
ENDROOT
BRANCH   1   4
ATOM      4  C   UNL     1       6.440   6.641  18.469  0.00  0.00    +0.000 C 
BRANCH   4   5
ATOM      5  C   UNL     1       7.610   7.260  17.700  0.00  0.00    +0.000 C 
ATOM      6  O   UNL     1       7.798   7.041  16.508  0.00  0.00    +0.000 OA
BRANCH   5   7
ATOM      7  O   UNL     1       8.422   8.026  18.477  0.00  0.00    +0.000 OA
BRANCH   7   9
ATOM      8  C   UNL     1       9.374  10.201  19.083  0.00  0.00    +0.000 C 
ATOM      9  C   UNL     1       8.391   9.437  18.210  0.00  0.00    +0.000 C 
ENDBRANCH   7   9
ENDBRANCH   5   7
ENDBRANCH   4   5
ENDBRANCH   1   4
BRANCH   1  10
ATOM     10  C   UNL     1       4.253   6.477  17.205  0.00  0.00    +0.000 C 
BRANCH  10  11
ATOM     11  C   UNL     1       3.411   7.261  18.239  0.00  0.00    +0.000 C 
ATOM     12  C   UNL     1       2.545   8.352  17.609  0.00  0.00    +0.000 C 
ATOM     13  C   UNL     1       2.492   6.298  19.007  0.00  0.00    +0.000 C 
ENDBRANCH  10  11
ENDBRANCH   1  10
BRANCH   2  14
ATOM     14  C   UNL     1       4.778   3.553  16.869  0.00  0.00    +0.000 C 
BRANCH  14  15
ATOM     15  C   UNL     1       3.676   3.146  17.790  0.00  0.00    +0.000 A 
ATOM     16  C   UNL     1       2.390   2.788  17.434  0.00  0.00    +0.000 A 
ATOM     17  S   UNL     1       1.476   2.399  18.828  0.00  0.00    +0.000 S 
ATOM     18  C   UNL     1       2.851   2.721  19.809  0.00  0.00    +0.000 A 
ATOM     19  N   UNL     1       3.935   3.086  19.155  0.00  0.00    +0.000 NA
BRANCH  18  20
ATOM     20  C   UNL     1       2.768   2.580  21.298  0.00  0.00    +0.000 C 
ATOM     21  C   UNL     1       1.338   2.720  21.797  0.00  0.00    +0.000 C 
ENDBRANCH  18  20
ENDBRANCH  14  15
ENDBRANCH   2  14
TORSDOF 9
ENDMDL
MODEL 5
REMARK VINA RESULT:      -6.2      1.228      1.352
REMARK  Name = 
REMARK  13 active torsions:
REMARK  status: ('A' for Active; 'I' for Inactive)
REMARK    1  A    between atoms: C_1  and  C_2
REMARK    2  A    between atoms: C_2  and  O_3
REMARK    3  A    between atoms: O_3  and  C_4
REMARK    4  A    between atoms: C_4  and  C_6
REMARK    5  A    between atoms: C_6  and  N_7
REMARK    6  A    between atoms: N_7  and  C_8
REMARK    7  A    between atoms: C_8  and  C_9
REMARK    8  A    between atoms: C_9  and  C_10
REMARK    9  A    between atoms: C_9  and  C_11
REMARK   10  A    between atoms: C_12  and  C_14
REMARK   11  A    between atoms: C_14  and  C_15
REMARK   12  A    between atoms: C_18  and  C_19
REMARK   13  A    between atoms: C_19  and  C_20
REMARK                            x       y       z     vdW  Elec       q    Type
REMARK                         _______ _______ _______ _____ _____    ______ ____
ROOT
ATOM      1  N   UNL     1       5.688   5.615  16.629  0.00  0.00    +0.000 N 
ATOM      2  C   UNL     1       5.270   4.474  17.301  0.00  0.00    +0.000 C 
ATOM      3  O   UNL     1       4.887   3.469  16.680  0.00  0.00    +0.000 OA
ENDROOT
BRANCH   1   4
ATOM      4  C   UNL     1       5.705   5.552  15.153  0.00  0.00    +0.000 C 
BRANCH   4   5
ATOM      5  C   UNL     1       6.890   4.897  14.439  0.00  0.00    +0.000 C 
ATOM      6  O   UNL     1       7.973   4.726  14.990  0.00  0.00    +0.000 OA
BRANCH   5   7
ATOM      7  O   UNL     1       6.629   4.574  13.144  0.00  0.00    +0.000 OA
BRANCH   7   9
ATOM      8  C   UNL     1       5.947   2.652  11.787  0.00  0.00    +0.000 C 
ATOM      9  C   UNL     1       5.612   3.580  12.943  0.00  0.00    +0.000 C 
ENDBRANCH   7   9
ENDBRANCH   5   7
ENDBRANCH   4   5
ENDBRANCH   1   4
BRANCH   1  10
ATOM     10  C   UNL     1       6.002   6.902  17.275  0.00  0.00    +0.000 C 
BRANCH  10  11
ATOM     11  C   UNL     1       7.509   7.177  17.489  0.00  0.00    +0.000 C 
ATOM     12  C   UNL     1       7.839   8.666  17.605  0.00  0.00    +0.000 C 
ATOM     13  C   UNL     1       7.996   6.474  18.765  0.00  0.00    +0.000 C 
ENDBRANCH  10  11
ENDBRANCH   1  10
BRANCH   2  14
ATOM     14  C   UNL     1       5.293   4.445  18.823  0.00  0.00    +0.000 C 
BRANCH  14  15
ATOM     15  C   UNL     1       3.954   4.735  19.414  0.00  0.00    +0.000 A 
ATOM     16  C   UNL     1       3.379   5.979  19.588  0.00  0.00    +0.000 A 
ATOM     17  S   UNL     1       1.833   5.822  20.307  0.00  0.00    +0.000 S 
ATOM     18  C   UNL     1       2.026   4.114  20.327  0.00  0.00    +0.000 A 
ATOM     19  N   UNL     1       3.160   3.669  19.825  0.00  0.00    +0.000 NA
BRANCH  18  20
ATOM     20  C   UNL     1       0.948   3.238  20.888  0.00  0.00    +0.000 C 
ATOM     21  C   UNL     1       1.472   2.341  21.999  0.00  0.00    +0.000 C 
ENDBRANCH  18  20
ENDBRANCH  14  15
ENDBRANCH   2  14
TORSDOF 9
ENDMDL
MODEL 6
REMARK VINA RESULT:      -6.2      3.387      5.700
REMARK  Name = 
REMARK  13 active torsions:
REMARK  status: ('A' for Active; 'I' for Inactive)
REMARK    1  A    between atoms: C_1  and  C_2
REMARK    2  A    between atoms: C_2  and  O_3
REMARK    3  A    between atoms: O_3  and  C_4
REMARK    4  A    between atoms: C_4  and  C_6
REMARK    5  A    between atoms: C_6  and  N_7
REMARK    6  A    between atoms: N_7  and  C_8
REMARK    7  A    between atoms: C_8  and  C_9
REMARK    8  A    between atoms: C_9  and  C_10
REMARK    9  A    between atoms: C_9  and  C_11
REMARK   10  A    between atoms: C_12  and  C_14
REMARK   11  A    between atoms: C_14  and  C_15
REMARK   12  A    between atoms: C_18  and  C_19
REMARK   13  A    between atoms: C_19  and  C_20
REMARK                            x       y       z     vdW  Elec       q    Type
REMARK                         _______ _______ _______ _____ _____    ______ ____
ROOT
ATOM      1  N   UNL     1       4.320   4.589  18.353  0.00  0.00    +0.000 N 
ATOM      2  C   UNL     1       3.297   5.397  17.875  0.00  0.00    +0.000 C 
ATOM      3  O   UNL     1       2.206   4.914  17.530  0.00  0.00    +0.000 OA
ENDROOT
BRANCH   1   4
ATOM      4  C   UNL     1       4.027   3.147  18.479  0.00  0.00    +0.000 C 
BRANCH   4   5
ATOM      5  C   UNL     1       4.028   2.495  19.864  0.00  0.00    +0.000 C 
ATOM      6  O   UNL     1       5.065   2.180  20.438  0.00  0.00    +0.000 OA
BRANCH   5   7
ATOM      7  O   UNL     1       2.780   2.270  20.356  0.00  0.00    +0.000 OA
BRANCH   7   9
ATOM      8  C   UNL     1       1.123   4.045  20.681  0.00  0.00    +0.000 C 
ATOM      9  C   UNL     1       2.283   3.259  21.271  0.00  0.00    +0.000 C 
ENDBRANCH   7   9
ENDBRANCH   5   7
ENDBRANCH   4   5
ENDBRANCH   1   4
BRANCH   1  10
ATOM     10  C   UNL     1       5.693   5.048  18.630  0.00  0.00    +0.000 C 
BRANCH  10  11
ATOM     11  C   UNL     1       6.431   5.672  17.422  0.00  0.00    +0.000 C 
ATOM     12  C   UNL     1       7.466   6.724  17.826  0.00  0.00    +0.000 C 
ATOM     13  C   UNL     1       7.147   4.574  16.620  0.00  0.00    +0.000 C 
ENDBRANCH  10  11
ENDBRANCH   1  10
BRANCH   2  14
ATOM     14  C   UNL     1       3.506   6.903  17.784  0.00  0.00    +0.000 C 
BRANCH  14  15
ATOM     15  C   UNL     1       2.566   7.657  18.664  0.00  0.00    +0.000 A 
ATOM     16  C   UNL     1       2.210   7.338  19.960  0.00  0.00    +0.000 A 
ATOM     17  S   UNL     1       1.102   8.492  20.571  0.00  0.00    +0.000 S 
ATOM     18  C   UNL     1       1.180   9.343  19.079  0.00  0.00    +0.000 A 
ATOM     19  N   UNL     1       1.983   8.821  18.174  0.00  0.00    +0.000 NA
BRANCH  18  20
ATOM     20  C   UNL     1       0.370  10.587  18.876  0.00  0.00    +0.000 C 
ATOM     21  C   UNL     1      -1.121  10.314  18.997  0.00  0.00    +0.000 C 
ENDBRANCH  18  20
ENDBRANCH  14  15
ENDBRANCH   2  14
TORSDOF 9
ENDMDL
MODEL 7
REMARK VINA RESULT:      -6.1      3.150      4.756
REMARK  Name = 
REMARK  13 active torsions:
REMARK  status: ('A' for Active; 'I' for Inactive)
REMARK    1  A    between atoms: C_1  and  C_2
REMARK    2  A    between atoms: C_2  and  O_3
REMARK    3  A    between atoms: O_3  and  C_4
REMARK    4  A    between atoms: C_4  and  C_6
REMARK    5  A    between atoms: C_6  and  N_7
REMARK    6  A    between atoms: N_7  and  C_8
REMARK    7  A    between atoms: C_8  and  C_9
REMARK    8  A    between atoms: C_9  and  C_10
REMARK    9  A    between atoms: C_9  and  C_11
REMARK   10  A    between atoms: C_12  and  C_14
REMARK   11  A    between atoms: C_14  and  C_15
REMARK   12  A    between atoms: C_18  and  C_19
REMARK   13  A    between atoms: C_19  and  C_20
REMARK                            x       y       z     vdW  Elec       q    Type
REMARK                         _______ _______ _______ _____ _____    ______ ____
ROOT
ATOM      1  N   UNL     1       3.888   4.353  17.999  0.00  0.00    +0.000 N 
ATOM      2  C   UNL     1       4.014   5.096  19.166  0.00  0.00    +0.000 C 
ATOM      3  O   UNL     1       5.130   5.369  19.635  0.00  0.00    +0.000 OA
ENDROOT
BRANCH   1   4
ATOM      4  C   UNL     1       5.141   3.957  17.323  0.00  0.00    +0.000 C 
BRANCH   4   5
ATOM      5  C   UNL     1       5.531   4.629  16.004  0.00  0.00    +0.000 C 
ATOM      6  O   UNL     1       5.186   5.772  15.725  0.00  0.00    +0.000 OA
BRANCH   5   7
ATOM      7  O   UNL     1       6.249   3.821  15.178  0.00  0.00    +0.000 OA
BRANCH   7   9
ATOM      8  C   UNL     1       6.009   3.513  12.760  0.00  0.00    +0.000 C 
ATOM      9  C   UNL     1       6.563   4.368  13.888  0.00  0.00    +0.000 C 
ENDBRANCH   7   9
ENDBRANCH   5   7
ENDBRANCH   4   5
ENDBRANCH   1   4
BRANCH   1  10
ATOM     10  C   UNL     1       2.615   3.845  17.461  0.00  0.00    +0.000 C 
BRANCH  10  11
ATOM     11  C   UNL     1       2.249   2.405  17.893  0.00  0.00    +0.000 C 
ATOM     12  C   UNL     1       3.384   1.689  18.627  0.00  0.00    +0.000 C 
ATOM     13  C   UNL     1       1.019   2.429  18.814  0.00  0.00    +0.000 C 
ENDBRANCH  10  11
ENDBRANCH   1  10
BRANCH   2  14
ATOM     14  C   UNL     1       2.765   5.596  19.878  0.00  0.00    +0.000 C 
BRANCH  14  15
ATOM     15  C   UNL     1       2.358   6.956  19.416  0.00  0.00    +0.000 A 
ATOM     16  C   UNL     1       2.568   7.501  18.164  0.00  0.00    +0.000 A 
ATOM     17  S   UNL     1       1.932   9.090  18.096  0.00  0.00    +0.000 S 
ATOM     18  C   UNL     1       1.410   8.942  19.728  0.00  0.00    +0.000 A 
ATOM     19  N   UNL     1       1.676   7.785  20.301  0.00  0.00    +0.000 NA
BRANCH  18  20
ATOM     20  C   UNL     1       0.707  10.079  20.402  0.00  0.00    +0.000 C 
ATOM     21  C   UNL     1      -0.183   9.596  21.538  0.00  0.00    +0.000 C 
ENDBRANCH  18  20
ENDBRANCH  14  15
ENDBRANCH   2  14
TORSDOF 9
ENDMDL
MODEL 8
REMARK VINA RESULT:      -6.1      3.191      5.152
REMARK  Name = 
REMARK  13 active torsions:
REMARK  status: ('A' for Active; 'I' for Inactive)
REMARK    1  A    between atoms: C_1  and  C_2
REMARK    2  A    between atoms: C_2  and  O_3
REMARK    3  A    between atoms: O_3  and  C_4
REMARK    4  A    between atoms: C_4  and  C_6
REMARK    5  A    between atoms: C_6  and  N_7
REMARK    6  A    between atoms: N_7  and  C_8
REMARK    7  A    between atoms: C_8  and  C_9
REMARK    8  A    between atoms: C_9  and  C_10
REMARK    9  A    between atoms: C_9  and  C_11
REMARK   10  A    between atoms: C_12  and  C_14
REMARK   11  A    between atoms: C_14  and  C_15
REMARK   12  A    between atoms: C_18  and  C_19
REMARK   13  A    between atoms: C_19  and  C_20
REMARK                            x       y       z     vdW  Elec       q    Type
REMARK                         _______ _______ _______ _____ _____    ______ ____
ROOT
ATOM      1  N   UNL     1       3.887   4.486  17.974  0.00  0.00    +0.000 N 
ATOM      2  C   UNL     1       4.030   5.120  19.201  0.00  0.00    +0.000 C 
ATOM      3  O   UNL     1       5.152   5.413  19.645  0.00  0.00    +0.000 OA
ENDROOT
BRANCH   1   4
ATOM      4  C   UNL     1       5.124   4.230  17.207  0.00  0.00    +0.000 C 
BRANCH   4   5
ATOM      5  C   UNL     1       5.550   5.212  16.113  0.00  0.00    +0.000 C 
ATOM      6  O   UNL     1       5.556   4.905  14.925  0.00  0.00    +0.000 OA
BRANCH   5   7
ATOM      7  O   UNL     1       5.953   6.417  16.596  0.00  0.00    +0.000 OA
BRANCH   7   9
ATOM      8  C   UNL     1       7.689   7.854  17.558  0.00  0.00    +0.000 C 
ATOM      9  C   UNL     1       7.248   6.440  17.217  0.00  0.00    +0.000 C 
ENDBRANCH   7   9
ENDBRANCH   5   7
ENDBRANCH   4   5
ENDBRANCH   1   4
BRANCH   1  10
ATOM     10  C   UNL     1       2.618   3.957  17.445  0.00  0.00    +0.000 C 
BRANCH  10  11
ATOM     11  C   UNL     1       2.310   2.489  17.825  0.00  0.00    +0.000 C 
ATOM     12  C   UNL     1       3.467   1.799  18.551  0.00  0.00    +0.000 C 
ATOM     13  C   UNL     1       1.070   2.430  18.730  0.00  0.00    +0.000 C 
ENDBRANCH  10  11
ENDBRANCH   1  10
BRANCH   2  14
ATOM     14  C   UNL     1       2.793   5.477  20.013  0.00  0.00    +0.000 C 
BRANCH  14  15
ATOM     15  C   UNL     1       2.294   6.849  19.708  0.00  0.00    +0.000 A 
ATOM     16  C   UNL     1       2.456   7.545  18.525  0.00  0.00    +0.000 A 
ATOM     17  S   UNL     1       1.716   9.085  18.636  0.00  0.00    +0.000 S 
ATOM     18  C   UNL     1       1.219   8.720  20.242  0.00  0.00    +0.000 A 
ATOM     19  N   UNL     1       1.566   7.527  20.681  0.00  0.00    +0.000 NA
BRANCH  18  20
ATOM     20  C   UNL     1       0.448   9.725  21.041  0.00  0.00    +0.000 C 
ATOM     21  C   UNL     1       0.315   9.304  22.497  0.00  0.00    +0.000 C 
ENDBRANCH  18  20
ENDBRANCH  14  15
ENDBRANCH   2  14
TORSDOF 9
ENDMDL
MODEL 9
REMARK VINA RESULT:      -6.1      3.513      5.493
REMARK  Name = 
REMARK  13 active torsions:
REMARK  status: ('A' for Active; 'I' for Inactive)
REMARK    1  A    between atoms: C_1  and  C_2
REMARK    2  A    between atoms: C_2  and  O_3
REMARK    3  A    between atoms: O_3  and  C_4
REMARK    4  A    between atoms: C_4  and  C_6
REMARK    5  A    between atoms: C_6  and  N_7
REMARK    6  A    between atoms: N_7  and  C_8
REMARK    7  A    between atoms: C_8  and  C_9
REMARK    8  A    between atoms: C_9  and  C_10
REMARK    9  A    between atoms: C_9  and  C_11
REMARK   10  A    between atoms: C_12  and  C_14
REMARK   11  A    between atoms: C_14  and  C_15
REMARK   12  A    between atoms: C_18  and  C_19
REMARK   13  A    between atoms: C_19  and  C_20
REMARK                            x       y       z     vdW  Elec       q    Type
REMARK                         _______ _______ _______ _____ _____    ______ ____
ROOT
ATOM      1  N   UNL     1       3.883   5.201  17.513  0.00  0.00    +0.000 N 
ATOM      2  C   UNL     1       2.890   6.067  17.951  0.00  0.00    +0.000 C 
ATOM      3  O   UNL     1       1.846   5.637  18.466  0.00  0.00    +0.000 OA
ENDROOT
BRANCH   1   4
ATOM      4  C   UNL     1       3.658   3.758  17.739  0.00  0.00    +0.000 C 
BRANCH   4   5
ATOM      5  C   UNL     1       4.163   3.108  19.030  0.00  0.00    +0.000 C 
ATOM      6  O   UNL     1       5.220   3.438  19.557  0.00  0.00    +0.000 OA
BRANCH   5   7
ATOM      7  O   UNL     1       3.351   2.119  19.490  0.00  0.00    +0.000 OA
BRANCH   7   9
ATOM      8  C   UNL     1       2.194   2.888  21.507  0.00  0.00    +0.000 C 
ATOM      9  C   UNL     1       2.091   2.547  20.030  0.00  0.00    +0.000 C 
ENDBRANCH   7   9
ENDBRANCH   5   7
ENDBRANCH   4   5
ENDBRANCH   1   4
BRANCH   1  10
ATOM     10  C   UNL     1       5.074   5.607  16.747  0.00  0.00    +0.000 C 
BRANCH  10  11
ATOM     11  C   UNL     1       5.923   4.441  16.188  0.00  0.00    +0.000 C 
ATOM     12  C   UNL     1       6.026   4.448  14.662  0.00  0.00    +0.000 C 
ATOM     13  C   UNL     1       7.345   4.500  16.768  0.00  0.00    +0.000 C 
ENDBRANCH  10  11
ENDBRANCH   1  10
BRANCH   2  14
ATOM     14  C   UNL     1       3.088   7.570  17.812  0.00  0.00    +0.000 C 
BRANCH  14  15
ATOM     15  C   UNL     1       2.106   8.346  18.625  0.00  0.00    +0.000 A 
ATOM     16  C   UNL     1       1.251   9.331  18.171  0.00  0.00    +0.000 A 
ATOM     17  S   UNL     1       0.309   9.942  19.464  0.00  0.00    +0.000 S 
ATOM     18  C   UNL     1       1.091   8.849  20.537  0.00  0.00    +0.000 A 
ATOM     19  N   UNL     1       1.993   8.064  19.983  0.00  0.00    +0.000 NA
BRANCH  18  20
ATOM     20  C   UNL     1       0.733   8.832  21.992  0.00  0.00    +0.000 C 
ATOM     21  C   UNL     1      -0.202   9.976  22.355  0.00  0.00    +0.000 C 
ENDBRANCH  18  20
ENDBRANCH  14  15
ENDBRANCH   2  14
TORSDOF 9
ENDMDL
