MODEL 1
REMARK VINA RESULT:      -5.1      0.000      0.000
REMARK  Name = 
REMARK  8 active torsions:
REMARK  status: ('A' for Active; 'I' for Inactive)
REMARK    1  A    between atoms: C_2  and  C_3
REMARK    2  A    between atoms: C_3  and  S_4
REMARK    3  A    between atoms: S_4  and  S_5
REMARK    4  A    between atoms: S_5  and  C_6
REMARK    5  A    between atoms: C_7  and  C_8
REMARK    6  A    between atoms: C_8  and  S_9
REMARK    7  A    between atoms: S_9  and  C_11
REMARK    8  A    between atoms: C_11  and  C_12
REMARK                            x       y       z     vdW  Elec       q    Type
REMARK                         _______ _______ _______ _____ _____    ______ ____
ROOT
ATOM      1  C   UNL     1       4.866   3.834  18.875  0.00  0.00    +0.000 C 
ATOM      2  C   UNL     1       4.512   4.373  17.701  0.00  0.00    +0.000 C 
ENDROOT
BRANCH   1   3
ATOM      3  S   UNL     1       4.040   2.482  19.570  0.00  0.00    +0.000 S 
BRANCH   3   4
ATOM      4  S   UNL     1       2.785   2.048  17.994  0.00  0.00    +0.000 S 
BRANCH   4   5
ATOM      5  C   UNL     1       1.179   2.600  18.640  0.00  0.00    +0.000 C 
BRANCH   5   7
ATOM      6  C   UNL     1       1.018   4.291  20.484  0.00  0.00    +0.000 C 
ATOM      7  C   UNL     1       1.325   3.057  20.059  0.00  0.00    +0.000 C 
ENDBRANCH   5   7
ENDBRANCH   4   5
ENDBRANCH   3   4
ENDBRANCH   1   3
BRANCH   2   8
ATOM      8  C   UNL     1       5.235   5.508  17.045  0.00  0.00    +0.000 C 
BRANCH   8   9
ATOM      9  S   UNL     1       7.021   5.133  16.961  0.00  0.00    +0.000 S 
ATOM     10  O   UNL     1       7.541   5.579  15.542  0.00  0.00    +0.000 OA
BRANCH   9  11
ATOM     11  C   UNL     1       7.541   6.407  18.161  0.00  0.00    +0.000 C 
BRANCH  11  12
ATOM     12  C   UNL     1       7.591   7.746  17.489  0.00  0.00    +0.000 C 
ATOM     13  C   UNL     1       8.208   8.831  17.974  0.00  0.00    +0.000 C 
ENDBRANCH  11  12
ENDBRANCH   9  11
ENDBRANCH   8   9
ENDBRANCH   2   8
TORSDOF 8
ENDMDL
MODEL 2
REMARK VINA RESULT:      -5.0      1.533      1.691
REMARK  Name = 
REMARK  8 active torsions:
REMARK  status: ('A' for Active; 'I' for Inactive)
REMARK    1  A    between atoms: C_2  and  C_3
REMARK    2  A    between atoms: C_3  and  S_4
REMARK    3  A    between atoms: S_4  and  S_5
REMARK    4  A    between atoms: S_5  and  C_6
REMARK    5  A    between atoms: C_7  and  C_8
REMARK    6  A    between atoms: C_8  and  S_9
REMARK    7  A    between atoms: S_9  and  C_11
REMARK    8  A    between atoms: C_11  and  C_12
REMARK                            x       y       z     vdW  Elec       q    Type
REMARK                         _______ _______ _______ _____ _____    ______ ____
ROOT
ATOM      1  C   UNL     1       3.563   6.414  18.075  0.00  0.00    +0.000 C 
ATOM      2  C   UNL     1       4.236   5.689  17.171  0.00  0.00    +0.000 C 
ENDROOT
BRANCH   1   3
ATOM      3  S   UNL     1       2.417   5.715  19.167  0.00  0.00    +0.000 S 
BRANCH   3   4
ATOM      4  S   UNL     1       1.677   4.241  17.931  0.00  0.00    +0.000 S 
BRANCH   4   5
ATOM      5  C   UNL     1       1.069   3.024  19.135  0.00  0.00    +0.000 C 
BRANCH   5   7
ATOM      6  C   UNL     1       1.594   2.821  21.578  0.00  0.00    +0.000 C 
ATOM      7  C   UNL     1       1.212   3.560  20.526  0.00  0.00    +0.000 C 
ENDBRANCH   5   7
ENDBRANCH   4   5
ENDBRANCH   3   4
ENDBRANCH   1   3
BRANCH   2   8
ATOM      8  C   UNL     1       5.271   6.250  16.247  0.00  0.00    +0.000 C 
BRANCH   8   9
ATOM      9  S   UNL     1       6.799   5.253  16.358  0.00  0.00    +0.000 S 
ATOM     10  O   UNL     1       7.661   5.549  15.073  0.00  0.00    +0.000 OA
BRANCH   9  11
ATOM     11  C   UNL     1       7.537   6.187  17.742  0.00  0.00    +0.000 C 
BRANCH  11  12
ATOM     12  C   UNL     1       7.367   7.658  17.508  0.00  0.00    +0.000 C 
ATOM     13  C   UNL     1       8.197   8.611  17.951  0.00  0.00    +0.000 C 
ENDBRANCH  11  12
ENDBRANCH   9  11
ENDBRANCH   8   9
ENDBRANCH   2   8
TORSDOF 8
ENDMDL
MODEL 3
REMARK VINA RESULT:      -4.8      2.754      3.534
REMARK  Name = 
REMARK  8 active torsions:
REMARK  status: ('A' for Active; 'I' for Inactive)
REMARK    1  A    between atoms: C_2  and  C_3
REMARK    2  A    between atoms: C_3  and  S_4
REMARK    3  A    between atoms: S_4  and  S_5
REMARK    4  A    between atoms: S_5  and  C_6
REMARK    5  A    between atoms: C_7  and  C_8
REMARK    6  A    between atoms: C_8  and  S_9
REMARK    7  A    between atoms: S_9  and  C_11
REMARK    8  A    between atoms: C_11  and  C_12
REMARK                            x       y       z     vdW  Elec       q    Type
REMARK                         _______ _______ _______ _____ _____    ______ ____
ROOT
ATOM      1  C   UNL     1       4.000   5.318  17.979  0.00  0.00    +0.000 C 
ATOM      2  C   UNL     1       4.068   4.491  16.927  0.00  0.00    +0.000 C 
ENDROOT
BRANCH   1   3
ATOM      3  S   UNL     1       2.512   6.002  18.537  0.00  0.00    +0.000 S 
BRANCH   3   4
ATOM      4  S   UNL     1       2.523   5.237  20.451  0.00  0.00    +0.000 S 
BRANCH   4   5
ATOM      5  C   UNL     1       1.052   4.172  20.428  0.00  0.00    +0.000 C 
BRANCH   5   7
ATOM      6  C   UNL     1       0.816   2.399  18.672  0.00  0.00    +0.000 C 
ATOM      7  C   UNL     1       1.380   2.853  19.799  0.00  0.00    +0.000 C 
ENDBRANCH   5   7
ENDBRANCH   4   5
ENDBRANCH   3   4
ENDBRANCH   1   3
BRANCH   2   8
ATOM      8  C   UNL     1       5.328   3.841  16.448  0.00  0.00    +0.000 C 
BRANCH   8   9
ATOM      9  S   UNL     1       6.664   5.084  16.357  0.00  0.00    +0.000 S 
ATOM     10  O   UNL     1       7.863   4.566  17.240  0.00  0.00    +0.000 OA
BRANCH   9  11
ATOM     11  C   UNL     1       7.095   4.775  14.610  0.00  0.00    +0.000 C 
BRANCH  11  12
ATOM     12  C   UNL     1       5.989   4.014  13.943  0.00  0.00    +0.000 C 
ATOM     13  C   UNL     1       6.040   3.506  12.705  0.00  0.00    +0.000 C 
ENDBRANCH  11  12
ENDBRANCH   9  11
ENDBRANCH   8   9
ENDBRANCH   2   8
TORSDOF 8
ENDMDL
MODEL 4
REMARK VINA RESULT:      -4.8      1.622      1.938
REMARK  Name = 
REMARK  8 active torsions:
REMARK  status: ('A' for Active; 'I' for Inactive)
REMARK    1  A    between atoms: C_2  and  C_3
REMARK    2  A    between atoms: C_3  and  S_4
REMARK    3  A    between atoms: S_4  and  S_5
REMARK    4  A    between atoms: S_5  and  C_6
REMARK    5  A    between atoms: C_7  and  C_8
REMARK    6  A    between atoms: C_8  and  S_9
REMARK    7  A    between atoms: S_9  and  C_11
REMARK    8  A    between atoms: C_11  and  C_12
REMARK                            x       y       z     vdW  Elec       q    Type
REMARK                         _______ _______ _______ _____ _____    ______ ____
ROOT
ATOM      1  C   UNL     1       3.787   5.874  18.507  0.00  0.00    +0.000 C 
ATOM      2  C   UNL     1       4.251   5.301  17.388  0.00  0.00    +0.000 C 
ENDROOT
BRANCH   1   3
ATOM      3  S   UNL     1       2.316   5.379  19.271  0.00  0.00    +0.000 S 
BRANCH   3   4
ATOM      4  S   UNL     1       1.681   4.020  17.858  0.00  0.00    +0.000 S 
BRANCH   4   5
ATOM      5  C   UNL     1       1.873   2.448  18.748  0.00  0.00    +0.000 C 
BRANCH   5   7
ATOM      6  C   UNL     1       4.184   2.213  19.691  0.00  0.00    +0.000 C 
ATOM      7  C   UNL     1       3.302   2.002  18.704  0.00  0.00    +0.000 C 
ENDBRANCH   5   7
ENDBRANCH   4   5
ENDBRANCH   3   4
ENDBRANCH   1   3
BRANCH   2   8
ATOM      8  C   UNL     1       5.543   5.668  16.728  0.00  0.00    +0.000 C 
BRANCH   8   9
ATOM      9  S   UNL     1       6.926   4.829  17.577  0.00  0.00    +0.000 S 
ATOM     10  O   UNL     1       7.992   4.433  16.486  0.00  0.00    +0.000 OA
BRANCH   9  11
ATOM     11  C   UNL     1       7.549   6.313  18.440  0.00  0.00    +0.000 C 
BRANCH  11  12
ATOM     12  C   UNL     1       7.730   7.431  17.458  0.00  0.00    +0.000 C 
ATOM     13  C   UNL     1       8.054   8.691  17.775  0.00  0.00    +0.000 C 
ENDBRANCH  11  12
ENDBRANCH   9  11
ENDBRANCH   8   9
ENDBRANCH   2   8
TORSDOF 8
ENDMDL
MODEL 5
REMARK VINA RESULT:      -4.7      1.728      2.033
REMARK  Name = 
REMARK  8 active torsions:
REMARK  status: ('A' for Active; 'I' for Inactive)
REMARK    1  A    between atoms: C_2  and  C_3
REMARK    2  A    between atoms: C_3  and  S_4
REMARK    3  A    between atoms: S_4  and  S_5
REMARK    4  A    between atoms: S_5  and  C_6
REMARK    5  A    between atoms: C_7  and  C_8
REMARK    6  A    between atoms: C_8  and  S_9
REMARK    7  A    between atoms: S_9  and  C_11
REMARK    8  A    between atoms: C_11  and  C_12
REMARK                            x       y       z     vdW  Elec       q    Type
REMARK                         _______ _______ _______ _____ _____    ______ ____
ROOT
ATOM      1  C   UNL     1       3.416   4.846  17.942  0.00  0.00    +0.000 C 
ATOM      2  C   UNL     1       4.413   5.211  17.124  0.00  0.00    +0.000 C 
ENDROOT
BRANCH   1   3
ATOM      3  S   UNL     1       2.328   5.986  18.657  0.00  0.00    +0.000 S 
BRANCH   3   4
ATOM      4  S   UNL     1       2.173   5.129  20.525  0.00  0.00    +0.000 S 
BRANCH   4   5
ATOM      5  C   UNL     1       2.640   3.408  20.180  0.00  0.00    +0.000 C 
BRANCH   5   7
ATOM      6  C   UNL     1       0.793   2.377  18.835  0.00  0.00    +0.000 C 
ATOM      7  C   UNL     1       1.413   2.567  20.008  0.00  0.00    +0.000 C 
ENDBRANCH   5   7
ENDBRANCH   4   5
ENDBRANCH   3   4
ENDBRANCH   1   3
BRANCH   2   8
ATOM      8  C   UNL     1       5.340   4.250  16.448  0.00  0.00    +0.000 C 
BRANCH   8   9
ATOM      9  S   UNL     1       7.071   4.761  16.738  0.00  0.00    +0.000 S 
ATOM     10  O   UNL     1       7.589   5.469  15.429  0.00  0.00    +0.000 OA
BRANCH   9  11
ATOM     11  C   UNL     1       6.685   6.068  17.953  0.00  0.00    +0.000 C 
BRANCH  11  12
ATOM     12  C   UNL     1       7.845   7.011  18.067  0.00  0.00    +0.000 C 
ATOM     13  C   UNL     1       7.842   8.288  17.666  0.00  0.00    +0.000 C 
ENDBRANCH  11  12
ENDBRANCH   9  11
ENDBRANCH   8   9
ENDBRANCH   2   8
TORSDOF 8
ENDMDL
MODEL 6
REMARK VINA RESULT:      -4.7      2.980      6.596
REMARK  Name = 
REMARK  8 active torsions:
REMARK  status: ('A' for Active; 'I' for Inactive)
REMARK    1  A    between atoms: C_2  and  C_3
REMARK    2  A    between atoms: C_3  and  S_4
REMARK    3  A    between atoms: S_4  and  S_5
REMARK    4  A    between atoms: S_5  and  C_6
REMARK    5  A    between atoms: C_7  and  C_8
REMARK    6  A    between atoms: C_8  and  S_9
REMARK    7  A    between atoms: S_9  and  C_11
REMARK    8  A    between atoms: C_11  and  C_12
REMARK                            x       y       z     vdW  Elec       q    Type
REMARK                         _______ _______ _______ _____ _____    ______ ____
ROOT
ATOM      1  C   UNL     1       5.980   4.427  18.496  0.00  0.00    +0.000 C 
ATOM      2  C   UNL     1       4.673   4.391  18.205  0.00  0.00    +0.000 C 
ENDROOT
BRANCH   1   3
ATOM      3  S   UNL     1       7.186   4.861  17.333  0.00  0.00    +0.000 S 
BRANCH   3   4
ATOM      4  S   UNL     1       5.936   5.413  15.790  0.00  0.00    +0.000 S 
BRANCH   4   5
ATOM      5  C   UNL     1       6.855   4.815  14.342  0.00  0.00    +0.000 C 
BRANCH   5   7
ATOM      6  C   UNL     1       6.284   3.443  12.323  0.00  0.00    +0.000 C 
ATOM      7  C   UNL     1       6.032   3.819  13.585  0.00  0.00    +0.000 C 
ENDBRANCH   5   7
ENDBRANCH   4   5
ENDBRANCH   3   4
ENDBRANCH   1   3
BRANCH   2   8
ATOM      8  C   UNL     1       3.599   4.070  19.197  0.00  0.00    +0.000 C 
BRANCH   8   9
ATOM      9  S   UNL     1       1.973   4.563  18.523  0.00  0.00    +0.000 S 
ATOM     10  O   UNL     1       1.547   3.483  17.457  0.00  0.00    +0.000 OA
BRANCH   9  11
ATOM     11  C   UNL     1       1.025   4.234  20.048  0.00  0.00    +0.000 C 
BRANCH  11  12
ATOM     12  C   UNL     1       1.354   2.865  20.563  0.00  0.00    +0.000 C 
ATOM     13  C   UNL     1       1.653   2.570  21.834  0.00  0.00    +0.000 C 
ENDBRANCH  11  12
ENDBRANCH   9  11
ENDBRANCH   8   9
ENDBRANCH   2   8
TORSDOF 8
ENDMDL
MODEL 7
REMARK VINA RESULT:      -4.7      3.120      6.689
REMARK  Name = 
REMARK  8 active torsions:
REMARK  status: ('A' for Active; 'I' for Inactive)
REMARK    1  A    between atoms: C_2  and  C_3
REMARK    2  A    between atoms: C_3  and  S_4
REMARK    3  A    between atoms: S_4  and  S_5
REMARK    4  A    between atoms: S_5  and  C_6
REMARK    5  A    between atoms: C_7  and  C_8
REMARK    6  A    between atoms: C_8  and  S_9
REMARK    7  A    between atoms: S_9  and  C_11
REMARK    8  A    between atoms: C_11  and  C_12
REMARK                            x       y       z     vdW  Elec       q    Type
REMARK                         _______ _______ _______ _____ _____    ______ ____
ROOT
ATOM      1  C   UNL     1       5.330   4.455  17.076  0.00  0.00    +0.000 C 
ATOM      2  C   UNL     1       4.781   4.109  18.249  0.00  0.00    +0.000 C 
ENDROOT
BRANCH   1   3
ATOM      3  S   UNL     1       7.039   4.450  16.806  0.00  0.00    +0.000 S 
BRANCH   3   4
ATOM      4  S   UNL     1       7.034   4.981  14.814  0.00  0.00    +0.000 S 
BRANCH   4   5
ATOM      5  C   UNL     1       5.945   3.715  14.100  0.00  0.00    +0.000 C 
BRANCH   5   7
ATOM      6  C   UNL     1       5.742   2.617  11.855  0.00  0.00    +0.000 C 
ATOM      7  C   UNL     1       6.139   3.646  12.616  0.00  0.00    +0.000 C 
ENDBRANCH   5   7
ENDBRANCH   4   5
ENDBRANCH   3   4
ENDBRANCH   1   3
BRANCH   2   8
ATOM      8  C   UNL     1       3.308   4.052  18.504  0.00  0.00    +0.000 C 
BRANCH   8   9
ATOM      9  S   UNL     1       2.645   2.452  17.920  0.00  0.00    +0.000 S 
ATOM     10  O   UNL     1       3.492   1.306  18.592  0.00  0.00    +0.000 OA
BRANCH   9  11
ATOM     11  C   UNL     1       1.059   2.562  18.818  0.00  0.00    +0.000 C 
BRANCH  11  12
ATOM     12  C   UNL     1       1.253   3.321  20.096  0.00  0.00    +0.000 C 
ATOM     13  C   UNL     1       1.412   2.768  21.305  0.00  0.00    +0.000 C 
ENDBRANCH  11  12
ENDBRANCH   9  11
ENDBRANCH   8   9
ENDBRANCH   2   8
TORSDOF 8
ENDMDL
MODEL 8
REMARK VINA RESULT:      -4.7      2.862      6.197
REMARK  Name = 
REMARK  8 active torsions:
REMARK  status: ('A' for Active; 'I' for Inactive)
REMARK    1  A    between atoms: C_2  and  C_3
REMARK    2  A    between atoms: C_3  and  S_4
REMARK    3  A    between atoms: S_4  and  S_5
REMARK    4  A    between atoms: S_5  and  C_6
REMARK    5  A    between atoms: C_7  and  C_8
REMARK    6  A    between atoms: C_8  and  S_9
REMARK    7  A    between atoms: S_9  and  C_11
REMARK    8  A    between atoms: C_11  and  C_12
REMARK                            x       y       z     vdW  Elec       q    Type
REMARK                         _______ _______ _______ _____ _____    ______ ____
ROOT
ATOM      1  C   UNL     1       4.453   4.493  17.600  0.00  0.00    +0.000 C 
ATOM      2  C   UNL     1       3.278   3.867  17.451  0.00  0.00    +0.000 C 
ENDROOT
BRANCH   1   3
ATOM      3  S   UNL     1       4.643   6.196  17.363  0.00  0.00    +0.000 S 
BRANCH   3   4
ATOM      4  S   UNL     1       6.675   6.233  17.022  0.00  0.00    +0.000 S 
BRANCH   4   5
ATOM      5  C   UNL     1       6.963   4.573  16.342  0.00  0.00    +0.000 C 
BRANCH   5   7
ATOM      6  C   UNL     1       5.968   4.115  14.088  0.00  0.00    +0.000 C 
ATOM      7  C   UNL     1       6.951   4.620  14.846  0.00  0.00    +0.000 C 
ENDBRANCH   5   7
ENDBRANCH   4   5
ENDBRANCH   3   4
ENDBRANCH   1   3
BRANCH   2   8
ATOM      8  C   UNL     1       3.066   2.406  17.698  0.00  0.00    +0.000 C 
BRANCH   8   9
ATOM      9  S   UNL     1       2.236   2.169  19.309  0.00  0.00    +0.000 S 
ATOM     10  O   UNL     1       3.294   2.450  20.442  0.00  0.00    +0.000 OA
BRANCH   9  11
ATOM     11  C   UNL     1       1.158   3.638  19.187  0.00  0.00    +0.000 C 
BRANCH  11  12
ATOM     12  C   UNL     1       1.200   4.404  20.475  0.00  0.00    +0.000 C 
ATOM     13  C   UNL     1       1.758   5.611  20.637  0.00  0.00    +0.000 C 
ENDBRANCH  11  12
ENDBRANCH   9  11
ENDBRANCH   8   9
ENDBRANCH   2   8
TORSDOF 8
ENDMDL
MODEL 9
REMARK VINA RESULT:      -4.6      1.211      1.559
REMARK  Name = 
REMARK  8 active torsions:
REMARK  status: ('A' for Active; 'I' for Inactive)
REMARK    1  A    between atoms: C_2  and  C_3
REMARK    2  A    between atoms: C_3  and  S_4
REMARK    3  A    between atoms: S_4  and  S_5
REMARK    4  A    between atoms: S_5  and  C_6
REMARK    5  A    between atoms: C_7  and  C_8
REMARK    6  A    between atoms: C_8  and  S_9
REMARK    7  A    between atoms: S_9  and  C_11
REMARK    8  A    between atoms: C_11  and  C_12
REMARK                            x       y       z     vdW  Elec       q    Type
REMARK                         _______ _______ _______ _____ _____    ______ ____
ROOT
ATOM      1  C   UNL     1       4.909   3.430  18.089  0.00  0.00    +0.000 C 
ATOM      2  C   UNL     1       4.456   4.254  17.135  0.00  0.00    +0.000 C 
ENDROOT
BRANCH   1   3
ATOM      3  S   UNL     1       4.028   3.107  19.542  0.00  0.00    +0.000 S 
BRANCH   3   4
ATOM      4  S   UNL     1       3.198   4.973  19.817  0.00  0.00    +0.000 S 
BRANCH   4   5
ATOM      5  C   UNL     1       1.464   4.557  20.163  0.00  0.00    +0.000 C 
BRANCH   5   7
ATOM      6  C   UNL     1       1.332   2.624  21.754  0.00  0.00    +0.000 C 
ATOM      7  C   UNL     1       1.342   3.103  20.502  0.00  0.00    +0.000 C 
ENDBRANCH   5   7
ENDBRANCH   4   5
ENDBRANCH   3   4
ENDBRANCH   1   3
BRANCH   2   8
ATOM      8  C   UNL     1       5.165   4.518  15.844  0.00  0.00    +0.000 C 
BRANCH   8   9
ATOM      9  S   UNL     1       6.863   5.102  16.184  0.00  0.00    +0.000 S 
ATOM     10  O   UNL     1       7.530   5.474  14.806  0.00  0.00    +0.000 OA
BRANCH   9  11
ATOM     11  C   UNL     1       6.370   6.662  16.995  0.00  0.00    +0.000 C 
BRANCH  11  12
ATOM     12  C   UNL     1       7.510   7.190  17.813  0.00  0.00    +0.000 C 
ATOM     13  C   UNL     1       8.053   8.407  17.685  0.00  0.00    +0.000 C 
ENDBRANCH  11  12
ENDBRANCH   9  11
ENDBRANCH   8   9
ENDBRANCH   2   8
TORSDOF 8
ENDMDL
