MODEL 1
REMARK VINA RESULT:      -8.0      0.000      0.000
REMARK  Name = 
REMARK  12 active torsions:
REMARK  status: ('A' for Active; 'I' for Inactive)
REMARK    1  A    between atoms: C_1  and  C_2
REMARK    2  A    between atoms: C_2  and  C_3
REMARK    3  A    between atoms: C_4  and  C_5
REMARK    4  A    between atoms: C_8  and  C_9
REMARK    5  A    between atoms: N_17  and  C_18
REMARK    6  A    between atoms: C_18  and  C_19
REMARK    7  A    between atoms: N_21  and  C_22
REMARK    8  A    between atoms: C_22  and  C_23
REMARK    9  A    between atoms: C_25  and  O_26
REMARK   10  A    between atoms: O_26  and  C_27
REMARK   11  A    between atoms: C_30  and  O_31
REMARK   12  A    between atoms: O_31  and  C_32
REMARK                            x       y       z     vdW  Elec       q    Type
REMARK                         _______ _______ _______ _____ _____    ______ ____
ROOT
ATOM      1  C   UNL     1       3.294   6.286  18.668  0.00  0.00    +0.000 C 
ATOM      2  C   UNL     1       3.931   5.195  18.226  0.00  0.00    +0.000 C 
ATOM      3  S   UNL     1       3.658   3.804  19.190  0.00  0.00    +0.000 S 
ATOM      4  O   UNL     1       2.812   2.868  18.478  0.00  0.00    +0.000 OA
ATOM      5  O   UNL     1       4.887   3.384  19.836  0.00  0.00    +0.000 OA
ATOM      6  N   UNL     1       2.749   4.635  20.267  0.00  0.00    +0.000 NA
ATOM      7  C   UNL     1       2.601   5.882  19.924  0.00  0.00    +0.000 C 
ATOM      8  N   UNL     1       1.846   6.653  20.774  0.00  0.00    +0.000 N 
ATOM      9  H   UNL     1       1.693   6.204  21.677  0.00  0.00    +0.000 HD
ENDROOT
BRANCH   2  10
ATOM     10  C   UNL     1       4.863   5.013  17.123  0.00  0.00    +0.000 A 
ATOM     11  C   UNL     1       6.119   5.635  17.175  0.00  0.00    +0.000 A 
ATOM     12  C   UNL     1       6.980   5.604  16.075  0.00  0.00    +0.000 A 
ATOM     13  C   UNL     1       6.603   4.953  14.898  0.00  0.00    +0.000 A 
ATOM     14  C   UNL     1       7.507   4.955  13.699  0.00  0.00    +0.000 C 
ATOM     15  C   UNL     1       5.369   4.292  14.857  0.00  0.00    +0.000 A 
ATOM     16  C   UNL     1       4.502   4.327  15.958  0.00  0.00    +0.000 A 
ENDBRANCH   2  10
BRANCH   1  18
ATOM     17  C   UNL     1       1.946   8.011  17.435  0.00  0.00    +0.000 C 
ATOM     18  C   UNL     1       3.292   7.631  18.034  0.00  0.00    +0.000 C 
ENDBRANCH   1  18
BRANCH   8  19
ATOM     19  C   UNL     1       1.624   8.088  20.754  0.00  0.00    +0.000 C 
BRANCH  19  20
ATOM     20  C   UNL     1       0.400   8.486  21.588  0.00  0.00    +0.000 C 
ATOM     21  O   UNL     1      -0.635   7.828  21.595  0.00  0.00    +0.000 OA
ATOM     22  N   UNL     1       0.596   9.604  22.367  0.00  0.00    +0.000 N 
ATOM     23  H   UNL     1       1.480  10.096  22.308  0.00  0.00    +0.000 HD
BRANCH  22  24
ATOM     24  C   UNL     1      -0.403  10.120  23.288  0.00  0.00    +0.000 C 
BRANCH  24  25
ATOM     25  C   UNL     1      -1.156  11.290  22.707  0.00  0.00    +0.000 A 
ATOM     26  C   UNL     1      -2.414  11.621  23.251  0.00  0.00    +0.000 A 
ATOM     27  C   UNL     1      -3.279  12.518  22.622  0.00  0.00    +0.000 A 
ATOM     28  C   UNL     1      -2.877  13.120  21.439  0.00  0.00    +0.000 A 
ATOM     29  C   UNL     1      -1.581  12.900  20.955  0.00  0.00    +0.000 A 
ATOM     30  C   UNL     1      -0.697  12.031  21.610  0.00  0.00    +0.000 A 
BRANCH  27  31
ATOM     31  O   UNL     1      -4.477  12.683  23.256  0.00  0.00    +0.000 OA
ATOM     32  C   UNL     1      -4.520  12.399  24.648  0.00  0.00    +0.000 C 
ENDBRANCH  27  31
BRANCH  30  33
ATOM     33  O   UNL     1       0.538  11.942  21.023  0.00  0.00    +0.000 OA
ATOM     34  C   UNL     1       1.273  13.156  20.884  0.00  0.00    +0.000 C 
ENDBRANCH  30  33
ENDBRANCH  24  25
ENDBRANCH  22  24
ENDBRANCH  19  20
ENDBRANCH   8  19
TORSDOF 8
ENDMDL
MODEL 2
REMARK VINA RESULT:      -7.9      2.952     10.227
REMARK  Name = 
REMARK  12 active torsions:
REMARK  status: ('A' for Active; 'I' for Inactive)
REMARK    1  A    between atoms: C_1  and  C_2
REMARK    2  A    between atoms: C_2  and  C_3
REMARK    3  A    between atoms: C_4  and  C_5
REMARK    4  A    between atoms: C_8  and  C_9
REMARK    5  A    between atoms: N_17  and  C_18
REMARK    6  A    between atoms: C_18  and  C_19
REMARK    7  A    between atoms: N_21  and  C_22
REMARK    8  A    between atoms: C_22  and  C_23
REMARK    9  A    between atoms: C_25  and  O_26
REMARK   10  A    between atoms: O_26  and  C_27
REMARK   11  A    between atoms: C_30  and  O_31
REMARK   12  A    between atoms: O_31  and  C_32
REMARK                            x       y       z     vdW  Elec       q    Type
REMARK                         _______ _______ _______ _____ _____    ______ ____
ROOT
ATOM      1  C   UNL     1      -0.194  11.222  19.469  0.00  0.00    +0.000 C 
ATOM      2  C   UNL     1      -0.445  12.280  20.249  0.00  0.00    +0.000 C 
ATOM      3  S   UNL     1       0.794  13.465  20.219  0.00  0.00    +0.000 S 
ATOM      4  O   UNL     1       0.339  14.637  19.501  0.00  0.00    +0.000 OA
ATOM      5  O   UNL     1       1.434  13.563  21.517  0.00  0.00    +0.000 OA
ATOM      6  N   UNL     1       1.736  12.564  19.229  0.00  0.00    +0.000 NA
ATOM      7  C   UNL     1       1.158  11.449  18.886  0.00  0.00    +0.000 C 
ATOM      8  N   UNL     1       1.880  10.632  18.051  0.00  0.00    +0.000 N 
ATOM      9  H   UNL     1       2.863  10.900  17.995  0.00  0.00    +0.000 HD
ENDROOT
BRANCH   2  10
ATOM     10  C   UNL     1      -1.544  12.555  21.163  0.00  0.00    +0.000 A 
ATOM     11  C   UNL     1      -1.517  12.010  22.455  0.00  0.00    +0.000 A 
ATOM     12  C   UNL     1      -2.618  12.130  23.306  0.00  0.00    +0.000 A 
ATOM     13  C   UNL     1      -3.772  12.795  22.884  0.00  0.00    +0.000 A 
ATOM     14  C   UNL     1      -4.973  12.888  23.781  0.00  0.00    +0.000 C 
ATOM     15  C   UNL     1      -3.787  13.380  21.612  0.00  0.00    +0.000 A 
ATOM     16  C   UNL     1      -2.685  13.255  20.754  0.00  0.00    +0.000 A 
ENDBRANCH   2  10
BRANCH   1  18
ATOM     17  C   UNL     1      -2.014  10.225  18.054  0.00  0.00    +0.000 C 
ATOM     18  C   UNL     1      -1.085  10.053  19.246  0.00  0.00    +0.000 C 
ENDBRANCH   1  18
BRANCH   8  19
ATOM     19  C   UNL     1       1.586   9.278  17.615  0.00  0.00    +0.000 C 
BRANCH  19  20
ATOM     20  C   UNL     1       2.304   8.233  18.479  0.00  0.00    +0.000 C 
ATOM     21  O   UNL     1       1.974   7.997  19.637  0.00  0.00    +0.000 OA
ATOM     22  N   UNL     1       3.299   7.551  17.817  0.00  0.00    +0.000 N 
ATOM     23  H   UNL     1       3.514   7.803  16.859  0.00  0.00    +0.000 HD
BRANCH  22  24
ATOM     24  C   UNL     1       4.062   6.471  18.418  0.00  0.00    +0.000 C 
BRANCH  24  25
ATOM     25  C   UNL     1       3.593   5.118  17.944  0.00  0.00    +0.000 A 
ATOM     26  C   UNL     1       2.393   4.596  18.470  0.00  0.00    +0.000 A 
ATOM     27  C   UNL     1       2.020   3.265  18.280  0.00  0.00    +0.000 A 
ATOM     28  C   UNL     1       2.842   2.438  17.528  0.00  0.00    +0.000 A 
ATOM     29  C   UNL     1       3.969   2.974  16.893  0.00  0.00    +0.000 A 
ATOM     30  C   UNL     1       4.322   4.322  17.050  0.00  0.00    +0.000 A 
BRANCH  27  31
ATOM     31  O   UNL     1       0.857   2.912  18.903  0.00  0.00    +0.000 OA
ATOM     32  C   UNL     1       0.725   3.260  20.275  0.00  0.00    +0.000 C 
ENDBRANCH  27  31
BRANCH  30  33
ATOM     33  O   UNL     1       5.436   4.695  16.346  0.00  0.00    +0.000 OA
ATOM     34  C   UNL     1       5.517   4.258  14.991  0.00  0.00    +0.000 C 
ENDBRANCH  30  33
ENDBRANCH  24  25
ENDBRANCH  22  24
ENDBRANCH  19  20
ENDBRANCH   8  19
TORSDOF 8
ENDMDL
MODEL 3
REMARK VINA RESULT:      -7.8      1.524      1.879
REMARK  Name = 
REMARK  12 active torsions:
REMARK  status: ('A' for Active; 'I' for Inactive)
REMARK    1  A    between atoms: C_1  and  C_2
REMARK    2  A    between atoms: C_2  and  C_3
REMARK    3  A    between atoms: C_4  and  C_5
REMARK    4  A    between atoms: C_8  and  C_9
REMARK    5  A    between atoms: N_17  and  C_18
REMARK    6  A    between atoms: C_18  and  C_19
REMARK    7  A    between atoms: N_21  and  C_22
REMARK    8  A    between atoms: C_22  and  C_23
REMARK    9  A    between atoms: C_25  and  O_26
REMARK   10  A    between atoms: O_26  and  C_27
REMARK   11  A    between atoms: C_30  and  O_31
REMARK   12  A    between atoms: O_31  and  C_32
REMARK                            x       y       z     vdW  Elec       q    Type
REMARK                         _______ _______ _______ _____ _____    ______ ____
ROOT
ATOM      1  C   UNL     1       2.435   7.155  19.088  0.00  0.00    +0.000 C 
ATOM      2  C   UNL     1       2.916   5.960  18.726  0.00  0.00    +0.000 C 
ATOM      3  S   UNL     1       2.405   4.678  19.744  0.00  0.00    +0.000 S 
ATOM      4  O   UNL     1       1.452   3.841  19.045  0.00  0.00    +0.000 OA
ATOM      5  O   UNL     1       3.536   4.117  20.458  0.00  0.00    +0.000 OA
ATOM      6  N   UNL     1       1.597   5.691  20.743  0.00  0.00    +0.000 NA
ATOM      7  C   UNL     1       1.649   6.926  20.334  0.00  0.00    +0.000 C 
ATOM      8  N   UNL     1       0.992   7.845  21.115  0.00  0.00    +0.000 N 
ATOM      9  H   UNL     1       0.743   7.472  22.031  0.00  0.00    +0.000 HD
ENDROOT
BRANCH   2  10
ATOM     10  C   UNL     1       3.845   5.583  17.671  0.00  0.00    +0.000 A 
ATOM     11  C   UNL     1       4.560   6.583  16.996  0.00  0.00    +0.000 A 
ATOM     12  C   UNL     1       5.347   6.273  15.884  0.00  0.00    +0.000 A 
ATOM     13  C   UNL     1       5.435   4.957  15.421  0.00  0.00    +0.000 A 
ATOM     14  C   UNL     1       6.246   4.628  14.201  0.00  0.00    +0.000 C 
ATOM     15  C   UNL     1       4.759   3.949  16.120  0.00  0.00    +0.000 A 
ATOM     16  C   UNL     1       3.964   4.259  17.232  0.00  0.00    +0.000 A 
ENDBRANCH   2  10
BRANCH   1  18
ATOM     17  C   UNL     1       1.464   8.891  17.553  0.00  0.00    +0.000 C 
ATOM     18  C   UNL     1       2.656   8.449  18.390  0.00  0.00    +0.000 C 
ENDBRANCH   1  18
BRANCH   8  19
ATOM     19  C   UNL     1       0.988   9.294  21.017  0.00  0.00    +0.000 C 
BRANCH  19  20
ATOM     20  C   UNL     1       0.395   9.948  22.272  0.00  0.00    +0.000 C 
ATOM     21  O   UNL     1       0.797   9.690  23.402  0.00  0.00    +0.000 OA
ATOM     22  N   UNL     1      -0.576  10.886  22.006  0.00  0.00    +0.000 N 
ATOM     23  H   UNL     1      -0.855  11.045  21.044  0.00  0.00    +0.000 HD
BRANCH  22  24
ATOM     24  C   UNL     1      -1.223  11.679  23.037  0.00  0.00    +0.000 C 
BRANCH  24  25
ATOM     25  C   UNL     1      -2.518  12.281  22.555  0.00  0.00    +0.000 A 
ATOM     26  C   UNL     1      -3.593  12.389  23.462  0.00  0.00    +0.000 A 
ATOM     27  C   UNL     1      -4.887  12.699  23.043  0.00  0.00    +0.000 A 
ATOM     28  C   UNL     1      -5.118  12.933  21.695  0.00  0.00    +0.000 A 
ATOM     29  C   UNL     1      -4.040  12.957  20.802  0.00  0.00    +0.000 A 
ATOM     30  C   UNL     1      -2.732  12.687  21.230  0.00  0.00    +0.000 A 
BRANCH  27  31
ATOM     31  O   UNL     1      -5.817  12.709  24.043  0.00  0.00    +0.000 OA
ATOM     32  C   UNL     1      -7.154  12.384  23.689  0.00  0.00    +0.000 C 
ENDBRANCH  27  31
BRANCH  30  33
ATOM     33  O   UNL     1      -1.790  12.772  20.240  0.00  0.00    +0.000 OA
ATOM     34  C   UNL     1      -2.052  12.049  19.038  0.00  0.00    +0.000 C 
ENDBRANCH  30  33
ENDBRANCH  24  25
ENDBRANCH  22  24
ENDBRANCH  19  20
ENDBRANCH   8  19
TORSDOF 8
ENDMDL
MODEL 4
REMARK VINA RESULT:      -7.7      3.178     10.653
REMARK  Name = 
REMARK  12 active torsions:
REMARK  status: ('A' for Active; 'I' for Inactive)
REMARK    1  A    between atoms: C_1  and  C_2
REMARK    2  A    between atoms: C_2  and  C_3
REMARK    3  A    between atoms: C_4  and  C_5
REMARK    4  A    between atoms: C_8  and  C_9
REMARK    5  A    between atoms: N_17  and  C_18
REMARK    6  A    between atoms: C_18  and  C_19
REMARK    7  A    between atoms: N_21  and  C_22
REMARK    8  A    between atoms: C_22  and  C_23
REMARK    9  A    between atoms: C_25  and  O_26
REMARK   10  A    between atoms: O_26  and  C_27
REMARK   11  A    between atoms: C_30  and  O_31
REMARK   12  A    between atoms: O_31  and  C_32
REMARK                            x       y       z     vdW  Elec       q    Type
REMARK                         _______ _______ _______ _____ _____    ______ ____
ROOT
ATOM      1  C   UNL     1      -0.423  11.112  21.099  0.00  0.00    +0.000 C 
ATOM      2  C   UNL     1      -1.239  12.162  21.250  0.00  0.00    +0.000 C 
ATOM      3  S   UNL     1      -1.896  12.739  19.775  0.00  0.00    +0.000 S 
ATOM      4  O   UNL     1      -3.305  12.413  19.700  0.00  0.00    +0.000 OA
ATOM      5  O   UNL     1      -1.403  14.072  19.486  0.00  0.00    +0.000 OA
ATOM      6  N   UNL     1      -1.049  11.657  18.886  0.00  0.00    +0.000 NA
ATOM      7  C   UNL     1      -0.338  10.861  19.632  0.00  0.00    +0.000 C 
ATOM      8  N   UNL     1       0.404   9.916  18.965  0.00  0.00    +0.000 N 
ATOM      9  H   UNL     1       0.477  10.111  17.967  0.00  0.00    +0.000 HD
ENDROOT
BRANCH   2  10
ATOM     10  C   UNL     1      -1.598  12.932  22.432  0.00  0.00    +0.000 A 
ATOM     11  C   UNL     1      -2.839  12.711  23.045  0.00  0.00    +0.000 A 
ATOM     12  C   UNL     1      -3.279  13.529  24.089  0.00  0.00    +0.000 A 
ATOM     13  C   UNL     1      -2.488  14.588  24.541  0.00  0.00    +0.000 A 
ATOM     14  C   UNL     1      -2.976  15.496  25.633  0.00  0.00    +0.000 C 
ATOM     15  C   UNL     1      -1.228  14.785  23.962  0.00  0.00    +0.000 A 
ATOM     16  C   UNL     1      -0.788  13.969  22.910  0.00  0.00    +0.000 A 
ENDBRANCH   2  10
BRANCH   1  18
ATOM     17  C   UNL     1      -0.570   9.220  22.745  0.00  0.00    +0.000 C 
ATOM     18  C   UNL     1       0.265  10.360  22.181  0.00  0.00    +0.000 C 
ENDBRANCH   1  18
BRANCH   8  19
ATOM     19  C   UNL     1       1.399   8.996  19.489  0.00  0.00    +0.000 C 
BRANCH  19  20
ATOM     20  C   UNL     1       2.162   8.284  18.365  0.00  0.00    +0.000 C 
ATOM     21  O   UNL     1       2.326   8.787  17.258  0.00  0.00    +0.000 OA
ATOM     22  N   UNL     1       2.692   7.069  18.734  0.00  0.00    +0.000 N 
ATOM     23  H   UNL     1       2.515   6.719  19.669  0.00  0.00    +0.000 HD
BRANCH  22  24
ATOM     24  C   UNL     1       3.512   6.255  17.853  0.00  0.00    +0.000 C 
BRANCH  24  25
ATOM     25  C   UNL     1       3.161   4.792  17.949  0.00  0.00    +0.000 A 
ATOM     26  C   UNL     1       2.194   4.388  18.893  0.00  0.00    +0.000 A 
ATOM     27  C   UNL     1       1.992   3.047  19.218  0.00  0.00    +0.000 A 
ATOM     28  C   UNL     1       2.748   2.079  18.573  0.00  0.00    +0.000 A 
ATOM     29  C   UNL     1       3.619   2.454  17.543  0.00  0.00    +0.000 A 
ATOM     30  C   UNL     1       3.792   3.799  17.187  0.00  0.00    +0.000 A 
BRANCH  27  31
ATOM     31  O   UNL     1       1.056   2.838  20.190  0.00  0.00    +0.000 OA
ATOM     32  C   UNL     1       1.530   2.655  21.518  0.00  0.00    +0.000 C 
ENDBRANCH  27  31
BRANCH  30  33
ATOM     33  O   UNL     1       4.661   3.996  16.147  0.00  0.00    +0.000 OA
ATOM     34  C   UNL     1       6.046   4.087  16.473  0.00  0.00    +0.000 C 
ENDBRANCH  30  33
ENDBRANCH  24  25
ENDBRANCH  22  24
ENDBRANCH  19  20
ENDBRANCH   8  19
TORSDOF 8
ENDMDL
MODEL 5
REMARK VINA RESULT:      -7.7      0.923      1.136
REMARK  Name = 
REMARK  12 active torsions:
REMARK  status: ('A' for Active; 'I' for Inactive)
REMARK    1  A    between atoms: C_1  and  C_2
REMARK    2  A    between atoms: C_2  and  C_3
REMARK    3  A    between atoms: C_4  and  C_5
REMARK    4  A    between atoms: C_8  and  C_9
REMARK    5  A    between atoms: N_17  and  C_18
REMARK    6  A    between atoms: C_18  and  C_19
REMARK    7  A    between atoms: N_21  and  C_22
REMARK    8  A    between atoms: C_22  and  C_23
REMARK    9  A    between atoms: C_25  and  O_26
REMARK   10  A    between atoms: O_26  and  C_27
REMARK   11  A    between atoms: C_30  and  O_31
REMARK   12  A    between atoms: O_31  and  C_32
REMARK                            x       y       z     vdW  Elec       q    Type
REMARK                         _______ _______ _______ _____ _____    ______ ____
ROOT
ATOM      1  C   UNL     1       2.826   6.641  18.795  0.00  0.00    +0.000 C 
ATOM      2  C   UNL     1       3.370   5.543  18.256  0.00  0.00    +0.000 C 
ATOM      3  S   UNL     1       3.098   4.121  19.175  0.00  0.00    +0.000 S 
ATOM      4  O   UNL     1       2.152   3.264  18.491  0.00  0.00    +0.000 OA
ATOM      5  O   UNL     1       4.349   3.612  19.703  0.00  0.00    +0.000 OA
ATOM      6  N   UNL     1       2.318   4.942  20.357  0.00  0.00    +0.000 NA
ATOM      7  C   UNL     1       2.211   6.210  20.082  0.00  0.00    +0.000 C 
ATOM      8  N   UNL     1       1.565   6.975  21.022  0.00  0.00    +0.000 N 
ATOM      9  H   UNL     1       1.457   6.491  21.914  0.00  0.00    +0.000 HD
ENDROOT
BRANCH   2  10
ATOM     10  C   UNL     1       4.204   5.370  17.076  0.00  0.00    +0.000 A 
ATOM     11  C   UNL     1       4.531   4.074  16.651  0.00  0.00    +0.000 A 
ATOM     12  C   UNL     1       5.446   3.870  15.614  0.00  0.00    +0.000 A 
ATOM     13  C   UNL     1       6.055   4.956  14.982  0.00  0.00    +0.000 A 
ATOM     14  C   UNL     1       7.071   4.739  13.898  0.00  0.00    +0.000 C 
ATOM     15  C   UNL     1       5.698   6.253  15.373  0.00  0.00    +0.000 A 
ATOM     16  C   UNL     1       4.785   6.459  16.417  0.00  0.00    +0.000 A 
ENDBRANCH   2  10
BRANCH   1  18
ATOM     17  C   UNL     1       1.517   8.429  17.610  0.00  0.00    +0.000 C 
ATOM     18  C   UNL     1       2.847   8.013  18.223  0.00  0.00    +0.000 C 
ENDBRANCH   1  18
BRANCH   8  19
ATOM     19  C   UNL     1       1.417   8.419  21.085  0.00  0.00    +0.000 C 
BRANCH  19  20
ATOM     20  C   UNL     1       0.102   8.828  21.759  0.00  0.00    +0.000 C 
ATOM     21  O   UNL     1      -0.894   8.112  21.750  0.00  0.00    +0.000 OA
ATOM     22  N   UNL     1       0.166  10.034  22.420  0.00  0.00    +0.000 N 
ATOM     23  H   UNL     1       1.025  10.570  22.382  0.00  0.00    +0.000 HD
BRANCH  22  24
ATOM     24  C   UNL     1      -0.939  10.583  23.186  0.00  0.00    +0.000 C 
BRANCH  24  25
ATOM     25  C   UNL     1      -1.438  11.883  22.606  0.00  0.00    +0.000 A 
ATOM     26  C   UNL     1      -2.800  12.213  22.759  0.00  0.00    +0.000 A 
ATOM     27  C   UNL     1      -3.392  13.259  22.050  0.00  0.00    +0.000 A 
ATOM     28  C   UNL     1      -2.609  14.012  21.187  0.00  0.00    +0.000 A 
ATOM     29  C   UNL     1      -1.230  13.779  21.121  0.00  0.00    +0.000 A 
ATOM     30  C   UNL     1      -0.628  12.755  21.866  0.00  0.00    +0.000 A 
BRANCH  27  31
ATOM     31  O   UNL     1      -4.731  13.407  22.277  0.00  0.00    +0.000 OA
ATOM     32  C   UNL     1      -5.136  14.514  23.071  0.00  0.00    +0.000 C 
ENDBRANCH  27  31
BRANCH  30  33
ATOM     33  O   UNL     1       0.730  12.672  21.707  0.00  0.00    +0.000 OA
ATOM     34  C   UNL     1       1.222  12.652  20.369  0.00  0.00    +0.000 C 
ENDBRANCH  30  33
ENDBRANCH  24  25
ENDBRANCH  22  24
ENDBRANCH  19  20
ENDBRANCH   8  19
TORSDOF 8
ENDMDL
MODEL 6
REMARK VINA RESULT:      -7.7      2.565      4.515
REMARK  Name = 
REMARK  12 active torsions:
REMARK  status: ('A' for Active; 'I' for Inactive)
REMARK    1  A    between atoms: C_1  and  C_2
REMARK    2  A    between atoms: C_2  and  C_3
REMARK    3  A    between atoms: C_4  and  C_5
REMARK    4  A    between atoms: C_8  and  C_9
REMARK    5  A    between atoms: N_17  and  C_18
REMARK    6  A    between atoms: C_18  and  C_19
REMARK    7  A    between atoms: N_21  and  C_22
REMARK    8  A    between atoms: C_22  and  C_23
REMARK    9  A    between atoms: C_25  and  O_26
REMARK   10  A    between atoms: O_26  and  C_27
REMARK   11  A    between atoms: C_30  and  O_31
REMARK   12  A    between atoms: O_31  and  C_32
REMARK                            x       y       z     vdW  Elec       q    Type
REMARK                         _______ _______ _______ _____ _____    ______ ____
ROOT
ATOM      1  C   UNL     1       4.885   3.858  17.593  0.00  0.00    +0.000 C 
ATOM      2  C   UNL     1       5.927   4.356  16.916  0.00  0.00    +0.000 C 
ATOM      3  S   UNL     1       7.084   5.134  17.913  0.00  0.00    +0.000 S 
ATOM      4  O   UNL     1       8.285   4.330  17.996  0.00  0.00    +0.000 OA
ATOM      5  O   UNL     1       7.133   6.554  17.620  0.00  0.00    +0.000 OA
ATOM      6  N   UNL     1       6.190   4.901  19.264  0.00  0.00    +0.000 NA
ATOM      7  C   UNL     1       5.098   4.236  19.018  0.00  0.00    +0.000 C 
ATOM      8  N   UNL     1       4.287   3.993  20.100  0.00  0.00    +0.000 N 
ATOM      9  H   UNL     1       4.535   4.562  20.910  0.00  0.00    +0.000 HD
ENDROOT
BRANCH   2  10
ATOM     10  C   UNL     1       6.201   4.410  15.488  0.00  0.00    +0.000 A 
ATOM     11  C   UNL     1       5.392   3.681  14.604  0.00  0.00    +0.000 A 
ATOM     12  C   UNL     1       5.713   3.592  13.247  0.00  0.00    +0.000 A 
ATOM     13  C   UNL     1       6.850   4.227  12.744  0.00  0.00    +0.000 A 
ATOM     14  C   UNL     1       7.221   4.097  11.295  0.00  0.00    +0.000 C 
ATOM     15  C   UNL     1       7.636   4.994  13.614  0.00  0.00    +0.000 A 
ATOM     16  C   UNL     1       7.319   5.079  14.977  0.00  0.00    +0.000 A 
ENDBRANCH   2  10
BRANCH   1  18
ATOM     17  C   UNL     1       2.449   3.895  16.978  0.00  0.00    +0.000 C 
ATOM     18  C   UNL     1       3.742   3.094  17.026  0.00  0.00    +0.000 C 
ENDBRANCH   1  18
BRANCH   8  19
ATOM     19  C   UNL     1       2.952   3.421  20.135  0.00  0.00    +0.000 C 
BRANCH  19  20
ATOM     20  C   UNL     1       1.903   4.450  20.576  0.00  0.00    +0.000 C 
ATOM     21  O   UNL     1       0.751   4.138  20.856  0.00  0.00    +0.000 OA
ATOM     22  N   UNL     1       2.392   5.732  20.686  0.00  0.00    +0.000 N 
ATOM     23  H   UNL     1       3.358   5.913  20.437  0.00  0.00    +0.000 HD
BRANCH  22  24
ATOM     24  C   UNL     1       1.595   6.852  21.155  0.00  0.00    +0.000 C 
BRANCH  24  25
ATOM     25  C   UNL     1       1.577   7.987  20.162  0.00  0.00    +0.000 A 
ATOM     26  C   UNL     1       0.849   9.152  20.480  0.00  0.00    +0.000 A 
ATOM     27  C   UNL     1       0.575  10.136  19.529  0.00  0.00    +0.000 A 
ATOM     28  C   UNL     1       1.056   9.974  18.238  0.00  0.00    +0.000 A 
ATOM     29  C   UNL     1       1.888   8.888  17.941  0.00  0.00    +0.000 A 
ATOM     30  C   UNL     1       2.198   7.920  18.907  0.00  0.00    +0.000 A 
BRANCH  27  31
ATOM     31  O   UNL     1      -0.187  11.171  19.992  0.00  0.00    +0.000 OA
ATOM     32  C   UNL     1      -0.637  11.093  21.339  0.00  0.00    +0.000 C 
ENDBRANCH  27  31
BRANCH  30  33
ATOM     33  O   UNL     1       3.040   6.936  18.464  0.00  0.00    +0.000 OA
ATOM     34  C   UNL     1       3.894   7.263  17.370  0.00  0.00    +0.000 C 
ENDBRANCH  30  33
ENDBRANCH  24  25
ENDBRANCH  22  24
ENDBRANCH  19  20
ENDBRANCH   8  19
TORSDOF 8
ENDMDL
MODEL 7
REMARK VINA RESULT:      -7.7      3.027     10.383
REMARK  Name = 
REMARK  12 active torsions:
REMARK  status: ('A' for Active; 'I' for Inactive)
REMARK    1  A    between atoms: C_1  and  C_2
REMARK    2  A    between atoms: C_2  and  C_3
REMARK    3  A    between atoms: C_4  and  C_5
REMARK    4  A    between atoms: C_8  and  C_9
REMARK    5  A    between atoms: N_17  and  C_18
REMARK    6  A    between atoms: C_18  and  C_19
REMARK    7  A    between atoms: N_21  and  C_22
REMARK    8  A    between atoms: C_22  and  C_23
REMARK    9  A    between atoms: C_25  and  O_26
REMARK   10  A    between atoms: O_26  and  C_27
REMARK   11  A    between atoms: C_30  and  O_31
REMARK   12  A    between atoms: O_31  and  C_32
REMARK                            x       y       z     vdW  Elec       q    Type
REMARK                         _______ _______ _______ _____ _____    ______ ____
ROOT
ATOM      1  C   UNL     1      -0.490  11.096  19.396  0.00  0.00    +0.000 C 
ATOM      2  C   UNL     1      -0.804  12.114  20.206  0.00  0.00    +0.000 C 
ATOM      3  S   UNL     1       0.447  13.276  20.365  0.00  0.00    +0.000 S 
ATOM      4  O   UNL     1       0.081  14.494  19.673  0.00  0.00    +0.000 OA
ATOM      5  O   UNL     1       0.956  13.292  21.723  0.00  0.00    +0.000 OA
ATOM      6  N   UNL     1       1.472  12.414  19.424  0.00  0.00    +0.000 NA
ATOM      7  C   UNL     1       0.917  11.330  18.963  0.00  0.00    +0.000 C 
ATOM      8  N   UNL     1       1.708  10.547  18.159  0.00  0.00    +0.000 N 
ATOM      9  H   UNL     1       2.695  10.800  18.216  0.00  0.00    +0.000 HD
ENDROOT
BRANCH   2  10
ATOM     10  C   UNL     1      -1.985  12.359  21.021  0.00  0.00    +0.000 A 
ATOM     11  C   UNL     1      -3.090  13.009  20.451  0.00  0.00    +0.000 A 
ATOM     12  C   UNL     1      -4.179  13.391  21.237  0.00  0.00    +0.000 A 
ATOM     13  C   UNL     1      -4.188  13.134  22.611  0.00  0.00    +0.000 A 
ATOM     14  C   UNL     1      -5.339  13.582  23.465  0.00  0.00    +0.000 C 
ATOM     15  C   UNL     1      -3.108  12.445  23.175  0.00  0.00    +0.000 A 
ATOM     16  C   UNL     1      -2.011  12.066  22.389  0.00  0.00    +0.000 A 
ENDBRANCH   2  10
BRANCH   1  18
ATOM     17  C   UNL     1      -2.160  10.205  17.745  0.00  0.00    +0.000 C 
ATOM     18  C   UNL     1      -1.368   9.957  19.021  0.00  0.00    +0.000 C 
ENDBRANCH   1  18
BRANCH   8  19
ATOM     19  C   UNL     1       1.441   9.224  17.620  0.00  0.00    +0.000 C 
BRANCH  19  20
ATOM     20  C   UNL     1       2.472   8.195  18.102  0.00  0.00    +0.000 C 
ATOM     21  O   UNL     1       3.607   8.133  17.639  0.00  0.00    +0.000 OA
ATOM     22  N   UNL     1       2.026   7.400  19.133  0.00  0.00    +0.000 N 
ATOM     23  H   UNL     1       1.074   7.510  19.462  0.00  0.00    +0.000 HD
BRANCH  22  24
ATOM     24  C   UNL     1       2.857   6.406  19.791  0.00  0.00    +0.000 C 
BRANCH  24  25
ATOM     25  C   UNL     1       2.869   5.097  19.044  0.00  0.00    +0.000 A 
ATOM     26  C   UNL     1       3.806   4.919  18.004  0.00  0.00    +0.000 A 
ATOM     27  C   UNL     1       3.725   3.852  17.109  0.00  0.00    +0.000 A 
ATOM     28  C   UNL     1       2.705   2.924  17.262  0.00  0.00    +0.000 A 
ATOM     29  C   UNL     1       1.846   3.015  18.364  0.00  0.00    +0.000 A 
ATOM     30  C   UNL     1       1.953   4.064  19.288  0.00  0.00    +0.000 A 
BRANCH  27  31
ATOM     31  O   UNL     1       4.679   3.862  16.132  0.00  0.00    +0.000 OA
ATOM     32  C   UNL     1       5.243   5.121  15.790  0.00  0.00    +0.000 C 
ENDBRANCH  27  31
BRANCH  30  33
ATOM     33  O   UNL     1       1.054   3.996  20.319  0.00  0.00    +0.000 OA
ATOM     34  C   UNL     1       1.280   2.991  21.305  0.00  0.00    +0.000 C 
ENDBRANCH  30  33
ENDBRANCH  24  25
ENDBRANCH  22  24
ENDBRANCH  19  20
ENDBRANCH   8  19
TORSDOF 8
ENDMDL
MODEL 8
REMARK VINA RESULT:      -7.6      2.933     10.846
REMARK  Name = 
REMARK  12 active torsions:
REMARK  status: ('A' for Active; 'I' for Inactive)
REMARK    1  A    between atoms: C_1  and  C_2
REMARK    2  A    between atoms: C_2  and  C_3
REMARK    3  A    between atoms: C_4  and  C_5
REMARK    4  A    between atoms: C_8  and  C_9
REMARK    5  A    between atoms: N_17  and  C_18
REMARK    6  A    between atoms: C_18  and  C_19
REMARK    7  A    between atoms: N_21  and  C_22
REMARK    8  A    between atoms: C_22  and  C_23
REMARK    9  A    between atoms: C_25  and  O_26
REMARK   10  A    between atoms: O_26  and  C_27
REMARK   11  A    between atoms: C_30  and  O_31
REMARK   12  A    between atoms: O_31  and  C_32
REMARK                            x       y       z     vdW  Elec       q    Type
REMARK                         _______ _______ _______ _____ _____    ______ ____
ROOT
ATOM      1  C   UNL     1      -0.540  11.312  19.573  0.00  0.00    +0.000 C 
ATOM      2  C   UNL     1      -0.929  12.293  20.396  0.00  0.00    +0.000 C 
ATOM      3  S   UNL     1       0.221  13.555  20.551  0.00  0.00    +0.000 S 
ATOM      4  O   UNL     1      -0.256  14.744  19.875  0.00  0.00    +0.000 OA
ATOM      5  O   UNL     1       0.743  13.602  21.904  0.00  0.00    +0.000 OA
ATOM      6  N   UNL     1       1.303  12.791  19.590  0.00  0.00    +0.000 NA
ATOM      7  C   UNL     1       0.836  11.668  19.125  0.00  0.00    +0.000 C 
ATOM      8  N   UNL     1       1.681  10.962  18.304  0.00  0.00    +0.000 N 
ATOM      9  H   UNL     1       2.643  11.297  18.352  0.00  0.00    +0.000 HD
ENDROOT
BRANCH   2  10
ATOM     10  C   UNL     1      -2.117  12.429  21.227  0.00  0.00    +0.000 A 
ATOM     11  C   UNL     1      -3.271  13.012  20.684  0.00  0.00    +0.000 A 
ATOM     12  C   UNL     1      -4.378  13.293  21.490  0.00  0.00    +0.000 A 
ATOM     13  C   UNL     1      -4.354  12.999  22.855  0.00  0.00    +0.000 A 
ATOM     14  C   UNL     1      -5.525  13.339  23.732  0.00  0.00    +0.000 C 
ATOM     15  C   UNL     1      -3.221  12.375  23.392  0.00  0.00    +0.000 A 
ATOM     16  C   UNL     1      -2.107  12.099  22.587  0.00  0.00    +0.000 A 
ENDBRANCH   2  10
BRANCH   1  18
ATOM     17  C   UNL     1      -2.147  10.295  17.931  0.00  0.00    +0.000 C 
ATOM     18  C   UNL     1      -1.323  10.106  19.197  0.00  0.00    +0.000 C 
ENDBRANCH   1  18
BRANCH   8  19
ATOM     19  C   UNL     1       1.521   9.626  17.757  0.00  0.00    +0.000 C 
BRANCH  19  20
ATOM     20  C   UNL     1       1.960   8.546  18.753  0.00  0.00    +0.000 C 
ATOM     21  O   UNL     1       1.605   8.549  19.928  0.00  0.00    +0.000 OA
ATOM     22  N   UNL     1       2.729   7.551  18.194  0.00  0.00    +0.000 N 
ATOM     23  H   UNL     1       2.981   7.616  17.215  0.00  0.00    +0.000 HD
BRANCH  22  24
ATOM     24  C   UNL     1       3.196   6.392  18.935  0.00  0.00    +0.000 C 
BRANCH  24  25
ATOM     25  C   UNL     1       3.945   5.424  18.055  0.00  0.00    +0.000 A 
ATOM     26  C   UNL     1       4.946   5.926  17.197  0.00  0.00    +0.000 A 
ATOM     27  C   UNL     1       5.509   5.150  16.183  0.00  0.00    +0.000 A 
ATOM     28  C   UNL     1       5.088   3.837  16.031  0.00  0.00    +0.000 A 
ATOM     29  C   UNL     1       4.191   3.286  16.954  0.00  0.00    +0.000 A 
ATOM     30  C   UNL     1       3.657   4.053  17.999  0.00  0.00    +0.000 A 
BRANCH  27  31
ATOM     31  O   UNL     1       6.424   5.808  15.412  0.00  0.00    +0.000 OA
ATOM     32  C   UNL     1       7.094   5.052  14.412  0.00  0.00    +0.000 C 
ENDBRANCH  27  31
BRANCH  30  33
ATOM     33  O   UNL     1       2.813   3.362  18.827  0.00  0.00    +0.000 OA
ATOM     34  C   UNL     1       2.980   1.947  18.880  0.00  0.00    +0.000 C 
ENDBRANCH  30  33
ENDBRANCH  24  25
ENDBRANCH  22  24
ENDBRANCH  19  20
ENDBRANCH   8  19
TORSDOF 8
ENDMDL
MODEL 9
REMARK VINA RESULT:      -7.6      1.731      2.307
REMARK  Name = 
REMARK  12 active torsions:
REMARK  status: ('A' for Active; 'I' for Inactive)
REMARK    1  A    between atoms: C_1  and  C_2
REMARK    2  A    between atoms: C_2  and  C_3
REMARK    3  A    between atoms: C_4  and  C_5
REMARK    4  A    between atoms: C_8  and  C_9
REMARK    5  A    between atoms: N_17  and  C_18
REMARK    6  A    between atoms: C_18  and  C_19
REMARK    7  A    between atoms: N_21  and  C_22
REMARK    8  A    between atoms: C_22  and  C_23
REMARK    9  A    between atoms: C_25  and  O_26
REMARK   10  A    between atoms: O_26  and  C_27
REMARK   11  A    between atoms: C_30  and  O_31
REMARK   12  A    between atoms: O_31  and  C_32
REMARK                            x       y       z     vdW  Elec       q    Type
REMARK                         _______ _______ _______ _____ _____    ______ ____
ROOT
ATOM      1  C   UNL     1       2.264   7.457  19.187  0.00  0.00    +0.000 C 
ATOM      2  C   UNL     1       2.696   6.246  18.815  0.00  0.00    +0.000 C 
ATOM      3  S   UNL     1       2.246   4.995  19.897  0.00  0.00    +0.000 S 
ATOM      4  O   UNL     1       1.228   4.161  19.293  0.00  0.00    +0.000 OA
ATOM      5  O   UNL     1       3.420   4.428  20.533  0.00  0.00    +0.000 OA
ATOM      6  N   UNL     1       1.534   6.042  20.933  0.00  0.00    +0.000 NA
ATOM      7  C   UNL     1       1.575   7.267  20.495  0.00  0.00    +0.000 C 
ATOM      8  N   UNL     1       0.995   8.213  21.304  0.00  0.00    +0.000 N 
ATOM      9  H   UNL     1       0.813   7.864  22.246  0.00  0.00    +0.000 HD
ENDROOT
BRANCH   2  10
ATOM     10  C   UNL     1       3.533   5.831  17.699  0.00  0.00    +0.000 A 
ATOM     11  C   UNL     1       3.531   4.486  17.301  0.00  0.00    +0.000 A 
ATOM     12  C   UNL     1       4.427   4.024  16.335  0.00  0.00    +0.000 A 
ATOM     13  C   UNL     1       5.348   4.894  15.747  0.00  0.00    +0.000 A 
ATOM     14  C   UNL     1       6.342   4.391  14.739  0.00  0.00    +0.000 C 
ATOM     15  C   UNL     1       5.324   6.247  16.108  0.00  0.00    +0.000 A 
ATOM     16  C   UNL     1       4.429   6.712  17.082  0.00  0.00    +0.000 A 
ENDBRANCH   2  10
BRANCH   1  18
ATOM     17  C   UNL     1       1.216   9.158  17.663  0.00  0.00    +0.000 C 
ATOM     18  C   UNL     1       2.450   8.732  18.446  0.00  0.00    +0.000 C 
ENDBRANCH   1  18
BRANCH   8  19
ATOM     19  C   UNL     1       1.007   9.660  21.176  0.00  0.00    +0.000 C 
BRANCH  19  20
ATOM     20  C   UNL     1       0.095  10.332  22.211  0.00  0.00    +0.000 C 
ATOM     21  O   UNL     1       0.077   9.994  23.390  0.00  0.00    +0.000 OA
ATOM     22  N   UNL     1      -0.645  11.376  21.707  0.00  0.00    +0.000 N 
ATOM     23  H   UNL     1      -0.576  11.596  20.719  0.00  0.00    +0.000 HD
BRANCH  22  24
ATOM     24  C   UNL     1      -1.522  12.199  22.522  0.00  0.00    +0.000 C 
BRANCH  24  25
ATOM     25  C   UNL     1      -2.801  12.546  21.801  0.00  0.00    +0.000 A 
ATOM     26  C   UNL     1      -3.970  12.755  22.562  0.00  0.00    +0.000 A 
ATOM     27  C   UNL     1      -5.232  12.833  21.972  0.00  0.00    +0.000 A 
ATOM     28  C   UNL     1      -5.336  12.726  20.593  0.00  0.00    +0.000 A 
ATOM     29  C   UNL     1      -4.174  12.649  19.815  0.00  0.00    +0.000 A 
ATOM     30  C   UNL     1      -2.903  12.613  20.405  0.00  0.00    +0.000 A 
BRANCH  27  31
ATOM     31  O   UNL     1      -6.260  12.982  22.859  0.00  0.00    +0.000 OA
ATOM     32  C   UNL     1      -6.242  14.141  23.683  0.00  0.00    +0.000 C 
ENDBRANCH  27  31
BRANCH  30  33
ATOM     33  O   UNL     1      -1.870  12.559  19.507  0.00  0.00    +0.000 OA
ATOM     34  C   UNL     1      -2.057  11.732  18.360  0.00  0.00    +0.000 C 
ENDBRANCH  30  33
ENDBRANCH  24  25
ENDBRANCH  22  24
ENDBRANCH  19  20
ENDBRANCH   8  19
TORSDOF 8
ENDMDL
