MODEL 1
REMARK VINA RESULT:      -7.3      0.000      0.000
REMARK  Name = 
REMARK  10 active torsions:
REMARK  status: ('A' for Active; 'I' for Inactive)
REMARK    1  A    between atoms: C_1  and  C_2
REMARK    2  A    between atoms: C_4  and  C_5
REMARK    3  A    between atoms: C_7  and  N_8
REMARK    4  A    between atoms: N_8  and  C_9
REMARK    5  A    between atoms: C_9  and  C_10
REMARK    6  A    between atoms: C_10  and  C_11
REMARK    7  A    between atoms: C_13  and  C_15
REMARK    8  A    between atoms: C_15  and  S_16
REMARK    9  A    between atoms: S_16  and  C_17
REMARK   10  A    between atoms: C_19  and  O_20
REMARK                            x       y       z     vdW  Elec       q    Type
REMARK                         _______ _______ _______ _____ _____    ______ ____
ROOT
ATOM      1  N   UNL     1       1.029   9.343  20.555  0.00  0.00    +0.000 N 
ATOM      2  C   UNL     1       1.613   8.274  19.844  0.00  0.00    +0.000 C 
ATOM      3  O   UNL     1       1.670   8.241  18.610  0.00  0.00    +0.000 OA
ENDROOT
BRANCH   1  10
ATOM      4  C   UNL     1      -2.615  11.229  17.671  0.00  0.00    +0.000 C 
ATOM      5  C   UNL     1      -1.298  11.387  18.378  0.00  0.00    +0.000 A 
ATOM      6  C   UNL     1      -0.596  12.593  18.292  0.00  0.00    +0.000 A 
ATOM      7  C   UNL     1       0.618  12.755  18.969  0.00  0.00    +0.000 A 
ATOM      8  C   UNL     1       1.356  14.061  18.885  0.00  0.00    +0.000 C 
ATOM      9  C   UNL     1       1.135  11.683  19.731  0.00  0.00    +0.000 A 
ATOM     10  C   UNL     1       0.467  10.452  19.809  0.00  0.00    +0.000 A 
ATOM     11  C   UNL     1      -0.761  10.329  19.140  0.00  0.00    +0.000 A 
ENDBRANCH   1  10
BRANCH   1  12
ATOM     12  C   UNL     1       0.942   9.315  22.036  0.00  0.00    +0.000 C 
BRANCH  12  13
ATOM     13  C   UNL     1      -0.427   9.283  22.665  0.00  0.00    +0.000 C 
BRANCH  13  14
ATOM     14  C   UNL     1      -1.037  10.635  23.000  0.00  0.00    +0.000 C 
ATOM     15  N   UNL     1      -1.544  11.755  23.277  0.00  0.00    +0.000 NA
ENDBRANCH  13  14
ENDBRANCH  12  13
ENDBRANCH   1  12
BRANCH   2  16
ATOM     16  C   UNL     1       2.249   7.129  20.652  0.00  0.00    +0.000 C 
BRANCH  16  17
ATOM     17  S   UNL     1       2.038   5.551  19.764  0.00  0.00    +0.000 S 
BRANCH  17  18
ATOM     18  C   UNL     1       3.595   5.397  18.908  0.00  0.00    +0.000 A 
ATOM     19  N   UNL     1       4.684   5.441  19.691  0.00  0.00    +0.000 NA
ATOM     20  C   UNL     1       5.848   5.235  19.068  0.00  0.00    +0.000 A 
ATOM     21  C   UNL     1       6.008   4.977  17.717  0.00  0.00    +0.000 A 
ATOM     22  C   UNL     1       7.249   4.722  17.085  0.00  0.00    +0.000 A 
ATOM     23  C   UNL     1       7.297   4.452  15.722  0.00  0.00    +0.000 A 
ATOM     24  C   UNL     1       6.115   4.455  14.991  0.00  0.00    +0.000 A 
ATOM     25  C   UNL     1       4.894   4.719  15.631  0.00  0.00    +0.000 A 
ATOM     26  C   UNL     1       4.811   4.970  16.998  0.00  0.00    +0.000 A 
ATOM     27  N   UNL     1       3.612   5.176  17.582  0.00  0.00    +0.000 NA
BRANCH  20  28
ATOM     28  O   UNL     1       6.922   5.274  19.905  0.00  0.00    +0.000 OA
ATOM     29  H   UNL     1       7.255   6.174  19.737  0.00  0.00    +0.000 HD
ENDBRANCH  20  28
ENDBRANCH  17  18
ENDBRANCH  16  17
ENDBRANCH   2  16
TORSDOF 8
ENDMDL
MODEL 2
REMARK VINA RESULT:      -7.3      2.757      4.608
REMARK  Name = 
REMARK  10 active torsions:
REMARK  status: ('A' for Active; 'I' for Inactive)
REMARK    1  A    between atoms: C_1  and  C_2
REMARK    2  A    between atoms: C_4  and  C_5
REMARK    3  A    between atoms: C_7  and  N_8
REMARK    4  A    between atoms: N_8  and  C_9
REMARK    5  A    between atoms: C_9  and  C_10
REMARK    6  A    between atoms: C_10  and  C_11
REMARK    7  A    between atoms: C_13  and  C_15
REMARK    8  A    between atoms: C_15  and  S_16
REMARK    9  A    between atoms: S_16  and  C_17
REMARK   10  A    between atoms: C_19  and  O_20
REMARK                            x       y       z     vdW  Elec       q    Type
REMARK                         _______ _______ _______ _____ _____    ______ ____
ROOT
ATOM      1  N   UNL     1       2.756   5.862  19.979  0.00  0.00    +0.000 N 
ATOM      2  C   UNL     1       3.854   5.743  19.102  0.00  0.00    +0.000 C 
ATOM      3  O   UNL     1       4.237   6.668  18.377  0.00  0.00    +0.000 OA
ENDROOT
BRANCH   1  10
ATOM      4  C   UNL     1       1.358  10.155  17.794  0.00  0.00    +0.000 C 
ATOM      5  C   UNL     1       1.363   9.240  18.987  0.00  0.00    +0.000 A 
ATOM      6  C   UNL     1       0.703   9.614  20.161  0.00  0.00    +0.000 A 
ATOM      7  C   UNL     1       0.682   8.755  21.265  0.00  0.00    +0.000 A 
ATOM      8  C   UNL     1      -0.045   9.160  22.517  0.00  0.00    +0.000 C 
ATOM      9  C   UNL     1       1.344   7.509  21.187  0.00  0.00    +0.000 A 
ATOM     10  C   UNL     1       2.040   7.122  20.032  0.00  0.00    +0.000 A 
ATOM     11  C   UNL     1       2.021   7.994  18.933  0.00  0.00    +0.000 A 
ENDBRANCH   1  10
BRANCH   1  12
ATOM     12  C   UNL     1       2.304   4.709  20.795  0.00  0.00    +0.000 C 
BRANCH  12  13
ATOM     13  C   UNL     1       0.935   4.141  20.525  0.00  0.00    +0.000 C 
BRANCH  13  14
ATOM     14  C   UNL     1       0.870   3.018  19.502  0.00  0.00    +0.000 C 
ATOM     15  N   UNL     1       0.816   2.087  18.654  0.00  0.00    +0.000 NA
ENDBRANCH  13  14
ENDBRANCH  12  13
ENDBRANCH   1  12
BRANCH   2  16
ATOM     16  C   UNL     1       4.633   4.416  19.094  0.00  0.00    +0.000 C 
BRANCH  16  17
ATOM     17  S   UNL     1       4.112   3.398  17.674  0.00  0.00    +0.000 S 
BRANCH  17  18
ATOM     18  C   UNL     1       5.138   4.038  16.363  0.00  0.00    +0.000 A 
ATOM     19  N   UNL     1       6.030   4.968  16.739  0.00  0.00    +0.000 NA
ATOM     20  C   UNL     1       6.863   5.385  15.780  0.00  0.00    +0.000 A 
ATOM     21  C   UNL     1       6.879   4.934  14.471  0.00  0.00    +0.000 A 
ATOM     22  C   UNL     1       7.798   5.363  13.481  0.00  0.00    +0.000 A 
ATOM     23  C   UNL     1       7.742   4.829  12.199  0.00  0.00    +0.000 A 
ATOM     24  C   UNL     1       6.763   3.888  11.901  0.00  0.00    +0.000 A 
ATOM     25  C   UNL     1       5.854   3.482  12.890  0.00  0.00    +0.000 A 
ATOM     26  C   UNL     1       5.899   3.981  14.189  0.00  0.00    +0.000 A 
ATOM     27  N   UNL     1       5.034   3.532  15.122  0.00  0.00    +0.000 NA
BRANCH  20  28
ATOM     28  O   UNL     1       7.758   6.317  16.211  0.00  0.00    +0.000 OA
ATOM     29  H   UNL     1       7.433   7.112  15.753  0.00  0.00    +0.000 HD
ENDBRANCH  20  28
ENDBRANCH  17  18
ENDBRANCH  16  17
ENDBRANCH   2  16
TORSDOF 8
ENDMDL
MODEL 3
REMARK VINA RESULT:      -7.2      2.224      9.129
REMARK  Name = 
REMARK  10 active torsions:
REMARK  status: ('A' for Active; 'I' for Inactive)
REMARK    1  A    between atoms: C_1  and  C_2
REMARK    2  A    between atoms: C_4  and  C_5
REMARK    3  A    between atoms: C_7  and  N_8
REMARK    4  A    between atoms: N_8  and  C_9
REMARK    5  A    between atoms: C_9  and  C_10
REMARK    6  A    between atoms: C_10  and  C_11
REMARK    7  A    between atoms: C_13  and  C_15
REMARK    8  A    between atoms: C_15  and  S_16
REMARK    9  A    between atoms: S_16  and  C_17
REMARK   10  A    between atoms: C_19  and  O_20
REMARK                            x       y       z     vdW  Elec       q    Type
REMARK                         _______ _______ _______ _____ _____    ______ ____
ROOT
ATOM      1  N   UNL     1       3.346   6.082  18.473  0.00  0.00    +0.000 N 
ATOM      2  C   UNL     1       2.974   7.402  18.144  0.00  0.00    +0.000 C 
ATOM      3  O   UNL     1       3.689   8.153  17.472  0.00  0.00    +0.000 OA
ENDROOT
BRANCH   1  10
ATOM      4  C   UNL     1       8.254   5.362  19.214  0.00  0.00    +0.000 C 
ATOM      5  C   UNL     1       7.035   5.240  18.343  0.00  0.00    +0.000 A 
ATOM      6  C   UNL     1       7.138   4.673  17.070  0.00  0.00    +0.000 A 
ATOM      7  C   UNL     1       6.002   4.534  16.264  0.00  0.00    +0.000 A 
ATOM      8  C   UNL     1       6.120   3.908  14.903  0.00  0.00    +0.000 C 
ATOM      9  C   UNL     1       4.751   4.982  16.745  0.00  0.00    +0.000 A 
ATOM     10  C   UNL     1       4.626   5.583  18.007  0.00  0.00    +0.000 A 
ATOM     11  C   UNL     1       5.778   5.685  18.802  0.00  0.00    +0.000 A 
ENDBRANCH   1  10
BRANCH   1  12
ATOM     12  C   UNL     1       2.474   5.233  19.321  0.00  0.00    +0.000 C 
BRANCH  12  13
ATOM     13  C   UNL     1       1.676   4.144  18.651  0.00  0.00    +0.000 C 
BRANCH  13  14
ATOM     14  C   UNL     1       2.385   2.811  18.476  0.00  0.00    +0.000 C 
ATOM     15  N   UNL     1       2.973   1.705  18.331  0.00  0.00    +0.000 NA
ENDBRANCH  13  14
ENDBRANCH  12  13
ENDBRANCH   1  12
BRANCH   2  16
ATOM     16  C   UNL     1       1.592   7.900  18.603  0.00  0.00    +0.000 C 
BRANCH  16  17
ATOM     17  S   UNL     1       1.451   9.695  18.317  0.00  0.00    +0.000 S 
BRANCH  17  18
ATOM     18  C   UNL     1       0.480  10.218  19.718  0.00  0.00    +0.000 A 
ATOM     19  N   UNL     1       0.920   9.788  20.910  0.00  0.00    +0.000 NA
ATOM     20  C   UNL     1       0.250  10.250  21.971  0.00  0.00    +0.000 A 
ATOM     21  C   UNL     1      -0.824  11.123  21.930  0.00  0.00    +0.000 A 
ATOM     22  C   UNL     1      -1.494  11.631  23.070  0.00  0.00    +0.000 A 
ATOM     23  C   UNL     1      -2.550  12.522  22.920  0.00  0.00    +0.000 A 
ATOM     24  C   UNL     1      -2.949  12.887  21.640  0.00  0.00    +0.000 A 
ATOM     25  C   UNL     1      -2.281  12.367  20.521  0.00  0.00    +0.000 A 
ATOM     26  C   UNL     1      -1.205  11.491  20.639  0.00  0.00    +0.000 A 
ATOM     27  N   UNL     1      -0.563  11.047  19.539  0.00  0.00    +0.000 NA
BRANCH  20  28
ATOM     28  O   UNL     1       0.742   9.798  23.158  0.00  0.00    +0.000 OA
ATOM     29  H   UNL     1       0.859   8.852  22.961  0.00  0.00    +0.000 HD
ENDBRANCH  20  28
ENDBRANCH  17  18
ENDBRANCH  16  17
ENDBRANCH   2  16
TORSDOF 8
ENDMDL
MODEL 4
REMARK VINA RESULT:      -7.2      2.263      8.915
REMARK  Name = 
REMARK  10 active torsions:
REMARK  status: ('A' for Active; 'I' for Inactive)
REMARK    1  A    between atoms: C_1  and  C_2
REMARK    2  A    between atoms: C_4  and  C_5
REMARK    3  A    between atoms: C_7  and  N_8
REMARK    4  A    between atoms: N_8  and  C_9
REMARK    5  A    between atoms: C_9  and  C_10
REMARK    6  A    between atoms: C_10  and  C_11
REMARK    7  A    between atoms: C_13  and  C_15
REMARK    8  A    between atoms: C_15  and  S_16
REMARK    9  A    between atoms: S_16  and  C_17
REMARK   10  A    between atoms: C_19  and  O_20
REMARK                            x       y       z     vdW  Elec       q    Type
REMARK                         _______ _______ _______ _____ _____    ______ ____
ROOT
ATOM      1  N   UNL     1       3.433   6.169  18.682  0.00  0.00    +0.000 N 
ATOM      2  C   UNL     1       2.938   7.398  18.200  0.00  0.00    +0.000 C 
ATOM      3  O   UNL     1       3.519   8.063  17.336  0.00  0.00    +0.000 OA
ENDROOT
BRANCH   1  10
ATOM      4  C   UNL     1       5.973   3.911  14.994  0.00  0.00    +0.000 C 
ATOM      5  C   UNL     1       5.939   4.539  16.359  0.00  0.00    +0.000 A 
ATOM      6  C   UNL     1       7.104   4.607  17.129  0.00  0.00    +0.000 A 
ATOM      7  C   UNL     1       7.083   5.213  18.391  0.00  0.00    +0.000 A 
ATOM      8  C   UNL     1       8.345   5.296  19.203  0.00  0.00    +0.000 C 
ATOM      9  C   UNL     1       5.871   5.744  18.885  0.00  0.00    +0.000 A 
ATOM     10  C   UNL     1       4.681   5.662  18.146  0.00  0.00    +0.000 A 
ATOM     11  C   UNL     1       4.739   5.072  16.874  0.00  0.00    +0.000 A 
ENDBRANCH   1  10
BRANCH   1  12
ATOM     12  C   UNL     1       2.722   5.429  19.754  0.00  0.00    +0.000 C 
BRANCH  12  13
ATOM     13  C   UNL     1       2.658   3.926  19.654  0.00  0.00    +0.000 C 
BRANCH  13  14
ATOM     14  C   UNL     1       2.545   3.177  20.972  0.00  0.00    +0.000 C 
ATOM     15  N   UNL     1       2.450   2.555  22.065  0.00  0.00    +0.000 NA
ENDBRANCH  13  14
ENDBRANCH  12  13
ENDBRANCH   1  12
BRANCH   2  16
ATOM     16  C   UNL     1       1.587   7.897  18.743  0.00  0.00    +0.000 C 
BRANCH  16  17
ATOM     17  S   UNL     1       1.394   9.675  18.389  0.00  0.00    +0.000 S 
BRANCH  17  18
ATOM     18  C   UNL     1       0.422  10.226  19.779  0.00  0.00    +0.000 A 
ATOM     19  N   UNL     1       0.842   9.790  20.977  0.00  0.00    +0.000 NA
ATOM     20  C   UNL     1       0.173  10.272  22.030  0.00  0.00    +0.000 A 
ATOM     21  C   UNL     1      -0.880  11.169  21.977  0.00  0.00    +0.000 A 
ATOM     22  C   UNL     1      -1.547  11.698  23.109  0.00  0.00    +0.000 A 
ATOM     23  C   UNL     1      -2.581  12.612  22.946  0.00  0.00    +0.000 A 
ATOM     24  C   UNL     1      -2.960  12.982  21.661  0.00  0.00    +0.000 A 
ATOM     25  C   UNL     1      -2.295  12.442  20.550  0.00  0.00    +0.000 A 
ATOM     26  C   UNL     1      -1.240  11.541  20.681  0.00  0.00    +0.000 A 
ATOM     27  N   UNL     1      -0.599  11.079  19.587  0.00  0.00    +0.000 NA
BRANCH  20  28
ATOM     28  O   UNL     1       0.644   9.813  23.223  0.00  0.00    +0.000 OA
ATOM     29  H   UNL     1      -0.018  10.179  23.836  0.00  0.00    +0.000 HD
ENDBRANCH  20  28
ENDBRANCH  17  18
ENDBRANCH  16  17
ENDBRANCH   2  16
TORSDOF 8
ENDMDL
MODEL 5
REMARK VINA RESULT:      -7.2      2.376      9.062
REMARK  Name = 
REMARK  10 active torsions:
REMARK  status: ('A' for Active; 'I' for Inactive)
REMARK    1  A    between atoms: C_1  and  C_2
REMARK    2  A    between atoms: C_4  and  C_5
REMARK    3  A    between atoms: C_7  and  N_8
REMARK    4  A    between atoms: N_8  and  C_9
REMARK    5  A    between atoms: C_9  and  C_10
REMARK    6  A    between atoms: C_10  and  C_11
REMARK    7  A    between atoms: C_13  and  C_15
REMARK    8  A    between atoms: C_15  and  S_16
REMARK    9  A    between atoms: S_16  and  C_17
REMARK   10  A    between atoms: C_19  and  O_20
REMARK                            x       y       z     vdW  Elec       q    Type
REMARK                         _______ _______ _______ _____ _____    ______ ____
ROOT
ATOM      1  N   UNL     1       3.290   6.189  18.924  0.00  0.00    +0.000 N 
ATOM      2  C   UNL     1       2.822   7.458  18.524  0.00  0.00    +0.000 C 
ATOM      3  O   UNL     1       3.400   8.150  17.679  0.00  0.00    +0.000 OA
ENDROOT
BRANCH   1  10
ATOM      4  C   UNL     1       8.226   5.331  19.157  0.00  0.00    +0.000 C 
ATOM      5  C   UNL     1       6.924   5.262  18.408  0.00  0.00    +0.000 A 
ATOM      6  C   UNL     1       6.886   4.729  17.117  0.00  0.00    +0.000 A 
ATOM      7  C   UNL     1       5.672   4.639  16.425  0.00  0.00    +0.000 A 
ATOM      8  C   UNL     1       5.639   4.048  15.043  0.00  0.00    +0.000 C 
ATOM      9  C   UNL     1       4.488   5.104  17.039  0.00  0.00    +0.000 A 
ATOM     10  C   UNL     1       4.503   5.672  18.322  0.00  0.00    +0.000 A 
ATOM     11  C   UNL     1       5.731   5.725  19.000  0.00  0.00    +0.000 A 
ENDBRANCH   1  10
BRANCH   1  12
ATOM     12  C   UNL     1       2.588   5.415  19.977  0.00  0.00    +0.000 C 
BRANCH  12  13
ATOM     13  C   UNL     1       2.630   3.911  19.899  0.00  0.00    +0.000 C 
BRANCH  13  14
ATOM     14  C   UNL     1       2.112   3.166  21.118  0.00  0.00    +0.000 C 
ATOM     15  N   UNL     1       1.682   2.549  22.130  0.00  0.00    +0.000 NA
ENDBRANCH  13  14
ENDBRANCH  12  13
ENDBRANCH   1  12
BRANCH   2  16
ATOM     16  C   UNL     1       1.507   7.971  19.136  0.00  0.00    +0.000 C 
BRANCH  16  17
ATOM     17  S   UNL     1       1.209   9.693  18.618  0.00  0.00    +0.000 S 
BRANCH  17  18
ATOM     18  C   UNL     1       0.217  10.318  19.961  0.00  0.00    +0.000 A 
ATOM     19  N   UNL     1       0.559   9.871  21.179  0.00  0.00    +0.000 NA
ATOM     20  C   UNL     1      -0.122  10.406  22.198  0.00  0.00    +0.000 A 
ATOM     21  C   UNL     1      -1.115  11.364  22.093  0.00  0.00    +0.000 A 
ATOM     22  C   UNL     1      -1.795  11.945  23.191  0.00  0.00    +0.000 A 
ATOM     23  C   UNL     1      -2.764  12.919  22.977  0.00  0.00    +0.000 A 
ATOM     24  C   UNL     1      -3.066  13.295  21.674  0.00  0.00    +0.000 A 
ATOM     25  C   UNL     1      -2.390  12.703  20.596  0.00  0.00    +0.000 A 
ATOM     26  C   UNL     1      -1.399  11.742  20.780  0.00  0.00    +0.000 A 
ATOM     27  N   UNL     1      -0.742  11.229  19.719  0.00  0.00    +0.000 NA
BRANCH  20  28
ATOM     28  O   UNL     1       0.271   9.933  23.414  0.00  0.00    +0.000 OA
ATOM     29  H   UNL     1      -0.508  10.152  23.958  0.00  0.00    +0.000 HD
ENDBRANCH  20  28
ENDBRANCH  17  18
ENDBRANCH  16  17
ENDBRANCH   2  16
TORSDOF 8
ENDMDL
MODEL 6
REMARK VINA RESULT:      -7.1      2.193      9.081
REMARK  Name = 
REMARK  10 active torsions:
REMARK  status: ('A' for Active; 'I' for Inactive)
REMARK    1  A    between atoms: C_1  and  C_2
REMARK    2  A    between atoms: C_4  and  C_5
REMARK    3  A    between atoms: C_7  and  N_8
REMARK    4  A    between atoms: N_8  and  C_9
REMARK    5  A    between atoms: C_9  and  C_10
REMARK    6  A    between atoms: C_10  and  C_11
REMARK    7  A    between atoms: C_13  and  C_15
REMARK    8  A    between atoms: C_15  and  S_16
REMARK    9  A    between atoms: S_16  and  C_17
REMARK   10  A    between atoms: C_19  and  O_20
REMARK                            x       y       z     vdW  Elec       q    Type
REMARK                         _______ _______ _______ _____ _____    ______ ____
ROOT
ATOM      1  N   UNL     1       3.426   6.013  18.309  0.00  0.00    +0.000 N 
ATOM      2  C   UNL     1       3.091   7.375  18.160  0.00  0.00    +0.000 C 
ATOM      3  O   UNL     1       3.847   8.199  17.635  0.00  0.00    +0.000 OA
ENDROOT
BRANCH   1  10
ATOM      4  C   UNL     1       6.244   4.009  14.676  0.00  0.00    +0.000 C 
ATOM      5  C   UNL     1       6.109   4.557  16.069  0.00  0.00    +0.000 A 
ATOM      6  C   UNL     1       7.220   4.600  16.916  0.00  0.00    +0.000 A 
ATOM      7  C   UNL     1       7.106   5.133  18.206  0.00  0.00    +0.000 A 
ATOM      8  C   UNL     1       8.310   5.189  19.102  0.00  0.00    +0.000 C 
ATOM      9  C   UNL     1       5.854   5.616  18.648  0.00  0.00    +0.000 A 
ATOM     10  C   UNL     1       4.716   5.558  17.829  0.00  0.00    +0.000 A 
ATOM     11  C   UNL     1       4.868   5.042  16.533  0.00  0.00    +0.000 A 
ENDBRANCH   1  10
BRANCH   1  12
ATOM     12  C   UNL     1       2.504   5.071  18.989  0.00  0.00    +0.000 C 
BRANCH  12  13
ATOM     13  C   UNL     1       1.921   3.942  18.179  0.00  0.00    +0.000 C 
BRANCH  13  14
ATOM     14  C   UNL     1       2.658   2.615  18.260  0.00  0.00    +0.000 C 
ATOM     15  N   UNL     1       3.269   1.514  18.326  0.00  0.00    +0.000 NA
ENDBRANCH  13  14
ENDBRANCH  12  13
ENDBRANCH   1  12
BRANCH   2  16
ATOM     16  C   UNL     1       1.699   7.833  18.630  0.00  0.00    +0.000 C 
BRANCH  16  17
ATOM     17  S   UNL     1       1.468   9.602  18.258  0.00  0.00    +0.000 S 
BRANCH  17  18
ATOM     18  C   UNL     1       0.508  10.152  19.657  0.00  0.00    +0.000 A 
ATOM     19  N   UNL     1       0.936   9.714  20.851  0.00  0.00    +0.000 NA
ATOM     20  C   UNL     1       0.276  10.195  21.909  0.00  0.00    +0.000 A 
ATOM     21  C   UNL     1      -0.777  11.094  21.866  0.00  0.00    +0.000 A 
ATOM     22  C   UNL     1      -1.435  11.621  23.004  0.00  0.00    +0.000 A 
ATOM     23  C   UNL     1      -2.469  12.537  22.851  0.00  0.00    +0.000 A 
ATOM     24  C   UNL     1      -2.857  12.909  21.569  0.00  0.00    +0.000 A 
ATOM     25  C   UNL     1      -2.201  12.370  20.452  0.00  0.00    +0.000 A 
ATOM     26  C   UNL     1      -1.147  11.468  20.573  0.00  0.00    +0.000 A 
ATOM     27  N   UNL     1      -0.514  11.007  19.475  0.00  0.00    +0.000 NA
BRANCH  20  28
ATOM     28  O   UNL     1       0.755   9.734  23.098  0.00  0.00    +0.000 OA
ATOM     29  H   UNL     1      -0.027   9.272  23.447  0.00  0.00    +0.000 HD
ENDBRANCH  20  28
ENDBRANCH  17  18
ENDBRANCH  16  17
ENDBRANCH   2  16
TORSDOF 8
ENDMDL
MODEL 7
REMARK VINA RESULT:      -7.1      2.476      8.901
REMARK  Name = 
REMARK  10 active torsions:
REMARK  status: ('A' for Active; 'I' for Inactive)
REMARK    1  A    between atoms: C_1  and  C_2
REMARK    2  A    between atoms: C_4  and  C_5
REMARK    3  A    between atoms: C_7  and  N_8
REMARK    4  A    between atoms: N_8  and  C_9
REMARK    5  A    between atoms: C_9  and  C_10
REMARK    6  A    between atoms: C_10  and  C_11
REMARK    7  A    between atoms: C_13  and  C_15
REMARK    8  A    between atoms: C_15  and  S_16
REMARK    9  A    between atoms: S_16  and  C_17
REMARK   10  A    between atoms: C_19  and  O_20
REMARK                            x       y       z     vdW  Elec       q    Type
REMARK                         _______ _______ _______ _____ _____    ______ ____
ROOT
ATOM      1  N   UNL     1       3.278   6.098  18.653  0.00  0.00    +0.000 N 
ATOM      2  C   UNL     1       2.845   7.371  18.228  0.00  0.00    +0.000 C 
ATOM      3  O   UNL     1       3.498   8.079  17.454  0.00  0.00    +0.000 OA
ENDROOT
BRANCH   1  10
ATOM      4  C   UNL     1       8.216   5.462  19.255  0.00  0.00    +0.000 C 
ATOM      5  C   UNL     1       6.971   5.293  18.431  0.00  0.00    +0.000 A 
ATOM      6  C   UNL     1       7.037   4.678  17.177  0.00  0.00    +0.000 A 
ATOM      7  C   UNL     1       5.877   4.495  16.416  0.00  0.00    +0.000 A 
ATOM      8  C   UNL     1       5.957   3.819  15.077  0.00  0.00    +0.000 C 
ATOM      9  C   UNL     1       4.638   4.948  16.922  0.00  0.00    +0.000 A 
ATOM     10  C   UNL     1       4.547   5.595  18.164  0.00  0.00    +0.000 A 
ATOM     11  C   UNL     1       5.724   5.741  18.914  0.00  0.00    +0.000 A 
ENDBRANCH   1  10
BRANCH   1  12
ATOM     12  C   UNL     1       2.480   5.305  19.620  0.00  0.00    +0.000 C 
BRANCH  12  13
ATOM     13  C   UNL     1       3.003   3.951  20.028  0.00  0.00    +0.000 C 
BRANCH  13  14
ATOM     14  C   UNL     1       2.232   3.245  21.131  0.00  0.00    +0.000 C 
ATOM     15  N   UNL     1       1.592   2.659  22.047  0.00  0.00    +0.000 NA
ENDBRANCH  13  14
ENDBRANCH  12  13
ENDBRANCH   1  12
BRANCH   2  16
ATOM     16  C   UNL     1       1.473   7.869  18.717  0.00  0.00    +0.000 C 
BRANCH  16  17
ATOM     17  S   UNL     1       1.539   9.664  19.031  0.00  0.00    +0.000 S 
BRANCH  17  18
ATOM     18  C   UNL     1      -0.135  10.164  18.672  0.00  0.00    +0.000 A 
ATOM     19  N   UNL     1      -0.705  10.955  19.594  0.00  0.00    +0.000 NA
ATOM     20  C   UNL     1      -1.925  11.407  19.288  0.00  0.00    +0.000 A 
ATOM     21  C   UNL     1      -2.618  11.135  18.120  0.00  0.00    +0.000 A 
ATOM     22  C   UNL     1      -3.895  11.658  17.800  0.00  0.00    +0.000 A 
ATOM     23  C   UNL     1      -4.496  11.340  16.587  0.00  0.00    +0.000 A 
ATOM     24  C   UNL     1      -3.835  10.490  15.709  0.00  0.00    +0.000 A 
ATOM     25  C   UNL     1      -2.575   9.972  16.046  0.00  0.00    +0.000 A 
ATOM     26  C   UNL     1      -1.937  10.291  17.242  0.00  0.00    +0.000 A 
ATOM     27  N   UNL     1      -0.706   9.807  17.508  0.00  0.00    +0.000 NA
BRANCH  20  28
ATOM     28  O   UNL     1      -2.456  12.217  20.246  0.00  0.00    +0.000 OA
ATOM     29  H   UNL     1      -1.651  12.629  20.606  0.00  0.00    +0.000 HD
ENDBRANCH  20  28
ENDBRANCH  17  18
ENDBRANCH  16  17
ENDBRANCH   2  16
TORSDOF 8
ENDMDL
MODEL 8
REMARK VINA RESULT:      -7.1      1.426      1.556
REMARK  Name = 
REMARK  10 active torsions:
REMARK  status: ('A' for Active; 'I' for Inactive)
REMARK    1  A    between atoms: C_1  and  C_2
REMARK    2  A    between atoms: C_4  and  C_5
REMARK    3  A    between atoms: C_7  and  N_8
REMARK    4  A    between atoms: N_8  and  C_9
REMARK    5  A    between atoms: C_9  and  C_10
REMARK    6  A    between atoms: C_10  and  C_11
REMARK    7  A    between atoms: C_13  and  C_15
REMARK    8  A    between atoms: C_15  and  S_16
REMARK    9  A    between atoms: S_16  and  C_17
REMARK   10  A    between atoms: C_19  and  O_20
REMARK                            x       y       z     vdW  Elec       q    Type
REMARK                         _______ _______ _______ _____ _____    ______ ____
ROOT
ATOM      1  N   UNL     1       0.347   9.135  20.296  0.00  0.00    +0.000 N 
ATOM      2  C   UNL     1       1.470   8.485  19.745  0.00  0.00    +0.000 C 
ATOM      3  O   UNL     1       1.917   8.752  18.624  0.00  0.00    +0.000 OA
ENDROOT
BRANCH   1  10
ATOM      4  C   UNL     1      -3.163  10.464  16.969  0.00  0.00    +0.000 C 
ATOM      5  C   UNL     1      -2.017  10.828  17.871  0.00  0.00    +0.000 A 
ATOM      6  C   UNL     1      -1.569  12.150  17.936  0.00  0.00    +0.000 A 
ATOM      7  C   UNL     1      -0.518  12.499  18.794  0.00  0.00    +0.000 A 
ATOM      8  C   UNL     1      -0.055  13.927  18.869  0.00  0.00    +0.000 C 
ATOM      9  C   UNL     1       0.092  11.500  19.584  0.00  0.00    +0.000 A 
ATOM     10  C   UNL     1      -0.318  10.160  19.516  0.00  0.00    +0.000 A 
ATOM     11  C   UNL     1      -1.390   9.846  18.666  0.00  0.00    +0.000 A 
ENDBRANCH   1  10
BRANCH   1  12
ATOM     12  C   UNL     1      -0.181   8.746  21.627  0.00  0.00    +0.000 C 
BRANCH  12  13
ATOM     13  C   UNL     1       0.049   9.685  22.783  0.00  0.00    +0.000 C 
BRANCH  13  14
ATOM     14  C   UNL     1      -1.053  10.697  23.049  0.00  0.00    +0.000 C 
ATOM     15  N   UNL     1      -1.968  11.537  23.269  0.00  0.00    +0.000 NA
ENDBRANCH  13  14
ENDBRANCH  12  13
ENDBRANCH   1  12
BRANCH   2  16
ATOM     16  C   UNL     1       2.193   7.434  20.605  0.00  0.00    +0.000 C 
BRANCH  16  17
ATOM     17  S   UNL     1       1.578   5.767  20.199  0.00  0.00    +0.000 S 
BRANCH  17  18
ATOM     18  C   UNL     1       2.806   5.192  19.040  0.00  0.00    +0.000 A 
ATOM     19  N   UNL     1       3.030   3.869  19.055  0.00  0.00    +0.000 NA
ATOM     20  C   UNL     1       3.881   3.420  18.127  0.00  0.00    +0.000 A 
ATOM     21  C   UNL     1       4.522   4.195  17.175  0.00  0.00    +0.000 A 
ATOM     22  C   UNL     1       5.390   3.692  16.176  0.00  0.00    +0.000 A 
ATOM     23  C   UNL     1       5.966   4.555  15.251  0.00  0.00    +0.000 A 
ATOM     24  C   UNL     1       5.692   5.915  15.335  0.00  0.00    +0.000 A 
ATOM     25  C   UNL     1       4.837   6.399  16.337  0.00  0.00    +0.000 A 
ATOM     26  C   UNL     1       4.227   5.557  17.264  0.00  0.00    +0.000 A 
ATOM     27  N   UNL     1       3.377   6.057  18.184  0.00  0.00    +0.000 NA
BRANCH  20  28
ATOM     28  O   UNL     1       4.065   2.071  18.172  0.00  0.00    +0.000 OA
ATOM     29  H   UNL     1       3.280   1.761  17.686  0.00  0.00    +0.000 HD
ENDBRANCH  20  28
ENDBRANCH  17  18
ENDBRANCH  16  17
ENDBRANCH   2  16
TORSDOF 8
ENDMDL
MODEL 9
REMARK VINA RESULT:      -7.1      2.995      4.743
REMARK  Name = 
REMARK  10 active torsions:
REMARK  status: ('A' for Active; 'I' for Inactive)
REMARK    1  A    between atoms: C_1  and  C_2
REMARK    2  A    between atoms: C_4  and  C_5
REMARK    3  A    between atoms: C_7  and  N_8
REMARK    4  A    between atoms: N_8  and  C_9
REMARK    5  A    between atoms: C_9  and  C_10
REMARK    6  A    between atoms: C_10  and  C_11
REMARK    7  A    between atoms: C_13  and  C_15
REMARK    8  A    between atoms: C_15  and  S_16
REMARK    9  A    between atoms: S_16  and  C_17
REMARK   10  A    between atoms: C_19  and  O_20
REMARK                            x       y       z     vdW  Elec       q    Type
REMARK                         _______ _______ _______ _____ _____    ______ ____
ROOT
ATOM      1  N   UNL     1       2.691   5.364  19.259  0.00  0.00    +0.000 N 
ATOM      2  C   UNL     1       4.087   5.163  19.280  0.00  0.00    +0.000 C 
ATOM      3  O   UNL     1       4.893   6.071  19.508  0.00  0.00    +0.000 OA
ENDROOT
BRANCH   1  10
ATOM      4  C   UNL     1       1.808  10.045  17.688  0.00  0.00    +0.000 C 
ATOM      5  C   UNL     1       1.754   9.000  18.767  0.00  0.00    +0.000 A 
ATOM      6  C   UNL     1       1.236   9.317  20.026  0.00  0.00    +0.000 A 
ATOM      7  C   UNL     1       1.160   8.341  21.026  0.00  0.00    +0.000 A 
ATOM      8  C   UNL     1       0.587   8.688  22.371  0.00  0.00    +0.000 C 
ATOM      9  C   UNL     1       1.623   7.034  20.756  0.00  0.00    +0.000 A 
ATOM     10  C   UNL     1       2.176   6.696  19.511  0.00  0.00    +0.000 A 
ATOM     11  C   UNL     1       2.215   7.690  18.520  0.00  0.00    +0.000 A 
ENDBRANCH   1  10
BRANCH   1  12
ATOM     12  C   UNL     1       1.765   4.252  18.935  0.00  0.00    +0.000 C 
BRANCH  12  13
ATOM     13  C   UNL     1       0.959   3.650  20.058  0.00  0.00    +0.000 C 
BRANCH  13  14
ATOM     14  C   UNL     1       1.758   3.074  21.215  0.00  0.00    +0.000 C 
ATOM     15  N   UNL     1       2.421   2.594  22.175  0.00  0.00    +0.000 NA
ENDBRANCH  13  14
ENDBRANCH  12  13
ENDBRANCH   1  12
BRANCH   2  16
ATOM     16  C   UNL     1       4.615   3.734  19.060  0.00  0.00    +0.000 C 
BRANCH  16  17
ATOM     17  S   UNL     1       3.982   3.074  17.482  0.00  0.00    +0.000 S 
BRANCH  17  18
ATOM     18  C   UNL     1       5.061   3.855  16.296  0.00  0.00    +0.000 A 
ATOM     19  N   UNL     1       5.868   4.804  16.795  0.00  0.00    +0.000 NA
ATOM     20  C   UNL     1       6.741   5.328  15.930  0.00  0.00    +0.000 A 
ATOM     21  C   UNL     1       6.877   4.968  14.600  0.00  0.00    +0.000 A 
ATOM     22  C   UNL     1       7.838   5.511  13.711  0.00  0.00    +0.000 A 
ATOM     23  C   UNL     1       7.905   5.062  12.398  0.00  0.00    +0.000 A 
ATOM     24  C   UNL     1       7.007   4.093  11.967  0.00  0.00    +0.000 A 
ATOM     25  C   UNL     1       6.055   3.573  12.858  0.00  0.00    +0.000 A 
ATOM     26  C   UNL     1       5.977   3.985  14.186  0.00  0.00    +0.000 A 
ATOM     27  N   UNL     1       5.075   3.428  15.021  0.00  0.00    +0.000 NA
BRANCH  20  28
ATOM     28  O   UNL     1       7.547   6.275  16.486  0.00  0.00    +0.000 OA
ATOM     29  H   UNL     1       6.924   7.018  16.578  0.00  0.00    +0.000 HD
ENDBRANCH  20  28
ENDBRANCH  17  18
ENDBRANCH  16  17
ENDBRANCH   2  16
TORSDOF 8
ENDMDL
