MODEL 1
REMARK VINA RESULT:      -7.5      0.000      0.000
REMARK  Name = 
REMARK  6 active torsions:
REMARK  status: ('A' for Active; 'I' for Inactive)
REMARK    1  A    between atoms: C_1  and  C_2
REMARK    2  A    between atoms: C_2  and  O_3
REMARK    3  A    between atoms: O_3  and  C_4
REMARK    4  A    between atoms: C_4  and  C_6
REMARK    5  A    between atoms: C_15  and  C_16
REMARK    6  A    between atoms: C_16  and  O_18
REMARK                            x       y       z     vdW  Elec       q    Type
REMARK                         _______ _______ _______ _____ _____    ______ ____
ROOT
ATOM      1  C   UNL     1       6.267   4.517  17.814  0.00  0.00    +0.000 A 
ATOM      2  N   UNL     1       5.772   3.965  18.972  0.00  0.00    +0.000 N 
ATOM      3  C   UNL     1       4.410   3.826  18.910  0.00  0.00    +0.000 A 
ATOM      4  C   UNL     1       3.507   3.358  19.873  0.00  0.00    +0.000 A 
ATOM      5  C   UNL     1       2.155   3.317  19.521  0.00  0.00    +0.000 A 
ATOM      6 CL   UNL     1       1.001   2.776  20.680  0.00  0.00    +0.000 Cl
ATOM      7  C   UNL     1       1.725   3.706  18.256  0.00  0.00    +0.000 A 
ATOM      8  C   UNL     1       2.647   4.162  17.306  0.00  0.00    +0.000 A 
ATOM      9  C   UNL     1       4.018   4.240  17.638  0.00  0.00    +0.000 A 
ATOM     10  C   UNL     1       5.195   4.682  16.933  0.00  0.00    +0.000 A 
ATOM     11  H   UNL     1       6.342   3.707  19.769  0.00  0.00    +0.000 HD
ENDROOT
BRANCH   1  12
ATOM     12  C   UNL     1       7.660   4.790  17.608  0.00  0.00    +0.000 C 
ATOM     13  O   UNL     1       8.555   3.993  17.857  0.00  0.00    +0.000 OA
BRANCH  12  14
ATOM     14  O   UNL     1       7.832   6.073  17.196  0.00  0.00    +0.000 OA
BRANCH  14  16
ATOM     15  C   UNL     1       7.820   8.432  17.639  0.00  0.00    +0.000 C 
ATOM     16  C   UNL     1       7.826   7.043  18.254  0.00  0.00    +0.000 C 
ENDBRANCH  14  16
ENDBRANCH  12  14
ENDBRANCH   1  12
BRANCH  10  17
ATOM     17  C   UNL     1       5.206   5.141  15.537  0.00  0.00    +0.000 C 
ATOM     18  O   UNL     1       5.116   4.367  14.593  0.00  0.00    +0.000 OA
BRANCH  17  19
ATOM     19  O   UNL     1       5.297   6.474  15.314  0.00  0.00    +0.000 OA
ATOM     20  H   UNL     1       4.785   6.820  14.552  0.00  0.00    +0.000 HD
ENDBRANCH  17  19
ENDBRANCH  10  17
TORSDOF 5
ENDMDL
MODEL 2
REMARK VINA RESULT:      -7.1      0.744      1.058
REMARK  Name = 
REMARK  6 active torsions:
REMARK  status: ('A' for Active; 'I' for Inactive)
REMARK    1  A    between atoms: C_1  and  C_2
REMARK    2  A    between atoms: C_2  and  O_3
REMARK    3  A    between atoms: O_3  and  C_4
REMARK    4  A    between atoms: C_4  and  C_6
REMARK    5  A    between atoms: C_15  and  C_16
REMARK    6  A    between atoms: C_16  and  O_18
REMARK                            x       y       z     vdW  Elec       q    Type
REMARK                         _______ _______ _______ _____ _____    ______ ____
ROOT
ATOM      1  C   UNL     1       6.158   4.731  17.993  0.00  0.00    +0.000 A 
ATOM      2  N   UNL     1       5.744   3.830  18.947  0.00  0.00    +0.000 N 
ATOM      3  C   UNL     1       4.385   3.876  19.113  0.00  0.00    +0.000 A 
ATOM      4  C   UNL     1       3.561   3.173  20.000  0.00  0.00    +0.000 A 
ATOM      5  C   UNL     1       2.187   3.420  19.936  0.00  0.00    +0.000 A 
ATOM      6 CL   UNL     1       1.134   2.600  21.026  0.00  0.00    +0.000 Cl
ATOM      7  C   UNL     1       1.656   4.315  19.013  0.00  0.00    +0.000 A 
ATOM      8  C   UNL     1       2.497   5.001  18.129  0.00  0.00    +0.000 A 
ATOM      9  C   UNL     1       3.894   4.792  18.184  0.00  0.00    +0.000 A 
ATOM     10  C   UNL     1       5.017   5.342  17.466  0.00  0.00    +0.000 A 
ATOM     11  H   UNL     1       6.368   3.222  19.464  0.00  0.00    +0.000 HD
ENDROOT
BRANCH   1  12
ATOM     12  C   UNL     1       7.533   4.909  17.626  0.00  0.00    +0.000 C 
ATOM     13  O   UNL     1       8.390   4.043  17.752  0.00  0.00    +0.000 OA
BRANCH  12  14
ATOM     14  O   UNL     1       7.750   6.186  17.218  0.00  0.00    +0.000 OA
BRANCH  14  16
ATOM     15  C   UNL     1       7.886   8.529  17.725  0.00  0.00    +0.000 C 
ATOM     16  C   UNL     1       7.985   7.119  18.284  0.00  0.00    +0.000 C 
ENDBRANCH  14  16
ENDBRANCH  12  14
ENDBRANCH   1  12
BRANCH  10  17
ATOM     17  C   UNL     1       4.908   6.304  16.360  0.00  0.00    +0.000 C 
ATOM     18  O   UNL     1       4.349   7.385  16.487  0.00  0.00    +0.000 OA
BRANCH  17  19
ATOM     19  O   UNL     1       5.474   5.967  15.177  0.00  0.00    +0.000 OA
ATOM     20  H   UNL     1       5.872   6.704  14.664  0.00  0.00    +0.000 HD
ENDBRANCH  17  19
ENDBRANCH  10  17
TORSDOF 5
ENDMDL
MODEL 3
REMARK VINA RESULT:      -7.0      1.929      3.598
REMARK  Name = 
REMARK  6 active torsions:
REMARK  status: ('A' for Active; 'I' for Inactive)
REMARK    1  A    between atoms: C_1  and  C_2
REMARK    2  A    between atoms: C_2  and  O_3
REMARK    3  A    between atoms: O_3  and  C_4
REMARK    4  A    between atoms: C_4  and  C_6
REMARK    5  A    between atoms: C_15  and  C_16
REMARK    6  A    between atoms: C_16  and  O_18
REMARK                            x       y       z     vdW  Elec       q    Type
REMARK                         _______ _______ _______ _____ _____    ______ ____
ROOT
ATOM      1  C   UNL     1       5.857   4.718  16.070  0.00  0.00    +0.000 A 
ATOM      2  N   UNL     1       4.620   4.121  16.125  0.00  0.00    +0.000 N 
ATOM      3  C   UNL     1       4.018   4.343  17.336  0.00  0.00    +0.000 A 
ATOM      4  C   UNL     1       2.790   3.884  17.830  0.00  0.00    +0.000 A 
ATOM      5  C   UNL     1       2.424   4.286  19.117  0.00  0.00    +0.000 A 
ATOM      6 CL   UNL     1       0.935   3.726  19.780  0.00  0.00    +0.000 Cl
ATOM      7  C   UNL     1       3.238   5.124  19.872  0.00  0.00    +0.000 A 
ATOM      8  C   UNL     1       4.458   5.577  19.355  0.00  0.00    +0.000 A 
ATOM      9  C   UNL     1       4.869   5.170  18.066  0.00  0.00    +0.000 A 
ATOM     10  C   UNL     1       6.044   5.415  17.267  0.00  0.00    +0.000 A 
ATOM     11  H   UNL     1       4.214   3.580  15.370  0.00  0.00    +0.000 HD
ENDROOT
BRANCH   1  12
ATOM     12  C   UNL     1       6.718   4.637  14.925  0.00  0.00    +0.000 C 
ATOM     13  O   UNL     1       7.569   5.473  14.651  0.00  0.00    +0.000 OA
BRANCH  12  14
ATOM     14  O   UNL     1       6.383   3.566  14.160  0.00  0.00    +0.000 OA
BRANCH  14  16
ATOM     15  C   UNL     1       5.223   3.306  12.073  0.00  0.00    +0.000 C 
ATOM     16  C   UNL     1       6.498   3.786  12.746  0.00  0.00    +0.000 C 
ENDBRANCH  14  16
ENDBRANCH  12  14
ENDBRANCH   1  12
BRANCH  10  17
ATOM     17  C   UNL     1       7.155   6.291  17.665  0.00  0.00    +0.000 C 
ATOM     18  O   UNL     1       7.867   6.046  18.630  0.00  0.00    +0.000 OA
BRANCH  17  19
ATOM     19  O   UNL     1       7.391   7.389  16.909  0.00  0.00    +0.000 OA
ATOM     20  H   UNL     1       6.683   7.636  16.274  0.00  0.00    +0.000 HD
ENDBRANCH  17  19
ENDBRANCH  10  17
TORSDOF 5
ENDMDL
MODEL 4
REMARK VINA RESULT:      -6.9      1.105      1.301
REMARK  Name = 
REMARK  6 active torsions:
REMARK  status: ('A' for Active; 'I' for Inactive)
REMARK    1  A    between atoms: C_1  and  C_2
REMARK    2  A    between atoms: C_2  and  O_3
REMARK    3  A    between atoms: O_3  and  C_4
REMARK    4  A    between atoms: C_4  and  C_6
REMARK    5  A    between atoms: C_15  and  C_16
REMARK    6  A    between atoms: C_16  and  O_18
REMARK                            x       y       z     vdW  Elec       q    Type
REMARK                         _______ _______ _______ _____ _____    ______ ____
ROOT
ATOM      1  C   UNL     1       6.028   4.496  17.997  0.00  0.00    +0.000 A 
ATOM      2  N   UNL     1       5.613   3.548  18.903  0.00  0.00    +0.000 N 
ATOM      3  C   UNL     1       4.286   3.706  19.210  0.00  0.00    +0.000 A 
ATOM      4  C   UNL     1       3.480   2.999  20.110  0.00  0.00    +0.000 A 
ATOM      5  C   UNL     1       2.139   3.379  20.208  0.00  0.00    +0.000 A 
ATOM      6 CL   UNL     1       1.112   2.558  21.322  0.00  0.00    +0.000 Cl
ATOM      7  C   UNL     1       1.620   4.407  19.427  0.00  0.00    +0.000 A 
ATOM      8  C   UNL     1       2.443   5.094  18.527  0.00  0.00    +0.000 A 
ATOM      9  C   UNL     1       3.810   4.751  18.421  0.00  0.00    +0.000 A 
ATOM     10  C   UNL     1       4.913   5.260  17.645  0.00  0.00    +0.000 A 
ATOM     11  H   UNL     1       6.215   2.835  19.298  0.00  0.00    +0.000 HD
ENDROOT
BRANCH   1  12
ATOM     12  C   UNL     1       7.375   4.579  17.509  0.00  0.00    +0.000 C 
ATOM     13  O   UNL     1       7.696   4.342  16.351  0.00  0.00    +0.000 OA
BRANCH  12  14
ATOM     14  O   UNL     1       8.228   4.858  18.528  0.00  0.00    +0.000 OA
BRANCH  14  16
ATOM     15  C   UNL     1       8.071   7.244  18.306  0.00  0.00    +0.000 C 
ATOM     16  C   UNL     1       7.920   6.061  19.248  0.00  0.00    +0.000 C 
ENDBRANCH  14  16
ENDBRANCH  12  14
ENDBRANCH   1  12
BRANCH  10  17
ATOM     17  C   UNL     1       4.802   6.333  16.646  0.00  0.00    +0.000 C 
ATOM     18  O   UNL     1       5.244   6.217  15.510  0.00  0.00    +0.000 OA
BRANCH  17  19
ATOM     19  O   UNL     1       4.166   7.470  17.013  0.00  0.00    +0.000 OA
ATOM     20  H   UNL     1       3.186   7.423  17.050  0.00  0.00    +0.000 HD
ENDBRANCH  17  19
ENDBRANCH  10  17
TORSDOF 5
ENDMDL
MODEL 5
REMARK VINA RESULT:      -6.9      3.589      5.920
REMARK  Name = 
REMARK  6 active torsions:
REMARK  status: ('A' for Active; 'I' for Inactive)
REMARK    1  A    between atoms: C_1  and  C_2
REMARK    2  A    between atoms: C_2  and  O_3
REMARK    3  A    between atoms: O_3  and  C_4
REMARK    4  A    between atoms: C_4  and  C_6
REMARK    5  A    between atoms: C_15  and  C_16
REMARK    6  A    between atoms: C_16  and  O_18
REMARK                            x       y       z     vdW  Elec       q    Type
REMARK                         _______ _______ _______ _____ _____    ______ ____
ROOT
ATOM      1  C   UNL     1       3.096   4.526  18.272  0.00  0.00    +0.000 A 
ATOM      2  N   UNL     1       3.474   5.757  17.788  0.00  0.00    +0.000 N 
ATOM      3  C   UNL     1       4.831   5.928  17.880  0.00  0.00    +0.000 A 
ATOM      4  C   UNL     1       5.624   7.035  17.551  0.00  0.00    +0.000 A 
ATOM      5  C   UNL     1       7.003   6.918  17.744  0.00  0.00    +0.000 A 
ATOM      6 CL   UNL     1       8.019   8.261  17.380  0.00  0.00    +0.000 Cl
ATOM      7  C   UNL     1       7.569   5.742  18.226  0.00  0.00    +0.000 A 
ATOM      8  C   UNL     1       6.757   4.645  18.540  0.00  0.00    +0.000 A 
ATOM      9  C   UNL     1       5.357   4.738  18.380  0.00  0.00    +0.000 A 
ATOM     10  C   UNL     1       4.258   3.839  18.633  0.00  0.00    +0.000 A 
ATOM     11  H   UNL     1       2.830   6.447  17.422  0.00  0.00    +0.000 HD
ENDROOT
BRANCH   1  12
ATOM     12  C   UNL     1       1.732   4.084  18.313  0.00  0.00    +0.000 C 
ATOM     13  O   UNL     1       1.106   3.715  17.327  0.00  0.00    +0.000 OA
BRANCH  12  14
ATOM     14  O   UNL     1       1.228   4.227  19.565  0.00  0.00    +0.000 OA
BRANCH  14  16
ATOM     15  C   UNL     1       1.688   2.975  21.562  0.00  0.00    +0.000 C 
ATOM     16  C   UNL     1       0.943   2.991  20.237  0.00  0.00    +0.000 C 
ENDBRANCH  14  16
ENDBRANCH  12  14
ENDBRANCH   1  12
BRANCH  10  17
ATOM     17  C   UNL     1       4.406   2.458  19.112  0.00  0.00    +0.000 C 
ATOM     18  O   UNL     1       4.856   2.194  20.219  0.00  0.00    +0.000 OA
BRANCH  17  19
ATOM     19  O   UNL     1       4.003   1.460  18.289  0.00  0.00    +0.000 OA
ATOM     20  H   UNL     1       3.232   1.660  17.716  0.00  0.00    +0.000 HD
ENDBRANCH  17  19
ENDBRANCH  10  17
TORSDOF 5
ENDMDL
MODEL 6
REMARK VINA RESULT:      -6.9      1.694      2.367
REMARK  Name = 
REMARK  6 active torsions:
REMARK  status: ('A' for Active; 'I' for Inactive)
REMARK    1  A    between atoms: C_1  and  C_2
REMARK    2  A    between atoms: C_2  and  O_3
REMARK    3  A    between atoms: O_3  and  C_4
REMARK    4  A    between atoms: C_4  and  C_6
REMARK    5  A    between atoms: C_15  and  C_16
REMARK    6  A    between atoms: C_16  and  O_18
REMARK                            x       y       z     vdW  Elec       q    Type
REMARK                         _______ _______ _______ _____ _____    ______ ____
ROOT
ATOM      1  C   UNL     1       6.136   4.522  17.980  0.00  0.00    +0.000 A 
ATOM      2  N   UNL     1       5.638   3.478  18.725  0.00  0.00    +0.000 N 
ATOM      3  C   UNL     1       4.437   3.809  19.297  0.00  0.00    +0.000 A 
ATOM      4  C   UNL     1       3.617   3.071  20.160  0.00  0.00    +0.000 A 
ATOM      5  C   UNL     1       2.426   3.668  20.582  0.00  0.00    +0.000 A 
ATOM      6 CL   UNL     1       1.396   2.812  21.666  0.00  0.00    +0.000 Cl
ATOM      7  C   UNL     1       2.060   4.938  20.147  0.00  0.00    +0.000 A 
ATOM      8  C   UNL     1       2.891   5.654  19.278  0.00  0.00    +0.000 A 
ATOM      9  C   UNL     1       4.114   5.089  18.851  0.00  0.00    +0.000 A 
ATOM     10  C   UNL     1       5.191   5.552  18.011  0.00  0.00    +0.000 A 
ATOM     11  H   UNL     1       6.106   2.587  18.841  0.00  0.00    +0.000 HD
ENDROOT
BRANCH   1  12
ATOM     12  C   UNL     1       7.387   4.461  17.281  0.00  0.00    +0.000 C 
ATOM     13  O   UNL     1       8.447   4.149  17.808  0.00  0.00    +0.000 OA
BRANCH  12  14
ATOM     14  O   UNL     1       7.232   4.885  16.001  0.00  0.00    +0.000 OA
BRANCH  14  16
ATOM     15  C   UNL     1       5.507   4.553  14.364  0.00  0.00    +0.000 C 
ATOM     16  C   UNL     1       6.660   3.910  15.116  0.00  0.00    +0.000 C 
ENDBRANCH  14  16
ENDBRANCH  12  14
ENDBRANCH   1  12
BRANCH  10  17
ATOM     17  C   UNL     1       5.200   6.838  17.301  0.00  0.00    +0.000 C 
ATOM     18  O   UNL     1       4.178   7.351  16.863  0.00  0.00    +0.000 OA
BRANCH  17  19
ATOM     19  O   UNL     1       6.389   7.470  17.159  0.00  0.00    +0.000 OA
ATOM     20  H   UNL     1       7.098   6.958  16.712  0.00  0.00    +0.000 HD
ENDBRANCH  17  19
ENDBRANCH  10  17
TORSDOF 5
ENDMDL
MODEL 7
REMARK VINA RESULT:      -6.9      0.782      1.060
REMARK  Name = 
REMARK  6 active torsions:
REMARK  status: ('A' for Active; 'I' for Inactive)
REMARK    1  A    between atoms: C_1  and  C_2
REMARK    2  A    between atoms: C_2  and  O_3
REMARK    3  A    between atoms: O_3  and  C_4
REMARK    4  A    between atoms: C_4  and  C_6
REMARK    5  A    between atoms: C_15  and  C_16
REMARK    6  A    between atoms: C_16  and  O_18
REMARK                            x       y       z     vdW  Elec       q    Type
REMARK                         _______ _______ _______ _____ _____    ______ ____
ROOT
ATOM      1  C   UNL     1       6.179   4.694  18.122  0.00  0.00    +0.000 A 
ATOM      2  N   UNL     1       5.502   4.518  19.307  0.00  0.00    +0.000 N 
ATOM      3  C   UNL     1       4.220   4.088  19.084  0.00  0.00    +0.000 A 
ATOM      4  C   UNL     1       3.184   3.833  19.992  0.00  0.00    +0.000 A 
ATOM      5  C   UNL     1       1.967   3.388  19.470  0.00  0.00    +0.000 A 
ATOM      6 CL   UNL     1       0.653   3.086  20.543  0.00  0.00    +0.000 Cl
ATOM      7  C   UNL     1       1.796   3.187  18.104  0.00  0.00    +0.000 A 
ATOM      8  C   UNL     1       2.847   3.441  17.216  0.00  0.00    +0.000 A 
ATOM      9  C   UNL     1       4.084   3.915  17.708  0.00  0.00    +0.000 A 
ATOM     10  C   UNL     1       5.328   4.299  17.087  0.00  0.00    +0.000 A 
ATOM     11  H   UNL     1       5.900   4.694  20.222  0.00  0.00    +0.000 HD
ENDROOT
BRANCH   1  12
ATOM     12  C   UNL     1       7.537   5.152  18.055  0.00  0.00    +0.000 C 
ATOM     13  O   UNL     1       8.419   4.785  18.821  0.00  0.00    +0.000 OA
BRANCH  12  14
ATOM     14  O   UNL     1       7.664   6.106  17.097  0.00  0.00    +0.000 OA
BRANCH  14  16
ATOM     15  C   UNL     1       8.093   8.342  17.858  0.00  0.00    +0.000 C 
ATOM     16  C   UNL     1       7.029   7.354  17.411  0.00  0.00    +0.000 C 
ENDBRANCH  14  16
ENDBRANCH  12  14
ENDBRANCH   1  12
BRANCH  10  17
ATOM     17  C   UNL     1       5.604   4.204  15.647  0.00  0.00    +0.000 C 
ATOM     18  O   UNL     1       5.353   5.117  14.871  0.00  0.00    +0.000 OA
BRANCH  17  19
ATOM     19  O   UNL     1       6.176   3.064  15.190  0.00  0.00    +0.000 OA
ATOM     20  H   UNL     1       5.617   2.504  14.609  0.00  0.00    +0.000 HD
ENDBRANCH  17  19
ENDBRANCH  10  17
TORSDOF 5
ENDMDL
MODEL 8
REMARK VINA RESULT:      -6.8      1.809      3.733
REMARK  Name = 
REMARK  6 active torsions:
REMARK  status: ('A' for Active; 'I' for Inactive)
REMARK    1  A    between atoms: C_1  and  C_2
REMARK    2  A    between atoms: C_2  and  O_3
REMARK    3  A    between atoms: O_3  and  C_4
REMARK    4  A    between atoms: C_4  and  C_6
REMARK    5  A    between atoms: C_15  and  C_16
REMARK    6  A    between atoms: C_16  and  O_18
REMARK                            x       y       z     vdW  Elec       q    Type
REMARK                         _______ _______ _______ _____ _____    ______ ____
ROOT
ATOM      1  C   UNL     1       5.638   4.417  16.023  0.00  0.00    +0.000 A 
ATOM      2  N   UNL     1       4.295   4.121  15.988  0.00  0.00    +0.000 N 
ATOM      3  C   UNL     1       3.801   3.923  17.251  0.00  0.00    +0.000 A 
ATOM      4  C   UNL     1       2.514   3.560  17.669  0.00  0.00    +0.000 A 
ATOM      5  C   UNL     1       2.293   3.440  19.043  0.00  0.00    +0.000 A 
ATOM      6 CL   UNL     1       0.734   2.969  19.605  0.00  0.00    +0.000 Cl
ATOM      7  C   UNL     1       3.307   3.689  19.963  0.00  0.00    +0.000 A 
ATOM      8  C   UNL     1       4.584   4.058  19.523  0.00  0.00    +0.000 A 
ATOM      9  C   UNL     1       4.847   4.166  18.139  0.00  0.00    +0.000 A 
ATOM     10  C   UNL     1       6.022   4.481  17.365  0.00  0.00    +0.000 A 
ATOM     11  H   UNL     1       3.749   4.050  15.138  0.00  0.00    +0.000 HD
ENDROOT
BRANCH   1  12
ATOM     12  C   UNL     1       6.419   4.657  14.844  0.00  0.00    +0.000 C 
ATOM     13  O   UNL     1       7.535   5.162  14.857  0.00  0.00    +0.000 OA
BRANCH  12  14
ATOM     14  O   UNL     1       5.706   4.336  13.734  0.00  0.00    +0.000 OA
BRANCH  14  16
ATOM     15  C   UNL     1       5.476   2.914  11.813  0.00  0.00    +0.000 C 
ATOM     16  C   UNL     1       6.453   3.628  12.732  0.00  0.00    +0.000 C 
ENDBRANCH  14  16
ENDBRANCH  12  14
ENDBRANCH   1  12
BRANCH  10  17
ATOM     17  C   UNL     1       7.322   4.855  17.940  0.00  0.00    +0.000 C 
ATOM     18  O   UNL     1       7.474   5.868  18.610  0.00  0.00    +0.000 OA
BRANCH  17  19
ATOM     19  O   UNL     1       8.367   4.022  17.723  0.00  0.00    +0.000 OA
ATOM     20  H   UNL     1       8.762   3.610  18.522  0.00  0.00    +0.000 HD
ENDBRANCH  17  19
ENDBRANCH  10  17
TORSDOF 5
ENDMDL
MODEL 9
REMARK VINA RESULT:      -6.8      1.857      2.793
REMARK  Name = 
REMARK  6 active torsions:
REMARK  status: ('A' for Active; 'I' for Inactive)
REMARK    1  A    between atoms: C_1  and  C_2
REMARK    2  A    between atoms: C_2  and  O_3
REMARK    3  A    between atoms: O_3  and  C_4
REMARK    4  A    between atoms: C_4  and  C_6
REMARK    5  A    between atoms: C_15  and  C_16
REMARK    6  A    between atoms: C_16  and  O_18
REMARK                            x       y       z     vdW  Elec       q    Type
REMARK                         _______ _______ _______ _____ _____    ______ ____
ROOT
ATOM      1  C   UNL     1       5.696   4.278  16.568  0.00  0.00    +0.000 A 
ATOM      2  N   UNL     1       5.094   3.088  16.905  0.00  0.00    +0.000 N 
ATOM      3  C   UNL     1       3.844   3.298  17.426  0.00  0.00    +0.000 A 
ATOM      4  C   UNL     1       2.915   2.382  17.936  0.00  0.00    +0.000 A 
ATOM      5  C   UNL     1       1.697   2.889  18.397  0.00  0.00    +0.000 A 
ATOM      6 CL   UNL     1       0.532   1.806  19.059  0.00  0.00    +0.000 Cl
ATOM      7  C   UNL     1       1.411   4.249  18.334  0.00  0.00    +0.000 A 
ATOM      8  C   UNL     1       2.351   5.146  17.813  0.00  0.00    +0.000 A 
ATOM      9  C   UNL     1       3.602   4.668  17.360  0.00  0.00    +0.000 A 
ATOM     10  C   UNL     1       4.777   5.301  16.814  0.00  0.00    +0.000 A 
ATOM     11  H   UNL     1       5.526   2.179  16.791  0.00  0.00    +0.000 HD
ENDROOT
BRANCH   1  12
ATOM     12  C   UNL     1       7.016   4.360  16.013  0.00  0.00    +0.000 C 
ATOM     13  O   UNL     1       8.040   4.211  16.668  0.00  0.00    +0.000 OA
BRANCH  12  14
ATOM     14  O   UNL     1       6.956   4.715  14.704  0.00  0.00    +0.000 OA
BRANCH  14  16
ATOM     15  C   UNL     1       6.740   3.896  12.458  0.00  0.00    +0.000 C 
ATOM     16  C   UNL     1       6.205   3.813  13.877  0.00  0.00    +0.000 C 
ENDBRANCH  14  16
ENDBRANCH  12  14
ENDBRANCH   1  12
BRANCH  10  17
ATOM     17  C   UNL     1       4.894   6.739  16.534  0.00  0.00    +0.000 C 
ATOM     18  O   UNL     1       4.805   7.586  17.413  0.00  0.00    +0.000 OA
BRANCH  17  19
ATOM     19  O   UNL     1       5.131   7.112  15.254  0.00  0.00    +0.000 OA
ATOM     20  H   UNL     1       4.490   6.788  14.585  0.00  0.00    +0.000 HD
ENDBRANCH  17  19
ENDBRANCH  10  17
TORSDOF 5
ENDMDL
