MODEL 1
REMARK VINA RESULT:      -7.5      0.000      0.000
REMARK  Name = 
REMARK  6 active torsions:
REMARK  status: ('A' for Active; 'I' for Inactive)
REMARK    1  A    between atoms: C_1  and  C_2
REMARK    2  A    between atoms: C_5  and  C_6
REMARK    3  A    between atoms: C_12  and  C_13
REMARK    4  A    between atoms: C_12  and  C_14
REMARK    5  A    between atoms: C_16  and  C_17
REMARK    6  A    between atoms: C_16  and  C_18
REMARK                            x       y       z     vdW  Elec       q    Type
REMARK                         _______ _______ _______ _____ _____    ______ ____
ROOT
ATOM      1  C   UNL     1       1.808   7.366  20.026  0.00  0.00    +0.000 A 
ATOM      2  N   UNL     1       2.768   7.575  19.085  0.00  0.00    +0.000 NA
ATOM      3  N   UNL     1       3.433   6.523  18.524  0.00  0.00    +0.000 NA
ATOM      4  C   UNL     1       3.118   5.308  18.972  0.00  0.00    +0.000 A 
ATOM      5  C   UNL     1       2.182   5.131  19.952  0.00  0.00    +0.000 A 
ATOM      6  N   UNL     1       1.493   6.138  20.518  0.00  0.00    +0.000 NA
ATOM      7  C   UNL     1       2.089   3.667  20.277  0.00  0.00    +0.000 C 
ATOM      8  C   UNL     1       0.778   3.047  19.799  0.00  0.00    +0.000 C 
ATOM      9  C   UNL     1       2.301   3.396  21.766  0.00  0.00    +0.000 C 
ATOM     10  O   UNL     1       3.195   3.059  19.541  0.00  0.00    +0.000 OA
ATOM     11  C   UNL     1       3.696   3.998  18.543  0.00  0.00    +0.000 C 
ATOM     12  C   UNL     1       3.197   3.569  17.165  0.00  0.00    +0.000 C 
ATOM     13  C   UNL     1       5.221   4.003  18.589  0.00  0.00    +0.000 C 
ENDROOT
BRANCH   1  18
ATOM     14  C   UNL     1      -0.789  11.961  22.403  0.00  0.00    +0.000 C 
ATOM     15  C   UNL     1      -0.107  10.758  21.828  0.00  0.00    +0.000 A 
ATOM     16  C   UNL     1       0.349   9.717  22.627  0.00  0.00    +0.000 A 
ATOM     17  C   UNL     1       0.970   8.614  22.044  0.00  0.00    +0.000 A 
ATOM     18  C   UNL     1       1.149   8.517  20.643  0.00  0.00    +0.000 A 
ATOM     19  N   UNL     1       0.667   9.548  19.837  0.00  0.00    +0.000 N 
ATOM     20  O   UNL     1       0.702   9.535  18.567  0.00  0.00    +0.000 OA
ATOM     21  C   UNL     1       0.065  10.650  20.447  0.00  0.00    +0.000 A 
ENDBRANCH   1  18
TORSDOF 1
ENDMDL
MODEL 2
REMARK VINA RESULT:      -7.5      1.817      2.339
REMARK  Name = 
REMARK  6 active torsions:
REMARK  status: ('A' for Active; 'I' for Inactive)
REMARK    1  A    between atoms: C_1  and  C_2
REMARK    2  A    between atoms: C_5  and  C_6
REMARK    3  A    between atoms: C_12  and  C_13
REMARK    4  A    between atoms: C_12  and  C_14
REMARK    5  A    between atoms: C_16  and  C_17
REMARK    6  A    between atoms: C_16  and  C_18
REMARK                            x       y       z     vdW  Elec       q    Type
REMARK                         _______ _______ _______ _____ _____    ______ ____
ROOT
ATOM      1  C   UNL     1       2.974   7.076  18.417  0.00  0.00    +0.000 A 
ATOM      2  N   UNL     1       3.979   7.621  17.679  0.00  0.00    +0.000 NA
ATOM      3  N   UNL     1       4.849   6.823  16.993  0.00  0.00    +0.000 NA
ATOM      4  C   UNL     1       4.682   5.507  17.119  0.00  0.00    +0.000 A 
ATOM      5  C   UNL     1       3.692   4.987  17.904  0.00  0.00    +0.000 A 
ATOM      6  N   UNL     1       2.804   5.737  18.582  0.00  0.00    +0.000 NA
ATOM      7  C   UNL     1       3.792   3.488  17.885  0.00  0.00    +0.000 C 
ATOM      8  C   UNL     1       2.645   2.838  17.114  0.00  0.00    +0.000 C 
ATOM      9  C   UNL     1       3.894   2.902  19.292  0.00  0.00    +0.000 C 
ATOM     10  O   UNL     1       5.045   3.215  17.185  0.00  0.00    +0.000 OA
ATOM     11  C   UNL     1       5.492   4.419  16.493  0.00  0.00    +0.000 C 
ATOM     12  C   UNL     1       5.204   4.268  15.000  0.00  0.00    +0.000 C 
ATOM     13  C   UNL     1       6.987   4.606  16.738  0.00  0.00    +0.000 C 
ENDROOT
BRANCH   1  18
ATOM     14  C   UNL     1      -0.515  10.616  21.383  0.00  0.00    +0.000 C 
ATOM     15  C   UNL     1       0.394   9.677  20.652  0.00  0.00    +0.000 A 
ATOM     16  C   UNL     1       0.882   8.517  21.240  0.00  0.00    +0.000 A 
ATOM     17  C   UNL     1       1.719   7.670  20.516  0.00  0.00    +0.000 A 
ATOM     18  C   UNL     1       2.089   7.957  19.180  0.00  0.00    +0.000 A 
ATOM     19  N   UNL     1       1.578   9.106  18.579  0.00  0.00    +0.000 N 
ATOM     20  O   UNL     1       1.778   9.425  17.365  0.00  0.00    +0.000 OA
ATOM     21  C   UNL     1       0.756   9.947  19.332  0.00  0.00    +0.000 A 
ENDBRANCH   1  18
TORSDOF 1
ENDMDL
MODEL 3
REMARK VINA RESULT:      -7.4      1.390      2.675
REMARK  Name = 
REMARK  6 active torsions:
REMARK  status: ('A' for Active; 'I' for Inactive)
REMARK    1  A    between atoms: C_1  and  C_2
REMARK    2  A    between atoms: C_5  and  C_6
REMARK    3  A    between atoms: C_12  and  C_13
REMARK    4  A    between atoms: C_12  and  C_14
REMARK    5  A    between atoms: C_16  and  C_17
REMARK    6  A    between atoms: C_16  and  C_18
REMARK                            x       y       z     vdW  Elec       q    Type
REMARK                         _______ _______ _______ _____ _____    ______ ____
ROOT
ATOM      1  C   UNL     1       2.142   6.697  19.994  0.00  0.00    +0.000 A 
ATOM      2  N   UNL     1       1.435   5.604  20.389  0.00  0.00    +0.000 NA
ATOM      3  N   UNL     1       1.875   4.346  20.089  0.00  0.00    +0.000 NA
ATOM      4  C   UNL     1       2.993   4.259  19.369  0.00  0.00    +0.000 A 
ATOM      5  C   UNL     1       3.658   5.375  18.947  0.00  0.00    +0.000 A 
ATOM      6  N   UNL     1       3.268   6.630  19.235  0.00  0.00    +0.000 NA
ATOM      7  C   UNL     1       4.840   4.955  18.120  0.00  0.00    +0.000 C 
ATOM      8  C   UNL     1       6.167   5.211  18.830  0.00  0.00    +0.000 C 
ATOM      9  C   UNL     1       4.834   5.608  16.739  0.00  0.00    +0.000 C 
ATOM     10  O   UNL     1       4.668   3.515  17.945  0.00  0.00    +0.000 OA
ATOM     11  C   UNL     1       3.681   3.019  18.897  0.00  0.00    +0.000 C 
ATOM     12  C   UNL     1       4.405   2.292  20.028  0.00  0.00    +0.000 C 
ATOM     13  C   UNL     1       2.725   2.075  18.173  0.00  0.00    +0.000 C 
ENDROOT
BRANCH   1  18
ATOM     14  C   UNL     1       0.089  11.998  21.089  0.00  0.00    +0.000 C 
ATOM     15  C   UNL     1       0.623  10.619  20.849  0.00  0.00    +0.000 A 
ATOM     16  C   UNL     1       0.800   9.708  21.881  0.00  0.00    +0.000 A 
ATOM     17  C   UNL     1       1.292   8.432  21.607  0.00  0.00    +0.000 A 
ATOM     18  C   UNL     1       1.618   8.031  20.289  0.00  0.00    +0.000 A 
ATOM     19  N   UNL     1       1.414   8.936  19.247  0.00  0.00    +0.000 N 
ATOM     20  O   UNL     1       1.597   8.662  18.019  0.00  0.00    +0.000 OA
ATOM     21  C   UNL     1       0.937  10.212  19.552  0.00  0.00    +0.000 A 
ENDBRANCH   1  18
TORSDOF 1
ENDMDL
MODEL 4
REMARK VINA RESULT:      -7.3      1.839      2.494
REMARK  Name = 
REMARK  6 active torsions:
REMARK  status: ('A' for Active; 'I' for Inactive)
REMARK    1  A    between atoms: C_1  and  C_2
REMARK    2  A    between atoms: C_5  and  C_6
REMARK    3  A    between atoms: C_12  and  C_13
REMARK    4  A    between atoms: C_12  and  C_14
REMARK    5  A    between atoms: C_16  and  C_17
REMARK    6  A    between atoms: C_16  and  C_18
REMARK                            x       y       z     vdW  Elec       q    Type
REMARK                         _______ _______ _______ _____ _____    ______ ____
ROOT
ATOM      1  C   UNL     1       2.682   7.445  18.235  0.00  0.00    +0.000 A 
ATOM      2  N   UNL     1       3.817   7.867  17.614  0.00  0.00    +0.000 NA
ATOM      3  N   UNL     1       4.746   6.967  17.178  0.00  0.00    +0.000 NA
ATOM      4  C   UNL     1       4.498   5.682  17.426  0.00  0.00    +0.000 A 
ATOM      5  C   UNL     1       3.372   5.290  18.092  0.00  0.00    +0.000 A 
ATOM      6  N   UNL     1       2.424   6.142  18.524  0.00  0.00    +0.000 NA
ATOM      7  C   UNL     1       3.402   3.797  18.264  0.00  0.00    +0.000 C 
ATOM      8  C   UNL     1       2.363   3.091  17.396  0.00  0.00    +0.000 C 
ATOM      9  C   UNL     1       3.250   3.386  19.727  0.00  0.00    +0.000 C 
ATOM     10  O   UNL     1       4.736   3.406  17.816  0.00  0.00    +0.000 OA
ATOM     11  C   UNL     1       5.345   4.503  17.072  0.00  0.00    +0.000 C 
ATOM     12  C   UNL     1       5.292   4.179  15.580  0.00  0.00    +0.000 C 
ATOM     13  C   UNL     1       6.788   4.676  17.536  0.00  0.00    +0.000 C 
ENDROOT
BRANCH   1  18
ATOM     14  C   UNL     1      -1.091  11.330  20.278  0.00  0.00    +0.000 C 
ATOM     15  C   UNL     1      -0.124  10.339  19.709  0.00  0.00    +0.000 A 
ATOM     16  C   UNL     1       0.209  10.325  18.361  0.00  0.00    +0.000 A 
ATOM     17  C   UNL     1       1.121   9.387  17.879  0.00  0.00    +0.000 A 
ATOM     18  C   UNL     1       1.730   8.438  18.735  0.00  0.00    +0.000 A 
ATOM     19  N   UNL     1       1.417   8.468  20.093  0.00  0.00    +0.000 N 
ATOM     20  O   UNL     1       1.958   7.718  20.966  0.00  0.00    +0.000 OA
ATOM     21  C   UNL     1       0.487   9.406  20.547  0.00  0.00    +0.000 A 
ENDBRANCH   1  18
TORSDOF 1
ENDMDL
MODEL 5
REMARK VINA RESULT:      -7.3      2.384      6.938
REMARK  Name = 
REMARK  6 active torsions:
REMARK  status: ('A' for Active; 'I' for Inactive)
REMARK    1  A    between atoms: C_1  and  C_2
REMARK    2  A    between atoms: C_5  and  C_6
REMARK    3  A    between atoms: C_12  and  C_13
REMARK    4  A    between atoms: C_12  and  C_14
REMARK    5  A    between atoms: C_16  and  C_17
REMARK    6  A    between atoms: C_16  and  C_18
REMARK                            x       y       z     vdW  Elec       q    Type
REMARK                         _______ _______ _______ _____ _____    ______ ____
ROOT
ATOM      1  C   UNL     1       2.932   6.776  18.495  0.00  0.00    +0.000 A 
ATOM      2  N   UNL     1       2.835   6.293  19.763  0.00  0.00    +0.000 NA
ATOM      3  N   UNL     1       2.107   6.960  20.707  0.00  0.00    +0.000 NA
ATOM      4  C   UNL     1       1.544   8.106  20.329  0.00  0.00    +0.000 A 
ATOM      5  C   UNL     1       1.697   8.591  19.061  0.00  0.00    +0.000 A 
ATOM      6  N   UNL     1       2.390   7.958  18.097  0.00  0.00    +0.000 NA
ATOM      7  C   UNL     1       0.995   9.916  18.957  0.00  0.00    +0.000 C 
ATOM      8  C   UNL     1      -0.261   9.842  18.093  0.00  0.00    +0.000 C 
ATOM      9  C   UNL     1       1.926  11.021  18.461  0.00  0.00    +0.000 C 
ATOM     10  O   UNL     1       0.606  10.230  20.330  0.00  0.00    +0.000 OA
ATOM     11  C   UNL     1       0.713   9.032  21.157  0.00  0.00    +0.000 C 
ATOM     12  C   UNL     1      -0.688   8.481  21.414  0.00  0.00    +0.000 C 
ATOM     13  C   UNL     1       1.399   9.397  22.470  0.00  0.00    +0.000 C 
ENDROOT
BRANCH   1  18
ATOM     14  C   UNL     1       6.187   3.893  14.674  0.00  0.00    +0.000 C 
ATOM     15  C   UNL     1       5.370   4.674  15.655  0.00  0.00    +0.000 A 
ATOM     16  C   UNL     1       5.531   6.043  15.823  0.00  0.00    +0.000 A 
ATOM     17  C   UNL     1       4.740   6.729  16.744  0.00  0.00    +0.000 A 
ATOM     18  C   UNL     1       3.760   6.064  17.521  0.00  0.00    +0.000 A 
ATOM     19  N   UNL     1       3.578   4.695  17.333  0.00  0.00    +0.000 N 
ATOM     20  O   UNL     1       2.680   4.009  17.916  0.00  0.00    +0.000 OA
ATOM     21  C   UNL     1       4.396   4.029  16.418  0.00  0.00    +0.000 A 
ENDBRANCH   1  18
TORSDOF 1
ENDMDL
MODEL 6
REMARK VINA RESULT:      -7.0      1.998      3.349
REMARK  Name = 
REMARK  6 active torsions:
REMARK  status: ('A' for Active; 'I' for Inactive)
REMARK    1  A    between atoms: C_1  and  C_2
REMARK    2  A    between atoms: C_5  and  C_6
REMARK    3  A    between atoms: C_12  and  C_13
REMARK    4  A    between atoms: C_12  and  C_14
REMARK    5  A    between atoms: C_16  and  C_17
REMARK    6  A    between atoms: C_16  and  C_18
REMARK                            x       y       z     vdW  Elec       q    Type
REMARK                         _______ _______ _______ _____ _____    ______ ____
ROOT
ATOM      1  C   UNL     1       2.448   6.725  19.036  0.00  0.00    +0.000 A 
ATOM      2  N   UNL     1       1.681   5.758  19.608  0.00  0.00    +0.000 NA
ATOM      3  N   UNL     1       2.064   4.448  19.561  0.00  0.00    +0.000 NA
ATOM      4  C   UNL     1       3.189   4.177  18.901  0.00  0.00    +0.000 A 
ATOM      5  C   UNL     1       3.915   5.163  18.296  0.00  0.00    +0.000 A 
ATOM      6  N   UNL     1       3.583   6.467  18.333  0.00  0.00    +0.000 NA
ATOM      7  C   UNL     1       5.090   4.543  17.593  0.00  0.00    +0.000 C 
ATOM      8  C   UNL     1       6.416   4.868  18.279  0.00  0.00    +0.000 C 
ATOM      9  C   UNL     1       5.141   4.924  16.115  0.00  0.00    +0.000 C 
ATOM     10  O   UNL     1       4.851   3.105  17.686  0.00  0.00    +0.000 OA
ATOM     11  C   UNL     1       3.823   2.841  18.687  0.00  0.00    +0.000 C 
ATOM     12  C   UNL     1       4.491   2.308  19.954  0.00  0.00    +0.000 C 
ATOM     13  C   UNL     1       2.836   1.822  18.127  0.00  0.00    +0.000 C 
ENDROOT
BRANCH   1  18
ATOM     14  C   UNL     1       0.572  12.199  19.200  0.00  0.00    +0.000 C 
ATOM     15  C   UNL     1       1.066  10.788  19.115  0.00  0.00    +0.000 A 
ATOM     16  C   UNL     1       1.670  10.286  17.969  0.00  0.00    +0.000 A 
ATOM     17  C   UNL     1       2.121   8.967  17.941  0.00  0.00    +0.000 A 
ATOM     18  C   UNL     1       1.984   8.113  19.061  0.00  0.00    +0.000 A 
ATOM     19  N   UNL     1       1.404   8.624  20.222  0.00  0.00    +0.000 N 
ATOM     20  O   UNL     1       1.299   7.976  21.311  0.00  0.00    +0.000 OA
ATOM     21  C   UNL     1       0.944   9.942  20.218  0.00  0.00    +0.000 A 
ENDBRANCH   1  18
TORSDOF 1
ENDMDL
MODEL 7
REMARK VINA RESULT:      -7.0      1.878      2.507
REMARK  Name = 
REMARK  6 active torsions:
REMARK  status: ('A' for Active; 'I' for Inactive)
REMARK    1  A    between atoms: C_1  and  C_2
REMARK    2  A    between atoms: C_5  and  C_6
REMARK    3  A    between atoms: C_12  and  C_13
REMARK    4  A    between atoms: C_12  and  C_14
REMARK    5  A    between atoms: C_16  and  C_17
REMARK    6  A    between atoms: C_16  and  C_18
REMARK                            x       y       z     vdW  Elec       q    Type
REMARK                         _______ _______ _______ _____ _____    ______ ____
ROOT
ATOM      1  C   UNL     1       2.667   6.251  18.996  0.00  0.00    +0.000 A 
ATOM      2  N   UNL     1       3.975   5.981  18.733  0.00  0.00    +0.000 NA
ATOM      3  N   UNL     1       4.448   4.702  18.798  0.00  0.00    +0.000 NA
ATOM      4  C   UNL     1       3.580   3.761  19.166  0.00  0.00    +0.000 A 
ATOM      5  C   UNL     1       2.284   4.066  19.469  0.00  0.00    +0.000 A 
ATOM      6  N   UNL     1       1.773   5.310  19.401  0.00  0.00    +0.000 NA
ATOM      7  C   UNL     1       1.574   2.812  19.896  0.00  0.00    +0.000 C 
ATOM      8  C   UNL     1       0.551   2.343  18.864  0.00  0.00    +0.000 C 
ATOM      9  C   UNL     1       0.923   2.961  21.269  0.00  0.00    +0.000 C 
ATOM     10  O   UNL     1       2.634   1.812  20.000  0.00  0.00    +0.000 OA
ATOM     11  C   UNL     1       3.834   2.297  19.327  0.00  0.00    +0.000 C 
ATOM     12  C   UNL     1       3.974   1.582  17.985  0.00  0.00    +0.000 C 
ATOM     13  C   UNL     1       5.044   2.022  20.215  0.00  0.00    +0.000 C 
ENDROOT
BRANCH   1  18
ATOM     14  C   UNL     1       0.789  11.725  18.938  0.00  0.00    +0.000 C 
ATOM     15  C   UNL     1       1.285  10.313  18.911  0.00  0.00    +0.000 A 
ATOM     16  C   UNL     1       1.944   9.785  17.808  0.00  0.00    +0.000 A 
ATOM     17  C   UNL     1       2.395   8.466  17.834  0.00  0.00    +0.000 A 
ATOM     18  C   UNL     1       2.203   7.638  18.966  0.00  0.00    +0.000 A 
ATOM     19  N   UNL     1       1.567   8.176  20.084  0.00  0.00    +0.000 N 
ATOM     20  O   UNL     1       1.409   7.554  21.182  0.00  0.00    +0.000 OA
ATOM     21  C   UNL     1       1.109   9.493  20.027  0.00  0.00    +0.000 A 
ENDBRANCH   1  18
TORSDOF 1
ENDMDL
MODEL 8
REMARK VINA RESULT:      -6.9      1.113      1.198
REMARK  Name = 
REMARK  6 active torsions:
REMARK  status: ('A' for Active; 'I' for Inactive)
REMARK    1  A    between atoms: C_1  and  C_2
REMARK    2  A    between atoms: C_5  and  C_6
REMARK    3  A    between atoms: C_12  and  C_13
REMARK    4  A    between atoms: C_12  and  C_14
REMARK    5  A    between atoms: C_16  and  C_17
REMARK    6  A    between atoms: C_16  and  C_18
REMARK                            x       y       z     vdW  Elec       q    Type
REMARK                         _______ _______ _______ _____ _____    ______ ____
ROOT
ATOM      1  C   UNL     1       2.283   6.678  19.787  0.00  0.00    +0.000 A 
ATOM      2  N   UNL     1       3.544   6.604  19.280  0.00  0.00    +0.000 NA
ATOM      3  N   UNL     1       4.114   5.394  19.008  0.00  0.00    +0.000 NA
ATOM      4  C   UNL     1       3.393   4.313  19.301  0.00  0.00    +0.000 A 
ATOM      5  C   UNL     1       2.147   4.416  19.853  0.00  0.00    +0.000 A 
ATOM      6  N   UNL     1       1.543   5.588  20.120  0.00  0.00    +0.000 NA
ATOM      7  C   UNL     1       1.614   3.035  20.116  0.00  0.00    +0.000 C 
ATOM      8  C   UNL     1       0.469   2.666  19.175  0.00  0.00    +0.000 C 
ATOM      9  C   UNL     1       1.195   2.849  21.572  0.00  0.00    +0.000 C 
ATOM     10  O   UNL     1       2.747   2.151  19.850  0.00  0.00    +0.000 OA
ATOM     11  C   UNL     1       3.778   2.880  19.119  0.00  0.00    +0.000 C 
ATOM     12  C   UNL     1       3.741   2.453  17.653  0.00  0.00    +0.000 C 
ATOM     13  C   UNL     1       5.138   2.570  19.738  0.00  0.00    +0.000 C 
ENDROOT
BRANCH   1  18
ATOM     14  C   UNL     1       0.076  11.888  21.008  0.00  0.00    +0.000 C 
ATOM     15  C   UNL     1       0.650  10.532  20.735  0.00  0.00    +0.000 A 
ATOM     16  C   UNL     1       0.865   9.606  21.747  0.00  0.00    +0.000 A 
ATOM     17  C   UNL     1       1.395   8.353  21.442  0.00  0.00    +0.000 A 
ATOM     18  C   UNL     1       1.720   7.989  20.113  0.00  0.00    +0.000 A 
ATOM     19  N   UNL     1       1.479   8.907  19.092  0.00  0.00    +0.000 N 
ATOM     20  O   UNL     1       1.659   8.664  17.857  0.00  0.00    +0.000 OA
ATOM     21  C   UNL     1       0.965  10.162  19.427  0.00  0.00    +0.000 A 
ENDBRANCH   1  18
TORSDOF 1
ENDMDL
MODEL 9
REMARK VINA RESULT:      -6.9      3.927      9.432
REMARK  Name = 
REMARK  6 active torsions:
REMARK  status: ('A' for Active; 'I' for Inactive)
REMARK    1  A    between atoms: C_1  and  C_2
REMARK    2  A    between atoms: C_5  and  C_6
REMARK    3  A    between atoms: C_12  and  C_13
REMARK    4  A    between atoms: C_12  and  C_14
REMARK    5  A    between atoms: C_16  and  C_17
REMARK    6  A    between atoms: C_16  and  C_18
REMARK                            x       y       z     vdW  Elec       q    Type
REMARK                         _______ _______ _______ _____ _____    ______ ____
ROOT
ATOM      1  C   UNL     1      -0.752  11.958  22.463  0.00  0.00    +0.000 A 
ATOM      2  N   UNL     1      -0.049  13.093  22.728  0.00  0.00    +0.000 NA
ATOM      3  N   UNL     1      -0.662  14.174  23.294  0.00  0.00    +0.000 NA
ATOM      4  C   UNL     1      -1.969  14.067  23.527  0.00  0.00    +0.000 A 
ATOM      5  C   UNL     1      -2.660  12.932  23.208  0.00  0.00    +0.000 A 
ATOM      6  N   UNL     1      -2.091  11.839  22.666  0.00  0.00    +0.000 NA
ATOM      7  C   UNL     1      -4.111  13.134  23.539  0.00  0.00    +0.000 C 
ATOM      8  C   UNL     1      -4.555  12.300  24.739  0.00  0.00    +0.000 C 
ATOM      9  C   UNL     1      -5.016  12.871  22.337  0.00  0.00    +0.000 C 
ATOM     10  O   UNL     1      -4.212  14.550  23.885  0.00  0.00    +0.000 OA
ATOM     11  C   UNL     1      -2.878  15.093  24.121  0.00  0.00    +0.000 C 
ATOM     12  C   UNL     1      -2.668  15.253  25.626  0.00  0.00    +0.000 C 
ATOM     13  C   UNL     1      -2.760  16.440  23.414  0.00  0.00    +0.000 C 
ENDROOT
BRANCH   1  18
ATOM     14  C   UNL     1       1.950   7.497  19.952  0.00  0.00    +0.000 C 
ATOM     15  C   UNL     1       1.248   8.671  20.562  0.00  0.00    +0.000 A 
ATOM     16  C   UNL     1       0.704   9.687  19.789  0.00  0.00    +0.000 A 
ATOM     17  C   UNL     1       0.053  10.756  20.403  0.00  0.00    +0.000 A 
ATOM     18  C   UNL     1      -0.077  10.836  21.811  0.00  0.00    +0.000 A 
ATOM     19  N   UNL     1       0.445   9.801  22.587  0.00  0.00    +0.000 N 
ATOM     20  O   UNL     1       0.321   9.727  23.850  0.00  0.00    +0.000 OA
ATOM     21  C   UNL     1       1.108   8.752  21.948  0.00  0.00    +0.000 A 
ENDBRANCH   1  18
TORSDOF 1
ENDMDL
