MODEL 1
REMARK VINA RESULT:      -7.4      0.000      0.000
REMARK  Name = 
REMARK  9 active torsions:
REMARK  status: ('A' for Active; 'I' for Inactive)
REMARK    1  A    between atoms: C_1  and  N_2
REMARK    2  A    between atoms: N_2  and  C_3
REMARK    3  A    between atoms: C_3  and  C_4
REMARK    4  A    between atoms: C_7  and  N_8
REMARK    5  A    between atoms: C_9  and  C_11
REMARK    6  A    between atoms: N_23  and  C_24
REMARK    7  A    between atoms: C_24  and  C_25
REMARK    8  A    between atoms: C_24  and  C_26
REMARK    9  A    between atoms: C_28  and  C_29
REMARK                            x       y       z     vdW  Elec       q    Type
REMARK                         _______ _______ _______ _____ _____    ______ ____
ROOT
ATOM      1  C   UNL     1       0.775  11.822  18.632  0.00  0.00    +0.000 C 
ATOM      2  O   UNL     1       1.509  11.410  19.802  0.00  0.00    +0.000 OA
ATOM      3  C   UNL     1       0.828  10.690  20.721  0.00  0.00    +0.000 A 
ATOM      4  C   UNL     1       0.952   9.291  20.845  0.00  0.00    +0.000 A 
ATOM      5  C   UNL     1       0.158   8.651  21.822  0.00  0.00    +0.000 A 
ATOM      6  C   UNL     1      -0.693   9.366  22.672  0.00  0.00    +0.000 A 
ATOM      7  C   UNL     1      -0.765  10.747  22.573  0.00  0.00    +0.000 A 
ATOM      8  C   UNL     1      -0.015  11.404  21.591  0.00  0.00    +0.000 A 
ATOM      9  C   UNL     1      -0.117  12.870  21.564  0.00  0.00    +0.000 C 
ATOM     10  O   UNL     1       0.392  13.467  22.512  0.00  0.00    +0.000 OA
ATOM     11  N   UNL     1      -0.880  13.509  20.568  0.00  0.00    +0.000 N 
ATOM     12  C   UNL     1      -1.543  12.828  19.450  0.00  0.00    +0.000 C 
ATOM     13  C   UNL     1      -0.785  11.765  18.629  0.00  0.00    +0.000 C 
ATOM     14  C   UNL     1      -1.430  10.379  18.832  0.00  0.00    +0.000 C 
ENDROOT
BRANCH   4  15
ATOM     15  N   UNL     1       1.747   8.402  20.064  0.00  0.00    +0.000 N 
ATOM     16  C   UNL     1       1.804   8.229  18.692  0.00  0.00    +0.000 C 
ATOM     17  O   UNL     1       1.223   8.886  17.839  0.00  0.00    +0.000 OA
ATOM     18  H   UNL     1       2.425   7.874  20.594  0.00  0.00    +0.000 HD
BRANCH  16  19
ATOM     19  C   UNL     1       2.709   7.132  18.195  0.00  0.00    +0.000 A 
ATOM     20  C   UNL     1       2.457   5.767  18.392  0.00  0.00    +0.000 A 
ATOM     21  C   UNL     1       3.332   4.809  17.860  0.00  0.00    +0.000 A 
ATOM     22  C   UNL     1       4.449   5.201  17.124  0.00  0.00    +0.000 A 
ATOM     23  C   UNL     1       4.698   6.556  16.913  0.00  0.00    +0.000 A 
ATOM     24  C   UNL     1       3.832   7.513  17.448  0.00  0.00    +0.000 A 
ENDBRANCH  16  19
ENDBRANCH   4  15
BRANCH  11  25
ATOM     25  C   UNL     1      -1.400  14.846  20.962  0.00  0.00    +0.000 C 
ATOM     26  C   UNL     1      -1.098  15.974  19.972  0.00  0.00    +0.000 C 
ATOM     27  C   UNL     1      -2.911  14.777  21.224  0.00  0.00    +0.000 C 
ENDBRANCH  11  25
BRANCH   1  28
ATOM     28  C   UNL     1       1.284  13.256  18.299  0.00  0.00    +0.000 C 
BRANCH  28  30
ATOM     29  C   UNL     1       3.537  14.126  18.213  0.00  0.00    +0.000 C 
ATOM     30  N   UNL     1       2.570  13.239  17.584  0.00  0.00    +0.000 NA
ATOM     31  H   UNL     1       2.922  12.274  17.595  0.00  0.00    +0.000 HD
ENDBRANCH  28  30
ENDBRANCH   1  28
TORSDOF 5
ENDMDL
MODEL 2
REMARK VINA RESULT:      -7.0      0.997      1.260
REMARK  Name = 
REMARK  9 active torsions:
REMARK  status: ('A' for Active; 'I' for Inactive)
REMARK    1  A    between atoms: C_1  and  N_2
REMARK    2  A    between atoms: N_2  and  C_3
REMARK    3  A    between atoms: C_3  and  C_4
REMARK    4  A    between atoms: C_7  and  N_8
REMARK    5  A    between atoms: C_9  and  C_11
REMARK    6  A    between atoms: N_23  and  C_24
REMARK    7  A    between atoms: C_24  and  C_25
REMARK    8  A    between atoms: C_24  and  C_26
REMARK    9  A    between atoms: C_28  and  C_29
REMARK                            x       y       z     vdW  Elec       q    Type
REMARK                         _______ _______ _______ _____ _____    ______ ____
ROOT
ATOM      1  C   UNL     1       0.676  11.733  18.584  0.00  0.00    +0.000 C 
ATOM      2  O   UNL     1       1.453  11.361  19.739  0.00  0.00    +0.000 OA
ATOM      3  C   UNL     1       0.820  10.630  20.684  0.00  0.00    +0.000 A 
ATOM      4  C   UNL     1       0.994   9.238  20.822  0.00  0.00    +0.000 A 
ATOM      5  C   UNL     1       0.247   8.584  21.826  0.00  0.00    +0.000 A 
ATOM      6  C   UNL     1      -0.606   9.281  22.689  0.00  0.00    +0.000 A 
ATOM      7  C   UNL     1      -0.727  10.658  22.575  0.00  0.00    +0.000 A 
ATOM      8  C   UNL     1      -0.024  11.327  21.567  0.00  0.00    +0.000 A 
ATOM      9  C   UNL     1      -0.177  12.788  21.525  0.00  0.00    +0.000 C 
ATOM     10  O   UNL     1       0.335  13.414  22.453  0.00  0.00    +0.000 OA
ATOM     11  N   UNL     1      -0.986  13.389  20.541  0.00  0.00    +0.000 N 
ATOM     12  C   UNL     1      -1.653  12.671  19.449  0.00  0.00    +0.000 C 
ATOM     13  C   UNL     1      -0.881  11.623  18.622  0.00  0.00    +0.000 C 
ATOM     14  C   UNL     1      -1.474  10.220  18.857  0.00  0.00    +0.000 C 
ENDROOT
BRANCH   4  15
ATOM     15  N   UNL     1       1.799   8.366  20.031  0.00  0.00    +0.000 N 
ATOM     16  C   UNL     1       2.008   7.002  20.139  0.00  0.00    +0.000 C 
ATOM     17  O   UNL     1       1.459   6.229  20.913  0.00  0.00    +0.000 OA
ATOM     18  H   UNL     1       2.217   8.804  19.223  0.00  0.00    +0.000 HD
BRANCH  16  19
ATOM     19  C   UNL     1       2.996   6.400  19.174  0.00  0.00    +0.000 A 
ATOM     20  C   UNL     1       3.330   6.979  17.941  0.00  0.00    +0.000 A 
ATOM     21  C   UNL     1       4.291   6.371  17.120  0.00  0.00    +0.000 A 
ATOM     22  C   UNL     1       4.929   5.200  17.523  0.00  0.00    +0.000 A 
ATOM     23  C   UNL     1       4.610   4.626  18.753  0.00  0.00    +0.000 A 
ATOM     24  C   UNL     1       3.647   5.224  19.570  0.00  0.00    +0.000 A 
ENDBRANCH  16  19
ENDBRANCH   4  15
BRANCH  11  25
ATOM     25  C   UNL     1      -1.540  14.712  20.933  0.00  0.00    +0.000 C 
ATOM     26  C   UNL     1      -1.124  15.879  20.033  0.00  0.00    +0.000 C 
ATOM     27  C   UNL     1      -3.072  14.646  21.021  0.00  0.00    +0.000 C 
ENDBRANCH  11  25
BRANCH   1  28
ATOM     28  C   UNL     1       1.127  13.179  18.221  0.00  0.00    +0.000 C 
BRANCH  28  30
ATOM     29  C   UNL     1       3.202  14.414  18.103  0.00  0.00    +0.000 C 
ATOM     30  N   UNL     1       2.493  13.216  17.676  0.00  0.00    +0.000 NA
ATOM     31  H   UNL     1       2.988  12.380  18.012  0.00  0.00    +0.000 HD
ENDBRANCH  28  30
ENDBRANCH   1  28
TORSDOF 5
ENDMDL
MODEL 3
REMARK VINA RESULT:      -6.9      1.007      1.420
REMARK  Name = 
REMARK  9 active torsions:
REMARK  status: ('A' for Active; 'I' for Inactive)
REMARK    1  A    between atoms: C_1  and  N_2
REMARK    2  A    between atoms: N_2  and  C_3
REMARK    3  A    between atoms: C_3  and  C_4
REMARK    4  A    between atoms: C_7  and  N_8
REMARK    5  A    between atoms: C_9  and  C_11
REMARK    6  A    between atoms: N_23  and  C_24
REMARK    7  A    between atoms: C_24  and  C_25
REMARK    8  A    between atoms: C_24  and  C_26
REMARK    9  A    between atoms: C_28  and  C_29
REMARK                            x       y       z     vdW  Elec       q    Type
REMARK                         _______ _______ _______ _____ _____    ______ ____
ROOT
ATOM      1  C   UNL     1       1.012  12.552  18.918  0.00  0.00    +0.000 C 
ATOM      2  O   UNL     1       1.584  12.156  20.180  0.00  0.00    +0.000 OA
ATOM      3  C   UNL     1       0.739  11.609  21.082  0.00  0.00    +0.000 A 
ATOM      4  C   UNL     1       0.667  10.222  21.324  0.00  0.00    +0.000 A 
ATOM      5  C   UNL     1      -0.284   9.773  22.267  0.00  0.00    +0.000 A 
ATOM      6  C   UNL     1      -1.103  10.660  22.974  0.00  0.00    +0.000 A 
ATOM      7  C   UNL     1      -0.983  12.026  22.764  0.00  0.00    +0.000 A 
ATOM      8  C   UNL     1      -0.073  12.496  21.811  0.00  0.00    +0.000 A 
ATOM      9  C   UNL     1       0.020  13.955  21.663  0.00  0.00    +0.000 C 
ATOM     10  O   UNL     1       0.521  14.566  22.607  0.00  0.00    +0.000 OA
ATOM     11  N   UNL     1      -0.565  14.594  20.553  0.00  0.00    +0.000 N 
ATOM     12  C   UNL     1      -1.214  13.905  19.432  0.00  0.00    +0.000 C 
ATOM     13  C   UNL     1      -0.536  12.688  18.771  0.00  0.00    +0.000 C 
ATOM     14  C   UNL     1      -1.372  11.416  19.016  0.00  0.00    +0.000 C 
ENDROOT
BRANCH   4  15
ATOM     15  N   UNL     1       1.402   9.176  20.692  0.00  0.00    +0.000 N 
ATOM     16  C   UNL     1       1.445   8.795  19.362  0.00  0.00    +0.000 C 
ATOM     17  O   UNL     1       0.906   9.352  18.415  0.00  0.00    +0.000 OA
ATOM     18  H   UNL     1       2.046   8.693  21.301  0.00  0.00    +0.000 HD
BRANCH  16  19
ATOM     19  C   UNL     1       2.277   7.580  19.043  0.00  0.00    +0.000 A 
ATOM     20  C   UNL     1       3.111   7.482  17.920  0.00  0.00    +0.000 A 
ATOM     21  C   UNL     1       3.883   6.328  17.720  0.00  0.00    +0.000 A 
ATOM     22  C   UNL     1       3.839   5.279  18.636  0.00  0.00    +0.000 A 
ATOM     23  C   UNL     1       3.022   5.375  19.760  0.00  0.00    +0.000 A 
ATOM     24  C   UNL     1       2.245   6.520  19.959  0.00  0.00    +0.000 A 
ENDBRANCH  16  19
ENDBRANCH   4  15
BRANCH  11  25
ATOM     25  C   UNL     1      -0.936  16.014  20.792  0.00  0.00    +0.000 C 
ATOM     26  C   UNL     1      -0.589  16.975  19.652  0.00  0.00    +0.000 C 
ATOM     27  C   UNL     1      -2.430  16.128  21.129  0.00  0.00    +0.000 C 
ENDBRANCH  11  25
BRANCH   1  28
ATOM     28  C   UNL     1       1.731  13.877  18.527  0.00  0.00    +0.000 C 
BRANCH  28  30
ATOM     29  C   UNL     1       4.032  14.578  18.283  0.00  0.00    +0.000 C 
ATOM     30  N   UNL     1       3.013  13.635  17.845  0.00  0.00    +0.000 NA
ATOM     31  H   UNL     1       3.309  12.676  18.063  0.00  0.00    +0.000 HD
ENDBRANCH  28  30
ENDBRANCH   1  28
TORSDOF 5
ENDMDL
MODEL 4
REMARK VINA RESULT:      -6.8      1.285      1.660
REMARK  Name = 
REMARK  9 active torsions:
REMARK  status: ('A' for Active; 'I' for Inactive)
REMARK    1  A    between atoms: C_1  and  N_2
REMARK    2  A    between atoms: N_2  and  C_3
REMARK    3  A    between atoms: C_3  and  C_4
REMARK    4  A    between atoms: C_7  and  N_8
REMARK    5  A    between atoms: C_9  and  C_11
REMARK    6  A    between atoms: N_23  and  C_24
REMARK    7  A    between atoms: C_24  and  C_25
REMARK    8  A    between atoms: C_24  and  C_26
REMARK    9  A    between atoms: C_28  and  C_29
REMARK                            x       y       z     vdW  Elec       q    Type
REMARK                         _______ _______ _______ _____ _____    ______ ____
ROOT
ATOM      1  C   UNL     1       1.350  13.063  19.037  0.00  0.00    +0.000 C 
ATOM      2  O   UNL     1       1.762  12.591  20.335  0.00  0.00    +0.000 OA
ATOM      3  C   UNL     1       0.790  12.103  21.137  0.00  0.00    +0.000 A 
ATOM      4  C   UNL     1       0.575  10.722  21.330  0.00  0.00    +0.000 A 
ATOM      5  C   UNL     1      -0.497  10.341  22.166  0.00  0.00    +0.000 A 
ATOM      6  C   UNL     1      -1.299  11.281  22.820  0.00  0.00    +0.000 A 
ATOM      7  C   UNL     1      -1.042  12.635  22.663  0.00  0.00    +0.000 A 
ATOM      8  C   UNL     1      -0.008  13.043  21.813  0.00  0.00    +0.000 A 
ATOM      9  C   UNL     1       0.226  14.490  21.718  0.00  0.00    +0.000 C 
ATOM     10  O   UNL     1       0.685  15.033  22.723  0.00  0.00    +0.000 OA
ATOM     11  N   UNL     1      -0.193  15.203  20.578  0.00  0.00    +0.000 N 
ATOM     12  C   UNL     1      -0.789  14.599  19.381  0.00  0.00    +0.000 C 
ATOM     13  C   UNL     1      -0.159  13.340  18.750  0.00  0.00    +0.000 C 
ATOM     14  C   UNL     1      -1.123  12.144  18.878  0.00  0.00    +0.000 C 
ENDROOT
BRANCH   4  15
ATOM     15  N   UNL     1       1.274   9.629  20.738  0.00  0.00    +0.000 N 
ATOM     16  C   UNL     1       1.280   9.179  19.429  0.00  0.00    +0.000 C 
ATOM     17  O   UNL     1       0.734   9.699  18.465  0.00  0.00    +0.000 OA
ATOM     18  H   UNL     1       1.919   9.162  21.358  0.00  0.00    +0.000 HD
BRANCH  16  19
ATOM     19  C   UNL     1       2.078   7.931  19.157  0.00  0.00    +0.000 A 
ATOM     20  C   UNL     1       2.082   6.811  20.001  0.00  0.00    +0.000 A 
ATOM     21  C   UNL     1       2.823   5.673  19.651  0.00  0.00    +0.000 A 
ATOM     22  C   UNL     1       3.549   5.638  18.462  0.00  0.00    +0.000 A 
ATOM     23  C   UNL     1       3.539   6.743  17.613  0.00  0.00    +0.000 A 
ATOM     24  C   UNL     1       2.808   7.882  17.961  0.00  0.00    +0.000 A 
ENDBRANCH  16  19
ENDBRANCH   4  15
BRANCH  11  25
ATOM     25  C   UNL     1      -0.460  16.645  20.824  0.00  0.00    +0.000 C 
ATOM     26  C   UNL     1      -0.064  17.581  19.679  0.00  0.00    +0.000 C 
ATOM     27  C   UNL     1      -1.937  16.862  21.183  0.00  0.00    +0.000 C 
ENDBRANCH  11  25
BRANCH   1  28
ATOM     28  C   UNL     1       2.216  14.327  18.754  0.00  0.00    +0.000 C 
BRANCH  28  30
ATOM     29  C   UNL     1       4.507  14.736  18.102  0.00  0.00    +0.000 C 
ATOM     30  N   UNL     1       3.260  14.073  17.749  0.00  0.00    +0.000 NA
ATOM     31  H   UNL     1       3.407  13.058  17.698  0.00  0.00    +0.000 HD
ENDBRANCH  28  30
ENDBRANCH   1  28
TORSDOF 5
ENDMDL
MODEL 5
REMARK VINA RESULT:      -6.8      1.792      2.687
REMARK  Name = 
REMARK  9 active torsions:
REMARK  status: ('A' for Active; 'I' for Inactive)
REMARK    1  A    between atoms: C_1  and  N_2
REMARK    2  A    between atoms: N_2  and  C_3
REMARK    3  A    between atoms: C_3  and  C_4
REMARK    4  A    between atoms: C_7  and  N_8
REMARK    5  A    between atoms: C_9  and  C_11
REMARK    6  A    between atoms: N_23  and  C_24
REMARK    7  A    between atoms: C_24  and  C_25
REMARK    8  A    between atoms: C_24  and  C_26
REMARK    9  A    between atoms: C_28  and  C_29
REMARK                            x       y       z     vdW  Elec       q    Type
REMARK                         _______ _______ _______ _____ _____    ______ ____
ROOT
ATOM      1  C   UNL     1       1.823  13.207  18.971  0.00  0.00    +0.000 C 
ATOM      2  O   UNL     1       1.982  12.629  20.281  0.00  0.00    +0.000 OA
ATOM      3  C   UNL     1       0.849  12.403  20.984  0.00  0.00    +0.000 A 
ATOM      4  C   UNL     1       0.268  11.125  21.112  0.00  0.00    +0.000 A 
ATOM      5  C   UNL     1      -0.937  11.027  21.842  0.00  0.00    +0.000 A 
ATOM      6  C   UNL     1      -1.523  12.138  22.459  0.00  0.00    +0.000 A 
ATOM      7  C   UNL     1      -0.911  13.380  22.369  0.00  0.00    +0.000 A 
ATOM      8  C   UNL     1       0.265  13.512  21.622  0.00  0.00    +0.000 A 
ATOM      9  C   UNL     1       0.873  14.849  21.595  0.00  0.00    +0.000 C 
ATOM     10  O   UNL     1       1.367  15.243  22.652  0.00  0.00    +0.000 OA
ATOM     11  N   UNL     1       0.757  15.659  20.449  0.00  0.00    +0.000 N 
ATOM     12  C   UNL     1       0.133  15.243  19.187  0.00  0.00    +0.000 C 
ATOM     13  C   UNL     1       0.469  13.871  18.569  0.00  0.00    +0.000 C 
ATOM     14  C   UNL     1      -0.779  12.966  18.576  0.00  0.00    +0.000 C 
ENDROOT
BRANCH   4  15
ATOM     15  N   UNL     1       0.709   9.893  20.543  0.00  0.00    +0.000 N 
ATOM     16  C   UNL     1       1.336   8.812  21.137  0.00  0.00    +0.000 C 
ATOM     17  O   UNL     1       1.572   8.656  22.327  0.00  0.00    +0.000 OA
ATOM     18  H   UNL     1       0.452   9.766  19.576  0.00  0.00    +0.000 HD
BRANCH  16  19
ATOM     19  C   UNL     1       1.741   7.690  20.218  0.00  0.00    +0.000 A 
ATOM     20  C   UNL     1       2.238   7.887  18.922  0.00  0.00    +0.000 A 
ATOM     21  C   UNL     1       2.630   6.786  18.147  0.00  0.00    +0.000 A 
ATOM     22  C   UNL     1       2.542   5.492  18.659  0.00  0.00    +0.000 A 
ATOM     23  C   UNL     1       2.061   5.290  19.950  0.00  0.00    +0.000 A 
ATOM     24  C   UNL     1       1.662   6.384  20.723  0.00  0.00    +0.000 A 
ENDBRANCH  16  19
ENDBRANCH   4  15
BRANCH  11  25
ATOM     25  C   UNL     1       0.852  17.117  20.720  0.00  0.00    +0.000 C 
ATOM     26  C   UNL     1       1.661  17.915  19.693  0.00  0.00    +0.000 C 
ATOM     27  C   UNL     1      -0.550  17.728  20.862  0.00  0.00    +0.000 C 
ENDBRANCH  11  25
BRANCH   1  28
ATOM     28  C   UNL     1       3.008  14.204  18.803  0.00  0.00    +0.000 C 
BRANCH  28  30
ATOM     29  C   UNL     1       3.646  15.941  17.248  0.00  0.00    +0.000 C 
ATOM     30  N   UNL     1       3.252  14.547  17.393  0.00  0.00    +0.000 NA
ATOM     31  H   UNL     1       4.000  13.935  17.045  0.00  0.00    +0.000 HD
ENDBRANCH  28  30
ENDBRANCH   1  28
TORSDOF 5
ENDMDL
MODEL 6
REMARK VINA RESULT:      -6.8      1.491      2.180
REMARK  Name = 
REMARK  9 active torsions:
REMARK  status: ('A' for Active; 'I' for Inactive)
REMARK    1  A    between atoms: C_1  and  N_2
REMARK    2  A    between atoms: N_2  and  C_3
REMARK    3  A    between atoms: C_3  and  C_4
REMARK    4  A    between atoms: C_7  and  N_8
REMARK    5  A    between atoms: C_9  and  C_11
REMARK    6  A    between atoms: N_23  and  C_24
REMARK    7  A    between atoms: C_24  and  C_25
REMARK    8  A    between atoms: C_24  and  C_26
REMARK    9  A    between atoms: C_28  and  C_29
REMARK                            x       y       z     vdW  Elec       q    Type
REMARK                         _______ _______ _______ _____ _____    ______ ____
ROOT
ATOM      1  C   UNL     1       1.889  13.164  19.043  0.00  0.00    +0.000 C 
ATOM      2  O   UNL     1       2.085  12.623  20.365  0.00  0.00    +0.000 OA
ATOM      3  C   UNL     1       0.975  12.226  21.027  0.00  0.00    +0.000 A 
ATOM      4  C   UNL     1       0.594  10.874  21.145  0.00  0.00    +0.000 A 
ATOM      5  C   UNL     1      -0.608  10.593  21.831  0.00  0.00    +0.000 A 
ATOM      6  C   UNL     1      -1.382  11.602  22.415  0.00  0.00    +0.000 A 
ATOM      7  C   UNL     1      -0.967  12.923  22.336  0.00  0.00    +0.000 A 
ATOM      8  C   UNL     1       0.202  13.233  21.632  0.00  0.00    +0.000 A 
ATOM      9  C   UNL     1       0.597  14.649  21.615  0.00  0.00    +0.000 C 
ATOM     10  O   UNL     1       0.982  15.118  22.686  0.00  0.00    +0.000 OA
ATOM     11  N   UNL     1       0.400  15.426  20.457  0.00  0.00    +0.000 N 
ATOM     12  C   UNL     1      -0.103  14.914  19.177  0.00  0.00    +0.000 C 
ATOM     13  C   UNL     1       0.465  13.609  18.585  0.00  0.00    +0.000 C 
ATOM     14  C   UNL     1      -0.627  12.521  18.555  0.00  0.00    +0.000 C 
ENDROOT
BRANCH   4  15
ATOM     15  N   UNL     1       1.242   9.723  20.605  0.00  0.00    +0.000 N 
ATOM     16  C   UNL     1       1.336   9.286  19.296  0.00  0.00    +0.000 C 
ATOM     17  O   UNL     1       0.939   9.863  18.293  0.00  0.00    +0.000 OA
ATOM     18  H   UNL     1       1.776   9.193  21.278  0.00  0.00    +0.000 HD
BRANCH  16  19
ATOM     19  C   UNL     1       2.036   7.969  19.082  0.00  0.00    +0.000 A 
ATOM     20  C   UNL     1       2.817   7.678  17.953  0.00  0.00    +0.000 A 
ATOM     21  C   UNL     1       3.467   6.440  17.852  0.00  0.00    +0.000 A 
ATOM     22  C   UNL     1       3.356   5.496  18.872  0.00  0.00    +0.000 A 
ATOM     23  C   UNL     1       2.593   5.784  20.002  0.00  0.00    +0.000 A 
ATOM     24  C   UNL     1       1.936   7.014  20.102  0.00  0.00    +0.000 A 
ENDBRANCH  16  19
ENDBRANCH   4  15
BRANCH  11  25
ATOM     25  C   UNL     1       0.257  16.883  20.718  0.00  0.00    +0.000 C 
ATOM     26  C   UNL     1       1.212  17.779  19.923  0.00  0.00    +0.000 C 
ATOM     27  C   UNL     1      -1.192  17.330  20.479  0.00  0.00    +0.000 C 
ENDBRANCH  11  25
BRANCH   1  28
ATOM     28  C   UNL     1       2.911  14.332  18.910  0.00  0.00    +0.000 C 
BRANCH  28  30
ATOM     29  C   UNL     1       3.395  16.053  17.283  0.00  0.00    +0.000 C 
ATOM     30  N   UNL     1       3.245  14.622  17.507  0.00  0.00    +0.000 NA
ATOM     31  H   UNL     1       4.126  14.141  17.287  0.00  0.00    +0.000 HD
ENDBRANCH  28  30
ENDBRANCH   1  28
TORSDOF 5
ENDMDL
MODEL 7
REMARK VINA RESULT:      -6.7      1.736      2.402
REMARK  Name = 
REMARK  9 active torsions:
REMARK  status: ('A' for Active; 'I' for Inactive)
REMARK    1  A    between atoms: C_1  and  N_2
REMARK    2  A    between atoms: N_2  and  C_3
REMARK    3  A    between atoms: C_3  and  C_4
REMARK    4  A    between atoms: C_7  and  N_8
REMARK    5  A    between atoms: C_9  and  C_11
REMARK    6  A    between atoms: N_23  and  C_24
REMARK    7  A    between atoms: C_24  and  C_25
REMARK    8  A    between atoms: C_24  and  C_26
REMARK    9  A    between atoms: C_28  and  C_29
REMARK                            x       y       z     vdW  Elec       q    Type
REMARK                         _______ _______ _______ _____ _____    ______ ____
ROOT
ATOM      1  C   UNL     1       1.451  13.074  18.751  0.00  0.00    +0.000 C 
ATOM      2  O   UNL     1       1.828  12.564  20.045  0.00  0.00    +0.000 OA
ATOM      3  C   UNL     1       0.822  12.309  20.912  0.00  0.00    +0.000 A 
ATOM      4  C   UNL     1       0.342  11.008  21.168  0.00  0.00    +0.000 A 
ATOM      5  C   UNL     1      -0.738  10.878  22.068  0.00  0.00    +0.000 A 
ATOM      6  C   UNL     1      -1.296  11.982  22.722  0.00  0.00    +0.000 A 
ATOM      7  C   UNL     1      -0.778  13.249  22.500  0.00  0.00    +0.000 A 
ATOM      8  C   UNL     1       0.270  13.411  21.587  0.00  0.00    +0.000 A 
ATOM      9  C   UNL     1       0.788  14.777  21.424  0.00  0.00    +0.000 C 
ATOM     10  O   UNL     1       1.402  15.243  22.384  0.00  0.00    +0.000 OA
ATOM     11  N   UNL     1       0.461  15.528  20.279  0.00  0.00    +0.000 N 
ATOM     12  C   UNL     1      -0.309  15.024  19.136  0.00  0.00    +0.000 C 
ATOM     13  C   UNL     1       0.016  13.646  18.525  0.00  0.00    +0.000 C 
ATOM     14  C   UNL     1      -1.162  12.677  18.745  0.00  0.00    +0.000 C 
ENDROOT
BRANCH   4  15
ATOM     15  N   UNL     1       0.771   9.778  20.586  0.00  0.00    +0.000 N 
ATOM     16  C   UNL     1       1.398   8.689  21.166  0.00  0.00    +0.000 C 
ATOM     17  O   UNL     1       1.644   8.523  22.353  0.00  0.00    +0.000 OA
ATOM     18  H   UNL     1       0.504   9.659  19.620  0.00  0.00    +0.000 HD
BRANCH  16  19
ATOM     19  C   UNL     1       1.787   7.571  20.235  0.00  0.00    +0.000 A 
ATOM     20  C   UNL     1       1.713   6.213  20.577  0.00  0.00    +0.000 A 
ATOM     21  C   UNL     1       2.058   5.233  19.635  0.00  0.00    +0.000 A 
ATOM     22  C   UNL     1       2.464   5.597  18.352  0.00  0.00    +0.000 A 
ATOM     23  C   UNL     1       2.528   6.944  18.002  0.00  0.00    +0.000 A 
ATOM     24  C   UNL     1       2.192   7.923  18.940  0.00  0.00    +0.000 A 
ENDBRANCH  16  19
ENDBRANCH   4  15
BRANCH  11  25
ATOM     25  C   UNL     1       0.507  17.000  20.481  0.00  0.00    +0.000 C 
ATOM     26  C   UNL     1       1.172  17.788  19.349  0.00  0.00    +0.000 C 
ATOM     27  C   UNL     1      -0.904  17.549  20.734  0.00  0.00    +0.000 C 
ENDBRANCH  11  25
BRANCH   1  28
ATOM     28  C   UNL     1       2.539  14.125  18.379  0.00  0.00    +0.000 C 
BRANCH  28  30
ATOM     29  C   UNL     1       4.130  15.545  19.516  0.00  0.00    +0.000 C 
ATOM     30  N   UNL     1       3.615  14.190  19.380  0.00  0.00    +0.000 NA
ATOM     31  H   UNL     1       3.230  13.872  20.277  0.00  0.00    +0.000 HD
ENDBRANCH  28  30
ENDBRANCH   1  28
TORSDOF 5
ENDMDL
MODEL 8
REMARK VINA RESULT:      -6.6      2.021      3.613
REMARK  Name = 
REMARK  9 active torsions:
REMARK  status: ('A' for Active; 'I' for Inactive)
REMARK    1  A    between atoms: C_1  and  N_2
REMARK    2  A    between atoms: N_2  and  C_3
REMARK    3  A    between atoms: C_3  and  C_4
REMARK    4  A    between atoms: C_7  and  N_8
REMARK    5  A    between atoms: C_9  and  C_11
REMARK    6  A    between atoms: N_23  and  C_24
REMARK    7  A    between atoms: C_24  and  C_25
REMARK    8  A    between atoms: C_24  and  C_26
REMARK    9  A    between atoms: C_28  and  C_29
REMARK                            x       y       z     vdW  Elec       q    Type
REMARK                         _______ _______ _______ _____ _____    ______ ____
ROOT
ATOM      1  C   UNL     1      -0.056  12.169  20.994  0.00  0.00    +0.000 C 
ATOM      2  O   UNL     1      -0.934  11.068  20.691  0.00  0.00    +0.000 OA
ATOM      3  C   UNL     1      -1.408  11.002  19.425  0.00  0.00    +0.000 A 
ATOM      4  C   UNL     1      -0.890  10.117  18.458  0.00  0.00    +0.000 A 
ATOM      5  C   UNL     1      -1.447  10.172  17.161  0.00  0.00    +0.000 A 
ATOM      6  C   UNL     1      -2.501  11.034  16.842  0.00  0.00    +0.000 A 
ATOM      7  C   UNL     1      -3.036  11.860  17.820  0.00  0.00    +0.000 A 
ATOM      8  C   UNL     1      -2.480  11.852  19.104  0.00  0.00    +0.000 A 
ATOM      9  C   UNL     1      -3.116  12.731  20.095  0.00  0.00    +0.000 C 
ATOM     10  O   UNL     1      -4.247  12.410  20.460  0.00  0.00    +0.000 OA
ATOM     11  N   UNL     1      -2.494  13.936  20.477  0.00  0.00    +0.000 N 
ATOM     12  C   UNL     1      -1.169  14.377  20.026  0.00  0.00    +0.000 C 
ATOM     13  C   UNL     1       0.020  13.395  20.031  0.00  0.00    +0.000 C 
ATOM     14  C   UNL     1       0.485  13.118  18.588  0.00  0.00    +0.000 C 
ENDROOT
BRANCH   4  15
ATOM     15  N   UNL     1       0.185   9.190  18.594  0.00  0.00    +0.000 N 
ATOM     16  C   UNL     1       1.492   9.267  18.145  0.00  0.00    +0.000 C 
ATOM     17  O   UNL     1       2.029  10.218  17.594  0.00  0.00    +0.000 OA
ATOM     18  H   UNL     1      -0.026   8.391  19.173  0.00  0.00    +0.000 HD
BRANCH  16  19
ATOM     19  C   UNL     1       2.356   8.059  18.395  0.00  0.00    +0.000 A 
ATOM     20  C   UNL     1       2.200   7.207  19.498  0.00  0.00    +0.000 A 
ATOM     21  C   UNL     1       3.023   6.079  19.634  0.00  0.00    +0.000 A 
ATOM     22  C   UNL     1       3.990   5.789  18.673  0.00  0.00    +0.000 A 
ATOM     23  C   UNL     1       4.142   6.625  17.569  0.00  0.00    +0.000 A 
ATOM     24  C   UNL     1       3.329   7.754  17.434  0.00  0.00    +0.000 A 
ENDBRANCH  16  19
ENDBRANCH   4  15
BRANCH  11  25
ATOM     25  C   UNL     1      -3.433  14.978  20.969  0.00  0.00    +0.000 C 
ATOM     26  C   UNL     1      -3.584  15.046  22.492  0.00  0.00    +0.000 C 
ATOM     27  C   UNL     1      -3.036  16.357  20.426  0.00  0.00    +0.000 C 
ENDBRANCH  11  25
BRANCH   1  28
ATOM     28  C   UNL     1      -0.423  12.614  22.441  0.00  0.00    +0.000 C 
BRANCH  28  30
ATOM     29  C   UNL     1      -2.431  11.833  23.537  0.00  0.00    +0.000 C 
ATOM     30  N   UNL     1      -1.044  11.529  23.217  0.00  0.00    +0.000 NA
ATOM     31  H   UNL     1      -0.996  10.672  22.653  0.00  0.00    +0.000 HD
ENDBRANCH  28  30
ENDBRANCH   1  28
TORSDOF 5
ENDMDL
MODEL 9
REMARK VINA RESULT:      -6.6      6.407      9.387
REMARK  Name = 
REMARK  9 active torsions:
REMARK  status: ('A' for Active; 'I' for Inactive)
REMARK    1  A    between atoms: C_1  and  N_2
REMARK    2  A    between atoms: N_2  and  C_3
REMARK    3  A    between atoms: C_3  and  C_4
REMARK    4  A    between atoms: C_7  and  N_8
REMARK    5  A    between atoms: C_9  and  C_11
REMARK    6  A    between atoms: N_23  and  C_24
REMARK    7  A    between atoms: C_24  and  C_25
REMARK    8  A    between atoms: C_24  and  C_26
REMARK    9  A    between atoms: C_28  and  C_29
REMARK                            x       y       z     vdW  Elec       q    Type
REMARK                         _______ _______ _______ _____ _____    ______ ____
ROOT
ATOM      1  C   UNL     1       7.742  13.965  19.347  0.00  0.00    +0.000 C 
ATOM      2  O   UNL     1       8.244  13.643  18.036  0.00  0.00    +0.000 OA
ATOM      3  C   UNL     1       9.561  13.350  17.948  0.00  0.00    +0.000 A 
ATOM      4  C   UNL     1      10.049  12.032  17.838  0.00  0.00    +0.000 A 
ATOM      5  C   UNL     1      11.449  11.857  17.790  0.00  0.00    +0.000 A 
ATOM      6  C   UNL     1      12.333  12.942  17.806  0.00  0.00    +0.000 A 
ATOM      7  C   UNL     1      11.837  14.236  17.860  0.00  0.00    +0.000 A 
ATOM      8  C   UNL     1      10.454  14.436  17.943  0.00  0.00    +0.000 A 
ATOM      9  C   UNL     1       9.999  15.833  17.968  0.00  0.00    +0.000 C 
ATOM     10  O   UNL     1      10.142  16.469  16.924  0.00  0.00    +0.000 OA
ATOM     11  N   UNL     1       9.558  16.415  19.172  0.00  0.00    +0.000 N 
ATOM     12  C   UNL     1       9.420  15.703  20.448  0.00  0.00    +0.000 C 
ATOM     13  C   UNL     1       8.734  14.323  20.498  0.00  0.00    +0.000 C 
ATOM     14  C   UNL     1       9.753  13.238  20.900  0.00  0.00    +0.000 C 
ENDROOT
BRANCH   4  15
ATOM     15  N   UNL     1       9.307  10.814  17.826  0.00  0.00    +0.000 N 
ATOM     16  C   UNL     1       9.082   9.897  18.837  0.00  0.00    +0.000 C 
ATOM     17  O   UNL     1       9.418   9.992  20.010  0.00  0.00    +0.000 OA
ATOM     18  H   UNL     1       8.809  10.639  16.965  0.00  0.00    +0.000 HD
BRANCH  16  19
ATOM     19  C   UNL     1       8.308   8.661  18.457  0.00  0.00    +0.000 A 
ATOM     20  C   UNL     1       7.358   8.625  17.427  0.00  0.00    +0.000 A 
ATOM     21  C   UNL     1       6.712   7.421  17.112  0.00  0.00    +0.000 A 
ATOM     22  C   UNL     1       7.014   6.252  17.808  0.00  0.00    +0.000 A 
ATOM     23  C   UNL     1       7.966   6.278  18.825  0.00  0.00    +0.000 A 
ATOM     24  C   UNL     1       8.607   7.478  19.146  0.00  0.00    +0.000 A 
ENDBRANCH  16  19
ENDBRANCH   4  15
BRANCH  11  25
ATOM     25  C   UNL     1       9.703  17.894  19.224  0.00  0.00    +0.000 C 
ATOM     26  C   UNL     1       8.580  18.628  19.963  0.00  0.00    +0.000 C 
ATOM     27  C   UNL     1      11.060  18.278  19.830  0.00  0.00    +0.000 C 
ENDBRANCH  11  25
BRANCH   1  28
ATOM     28  C   UNL     1       6.700  15.103  19.132  0.00  0.00    +0.000 C 
BRANCH  28  30
ATOM     29  C   UNL     1       4.537  15.444  18.107  0.00  0.00    +0.000 C 
ATOM     30  N   UNL     1       5.867  14.876  17.940  0.00  0.00    +0.000 NA
ATOM     31  H   UNL     1       6.336  15.318  17.140  0.00  0.00    +0.000 HD
ENDBRANCH  28  30
ENDBRANCH   1  28
TORSDOF 5
ENDMDL
