MODEL 1
REMARK VINA RESULT:      -6.5      0.000      0.000
REMARK  Name = 
REMARK  8 active torsions:
REMARK  status: ('A' for Active; 'I' for Inactive)
REMARK    1  A    between atoms: C_2  and  C_3
REMARK    2  A    between atoms: C_3  and  N_4
REMARK    3  A    between atoms: N_4  and  C_5
REMARK    4  A    between atoms: N_4  and  C_6
REMARK    5  A    between atoms: C_6  and  C_7
REMARK    6  A    between atoms: C_7  and  C_8
REMARK    7  A    between atoms: C_8  and  C_9
REMARK    8  A    between atoms: C_9  and  C_11
REMARK                            x       y       z     vdW  Elec       q    Type
REMARK                         _______ _______ _______ _____ _____    ______ ____
ROOT
ATOM      1  C   UNL     1       4.541   6.316  17.884  0.00  0.00    +0.000 C 
ENDROOT
BRANCH   1   2
ATOM      2  C   UNL     1       3.083   6.609  18.136  0.00  0.00    +0.000 C 
ATOM      3  C   UNL     1       2.445   7.765  17.891  0.00  0.00    +0.000 C 
BRANCH   2   4
ATOM      4  C   UNL     1       2.284   5.517  18.707  0.00  0.00    +0.000 A 
ATOM      5  C   UNL     1       2.036   5.468  20.084  0.00  0.00    +0.000 A 
ATOM      6  C   UNL     1       1.378   4.368  20.638  0.00  0.00    +0.000 A 
ATOM      7  C   UNL     1       0.960   3.321  19.819  0.00  0.00    +0.000 A 
ATOM      8  C   UNL     1       1.185   3.375  18.444  0.00  0.00    +0.000 A 
ATOM      9  C   UNL     1       1.844   4.471  17.888  0.00  0.00    +0.000 A 
ENDBRANCH   2   4
ENDBRANCH   1   2
BRANCH   1  10
ATOM     10  C   UNL     1       4.853   5.887  16.444  0.00  0.00    +0.000 C 
BRANCH  10  11
ATOM     11  C   UNL     1       5.153   4.399  16.316  0.00  0.00    +0.000 C 
BRANCH  11  12
ATOM     12  N   UNL     1       6.530   4.114  15.878  0.00  0.00    +0.000 NA
ATOM     13  C   UNL     1       7.426   4.493  16.969  0.00  0.00    +0.000 C 
BRANCH  12  14
ATOM     14  C   UNL     1       6.850   4.811  14.620  0.00  0.00    +0.000 C 
BRANCH  14  16
ATOM     15  C   UNL     1       5.893   3.321  12.422  0.00  0.00    +0.000 C 
ATOM     16  C   UNL     1       6.335   4.009  13.437  0.00  0.00    +0.000 C 
ENDBRANCH  14  16
ENDBRANCH  12  14
ENDBRANCH  11  12
ENDBRANCH  10  11
ENDBRANCH   1  10
TORSDOF 7
ENDMDL
MODEL 2
REMARK VINA RESULT:      -6.2      0.873      1.016
REMARK  Name = 
REMARK  8 active torsions:
REMARK  status: ('A' for Active; 'I' for Inactive)
REMARK    1  A    between atoms: C_2  and  C_3
REMARK    2  A    between atoms: C_3  and  N_4
REMARK    3  A    between atoms: N_4  and  C_5
REMARK    4  A    between atoms: N_4  and  C_6
REMARK    5  A    between atoms: C_6  and  C_7
REMARK    6  A    between atoms: C_7  and  C_8
REMARK    7  A    between atoms: C_8  and  C_9
REMARK    8  A    between atoms: C_9  and  C_11
REMARK                            x       y       z     vdW  Elec       q    Type
REMARK                         _______ _______ _______ _____ _____    ______ ____
ROOT
ATOM      1  C   UNL     1       4.211   5.893  17.296  0.00  0.00    +0.000 C 
ENDROOT
BRANCH   1   2
ATOM      2  C   UNL     1       2.983   6.311  18.066  0.00  0.00    +0.000 C 
ATOM      3  C   UNL     1       2.537   7.565  18.243  0.00  0.00    +0.000 C 
BRANCH   2   4
ATOM      4  C   UNL     1       2.197   5.234  18.682  0.00  0.00    +0.000 A 
ATOM      5  C   UNL     1       1.957   5.234  20.061  0.00  0.00    +0.000 A 
ATOM      6  C   UNL     1       1.312   4.150  20.659  0.00  0.00    +0.000 A 
ATOM      7  C   UNL     1       0.900   3.069  19.883  0.00  0.00    +0.000 A 
ATOM      8  C   UNL     1       1.117   3.073  18.505  0.00  0.00    +0.000 A 
ATOM      9  C   UNL     1       1.763   4.154  17.905  0.00  0.00    +0.000 A 
ENDBRANCH   2   4
ENDBRANCH   1   2
BRANCH   1  10
ATOM     10  C   UNL     1       5.197   7.037  17.024  0.00  0.00    +0.000 C 
BRANCH  10  11
ATOM     11  C   UNL     1       6.648   6.577  16.982  0.00  0.00    +0.000 C 
BRANCH  11  12
ATOM     12  N   UNL     1       6.802   5.151  16.648  0.00  0.00    +0.000 NA
ATOM     13  C   UNL     1       7.632   4.543  17.687  0.00  0.00    +0.000 C 
BRANCH  12  14
ATOM     14  C   UNL     1       7.369   4.971  15.300  0.00  0.00    +0.000 C 
BRANCH  14  16
ATOM     15  C   UNL     1       5.417   3.886  13.572  0.00  0.00    +0.000 C 
ATOM     16  C   UNL     1       6.318   4.388  14.370  0.00  0.00    +0.000 C 
ENDBRANCH  14  16
ENDBRANCH  12  14
ENDBRANCH  11  12
ENDBRANCH  10  11
ENDBRANCH   1  10
TORSDOF 7
ENDMDL
MODEL 3
REMARK VINA RESULT:      -6.2      2.437      5.777
REMARK  Name = 
REMARK  8 active torsions:
REMARK  status: ('A' for Active; 'I' for Inactive)
REMARK    1  A    between atoms: C_2  and  C_3
REMARK    2  A    between atoms: C_3  and  N_4
REMARK    3  A    between atoms: N_4  and  C_5
REMARK    4  A    between atoms: N_4  and  C_6
REMARK    5  A    between atoms: C_6  and  C_7
REMARK    6  A    between atoms: C_7  and  C_8
REMARK    7  A    between atoms: C_8  and  C_9
REMARK    8  A    between atoms: C_9  and  C_11
REMARK                            x       y       z     vdW  Elec       q    Type
REMARK                         _______ _______ _______ _____ _____    ______ ____
ROOT
ATOM      1  C   UNL     1       1.931   3.182  17.716  0.00  0.00    +0.000 C 
ENDROOT
BRANCH   1   2
ATOM      2  C   UNL     1       3.350   2.709  17.914  0.00  0.00    +0.000 C 
ATOM      3  C   UNL     1       3.745   1.454  18.186  0.00  0.00    +0.000 C 
BRANCH   2   4
ATOM      4  C   UNL     1       4.404   3.725  17.796  0.00  0.00    +0.000 A 
ATOM      5  C   UNL     1       5.162   4.089  18.914  0.00  0.00    +0.000 A 
ATOM      6  C   UNL     1       6.081   5.137  18.826  0.00  0.00    +0.000 A 
ATOM      7  C   UNL     1       6.248   5.817  17.621  0.00  0.00    +0.000 A 
ATOM      8  C   UNL     1       5.510   5.444  16.498  0.00  0.00    +0.000 A 
ATOM      9  C   UNL     1       4.591   4.399  16.584  0.00  0.00    +0.000 A 
ENDBRANCH   2   4
ENDBRANCH   1   2
BRANCH   1  10
ATOM     10  C   UNL     1       0.953   2.692  18.792  0.00  0.00    +0.000 C 
BRANCH  10  11
ATOM     11  C   UNL     1       0.743   3.701  19.913  0.00  0.00    +0.000 C 
BRANCH  11  12
ATOM     12  N   UNL     1       1.998   4.161  20.531  0.00  0.00    +0.000 NA
ATOM     13  C   UNL     1       2.188   3.395  21.761  0.00  0.00    +0.000 C 
BRANCH  12  14
ATOM     14  C   UNL     1       1.979   5.614  20.771  0.00  0.00    +0.000 C 
BRANCH  14  16
ATOM     15  C   UNL     1       2.644   6.991  18.397  0.00  0.00    +0.000 C 
ATOM     16  C   UNL     1       2.337   6.355  19.493  0.00  0.00    +0.000 C 
ENDBRANCH  14  16
ENDBRANCH  12  14
ENDBRANCH  11  12
ENDBRANCH  10  11
ENDBRANCH   1  10
TORSDOF 7
ENDMDL
MODEL 4
REMARK VINA RESULT:      -6.1      2.457      6.281
REMARK  Name = 
REMARK  8 active torsions:
REMARK  status: ('A' for Active; 'I' for Inactive)
REMARK    1  A    between atoms: C_2  and  C_3
REMARK    2  A    between atoms: C_3  and  N_4
REMARK    3  A    between atoms: N_4  and  C_5
REMARK    4  A    between atoms: N_4  and  C_6
REMARK    5  A    between atoms: C_6  and  C_7
REMARK    6  A    between atoms: C_7  and  C_8
REMARK    7  A    between atoms: C_8  and  C_9
REMARK    8  A    between atoms: C_9  and  C_11
REMARK                            x       y       z     vdW  Elec       q    Type
REMARK                         _______ _______ _______ _____ _____    ______ ____
ROOT
ATOM      1  C   UNL     1       3.717   4.316  17.403  0.00  0.00    +0.000 C 
ENDROOT
BRANCH   1   2
ATOM      2  C   UNL     1       5.034   4.539  16.702  0.00  0.00    +0.000 C 
ATOM      3  C   UNL     1       5.406   4.030  15.516  0.00  0.00    +0.000 C 
BRANCH   2   4
ATOM      4  C   UNL     1       6.006   5.400  17.389  0.00  0.00    +0.000 A 
ATOM      5  C   UNL     1       6.359   6.640  16.844  0.00  0.00    +0.000 A 
ATOM      6  C   UNL     1       7.368   7.402  17.435  0.00  0.00    +0.000 A 
ATOM      7  C   UNL     1       8.020   6.932  18.574  0.00  0.00    +0.000 A 
ATOM      8  C   UNL     1       7.658   5.707  19.133  0.00  0.00    +0.000 A 
ATOM      9  C   UNL     1       6.651   4.943  18.542  0.00  0.00    +0.000 A 
ENDBRANCH   2   4
ENDBRANCH   1   2
BRANCH   1  10
ATOM     10  C   UNL     1       3.418   2.845  17.720  0.00  0.00    +0.000 C 
BRANCH  10  11
ATOM     11  C   UNL     1       3.342   2.560  19.214  0.00  0.00    +0.000 C 
BRANCH  11  12
ATOM     12  N   UNL     1       2.019   2.089  19.656  0.00  0.00    +0.000 NA
ATOM     13  C   UNL     1       1.077   2.336  18.564  0.00  0.00    +0.000 C 
BRANCH  12  14
ATOM     14  C   UNL     1       1.607   2.740  20.911  0.00  0.00    +0.000 C 
BRANCH  14  16
ATOM     15  C   UNL     1       1.805   5.544  20.654  0.00  0.00    +0.000 C 
ATOM     16  C   UNL     1       1.714   4.250  20.772  0.00  0.00    +0.000 C 
ENDBRANCH  14  16
ENDBRANCH  12  14
ENDBRANCH  11  12
ENDBRANCH  10  11
ENDBRANCH   1  10
TORSDOF 7
ENDMDL
MODEL 5
REMARK VINA RESULT:      -6.1      1.209      1.514
REMARK  Name = 
REMARK  8 active torsions:
REMARK  status: ('A' for Active; 'I' for Inactive)
REMARK    1  A    between atoms: C_2  and  C_3
REMARK    2  A    between atoms: C_3  and  N_4
REMARK    3  A    between atoms: N_4  and  C_5
REMARK    4  A    between atoms: N_4  and  C_6
REMARK    5  A    between atoms: C_6  and  C_7
REMARK    6  A    between atoms: C_7  and  C_8
REMARK    7  A    between atoms: C_8  and  C_9
REMARK    8  A    between atoms: C_9  and  C_11
REMARK                            x       y       z     vdW  Elec       q    Type
REMARK                         _______ _______ _______ _____ _____    ______ ____
ROOT
ATOM      1  C   UNL     1       5.038   5.464  19.151  0.00  0.00    +0.000 C 
ENDROOT
BRANCH   1   2
ATOM      2  C   UNL     1       3.628   5.852  18.780  0.00  0.00    +0.000 C 
ATOM      3  C   UNL     1       3.242   6.990  18.179  0.00  0.00    +0.000 C 
BRANCH   2   4
ATOM      4  C   UNL     1       2.573   4.885  19.110  0.00  0.00    +0.000 A 
ATOM      5  C   UNL     1       2.174   4.701  20.439  0.00  0.00    +0.000 A 
ATOM      6  C   UNL     1       1.257   3.699  20.763  0.00  0.00    +0.000 A 
ATOM      7  C   UNL     1       0.732   2.886  19.761  0.00  0.00    +0.000 A 
ATOM      8  C   UNL     1       1.109   3.078  18.432  0.00  0.00    +0.000 A 
ATOM      9  C   UNL     1       2.027   4.077  18.107  0.00  0.00    +0.000 A 
ENDBRANCH   2   4
ENDBRANCH   1   2
BRANCH   1  10
ATOM     10  C   UNL     1       5.668   4.426  18.214  0.00  0.00    +0.000 C 
BRANCH  10  11
ATOM     11  C   UNL     1       7.097   4.771  17.814  0.00  0.00    +0.000 C 
BRANCH  11  12
ATOM     12  N   UNL     1       7.179   5.679  16.658  0.00  0.00    +0.000 NA
ATOM     13  C   UNL     1       7.463   7.019  17.170  0.00  0.00    +0.000 C 
BRANCH  12  14
ATOM     14  C   UNL     1       5.948   5.636  15.850  0.00  0.00    +0.000 C 
BRANCH  14  16
ATOM     15  C   UNL     1       6.275   3.846  13.692  0.00  0.00    +0.000 C 
ATOM     16  C   UNL     1       6.124   4.672  14.688  0.00  0.00    +0.000 C 
ENDBRANCH  14  16
ENDBRANCH  12  14
ENDBRANCH  11  12
ENDBRANCH  10  11
ENDBRANCH   1  10
TORSDOF 7
ENDMDL
MODEL 6
REMARK VINA RESULT:      -6.1      1.366      2.800
REMARK  Name = 
REMARK  8 active torsions:
REMARK  status: ('A' for Active; 'I' for Inactive)
REMARK    1  A    between atoms: C_2  and  C_3
REMARK    2  A    between atoms: C_3  and  N_4
REMARK    3  A    between atoms: N_4  and  C_5
REMARK    4  A    between atoms: N_4  and  C_6
REMARK    5  A    between atoms: C_6  and  C_7
REMARK    6  A    between atoms: C_7  and  C_8
REMARK    7  A    between atoms: C_8  and  C_9
REMARK    8  A    between atoms: C_9  and  C_11
REMARK                            x       y       z     vdW  Elec       q    Type
REMARK                         _______ _______ _______ _____ _____    ______ ____
ROOT
ATOM      1  C   UNL     1       3.860   5.675  17.308  0.00  0.00    +0.000 C 
ENDROOT
BRANCH   1   2
ATOM      2  C   UNL     1       2.846   6.038  18.365  0.00  0.00    +0.000 C 
ATOM      3  C   UNL     1       2.374   7.267  18.633  0.00  0.00    +0.000 C 
BRANCH   2   4
ATOM      4  C   UNL     1       2.323   4.934  19.179  0.00  0.00    +0.000 A 
ATOM      5  C   UNL     1       1.423   4.015  18.628  0.00  0.00    +0.000 A 
ATOM      6  C   UNL     1       0.837   3.038  19.436  0.00  0.00    +0.000 A 
ATOM      7  C   UNL     1       1.154   2.973  20.792  0.00  0.00    +0.000 A 
ATOM      8  C   UNL     1       2.067   3.873  21.342  0.00  0.00    +0.000 A 
ATOM      9  C   UNL     1       2.651   4.851  20.537  0.00  0.00    +0.000 A 
ENDBRANCH   2   4
ENDBRANCH   1   2
BRANCH   1  10
ATOM     10  C   UNL     1       4.390   4.240  17.417  0.00  0.00    +0.000 C 
BRANCH  10  11
ATOM     11  C   UNL     1       5.501   3.936  16.421  0.00  0.00    +0.000 C 
BRANCH  11  12
ATOM     12  N   UNL     1       6.371   5.091  16.142  0.00  0.00    +0.000 NA
ATOM     13  C   UNL     1       7.015   4.855  14.851  0.00  0.00    +0.000 C 
BRANCH  12  14
ATOM     14  C   UNL     1       7.346   5.305  17.225  0.00  0.00    +0.000 C 
BRANCH  14  16
ATOM     15  C   UNL     1       7.719   8.071  17.652  0.00  0.00    +0.000 C 
ATOM     16  C   UNL     1       7.547   6.794  17.455  0.00  0.00    +0.000 C 
ENDBRANCH  14  16
ENDBRANCH  12  14
ENDBRANCH  11  12
ENDBRANCH  10  11
ENDBRANCH   1  10
TORSDOF 7
ENDMDL
MODEL 7
REMARK VINA RESULT:      -6.0      2.363      6.157
REMARK  Name = 
REMARK  8 active torsions:
REMARK  status: ('A' for Active; 'I' for Inactive)
REMARK    1  A    between atoms: C_2  and  C_3
REMARK    2  A    between atoms: C_3  and  N_4
REMARK    3  A    between atoms: N_4  and  C_5
REMARK    4  A    between atoms: N_4  and  C_6
REMARK    5  A    between atoms: C_6  and  C_7
REMARK    6  A    between atoms: C_7  and  C_8
REMARK    7  A    between atoms: C_8  and  C_9
REMARK    8  A    between atoms: C_9  and  C_11
REMARK                            x       y       z     vdW  Elec       q    Type
REMARK                         _______ _______ _______ _____ _____    ______ ____
ROOT
ATOM      1  C   UNL     1       3.665   4.708  17.381  0.00  0.00    +0.000 C 
ENDROOT
BRANCH   1   2
ATOM      2  C   UNL     1       4.973   4.787  16.634  0.00  0.00    +0.000 C 
ATOM      3  C   UNL     1       5.225   4.301  15.408  0.00  0.00    +0.000 C 
BRANCH   2   4
ATOM      4  C   UNL     1       6.080   5.467  17.319  0.00  0.00    +0.000 A 
ATOM      5  C   UNL     1       6.544   4.993  18.552  0.00  0.00    +0.000 A 
ATOM      6  C   UNL     1       7.515   5.709  19.256  0.00  0.00    +0.000 A 
ATOM      7  C   UNL     1       8.028   6.892  18.727  0.00  0.00    +0.000 A 
ATOM      8  C   UNL     1       7.585   7.357  17.490  0.00  0.00    +0.000 A 
ATOM      9  C   UNL     1       6.613   6.645  16.786  0.00  0.00    +0.000 A 
ENDBRANCH   2   4
ENDBRANCH   1   2
BRANCH   1  10
ATOM     10  C   UNL     1       3.088   3.290  17.484  0.00  0.00    +0.000 C 
BRANCH  10  11
ATOM     11  C   UNL     1       3.366   2.629  18.828  0.00  0.00    +0.000 C 
BRANCH  11  12
ATOM     12  N   UNL     1       2.148   2.180  19.524  0.00  0.00    +0.000 NA
ATOM     13  C   UNL     1       1.007   2.518  18.675  0.00  0.00    +0.000 C 
BRANCH  12  14
ATOM     14  C   UNL     1       2.046   2.777  20.867  0.00  0.00    +0.000 C 
BRANCH  14  16
ATOM     15  C   UNL     1       1.795   5.582  20.657  0.00  0.00    +0.000 C 
ATOM     16  C   UNL     1       1.910   4.287  20.754  0.00  0.00    +0.000 C 
ENDBRANCH  14  16
ENDBRANCH  12  14
ENDBRANCH  11  12
ENDBRANCH  10  11
ENDBRANCH   1  10
TORSDOF 7
ENDMDL
MODEL 8
REMARK VINA RESULT:      -6.0      1.578      2.699
REMARK  Name = 
REMARK  8 active torsions:
REMARK  status: ('A' for Active; 'I' for Inactive)
REMARK    1  A    between atoms: C_2  and  C_3
REMARK    2  A    between atoms: C_3  and  N_4
REMARK    3  A    between atoms: N_4  and  C_5
REMARK    4  A    between atoms: N_4  and  C_6
REMARK    5  A    between atoms: C_6  and  C_7
REMARK    6  A    between atoms: C_7  and  C_8
REMARK    7  A    between atoms: C_8  and  C_9
REMARK    8  A    between atoms: C_9  and  C_11
REMARK                            x       y       z     vdW  Elec       q    Type
REMARK                         _______ _______ _______ _____ _____    ______ ____
ROOT
ATOM      1  C   UNL     1       4.559   5.796  19.302  0.00  0.00    +0.000 C 
ENDROOT
BRANCH   1   2
ATOM      2  C   UNL     1       3.118   5.939  18.881  0.00  0.00    +0.000 C 
ATOM      3  C   UNL     1       2.578   6.969  18.209  0.00  0.00    +0.000 C 
BRANCH   2   4
ATOM      4  C   UNL     1       2.215   4.838  19.244  0.00  0.00    +0.000 A 
ATOM      5  C   UNL     1       2.003   4.512  20.588  0.00  0.00    +0.000 A 
ATOM      6  C   UNL     1       1.240   3.393  20.925  0.00  0.00    +0.000 A 
ATOM      7  C   UNL     1       0.683   2.601  19.922  0.00  0.00    +0.000 A 
ATOM      8  C   UNL     1       0.874   2.933  18.581  0.00  0.00    +0.000 A 
ATOM      9  C   UNL     1       1.638   4.050  18.242  0.00  0.00    +0.000 A 
ENDBRANCH   2   4
ENDBRANCH   1   2
BRANCH   1  10
ATOM     10  C   UNL     1       5.275   4.589  18.682  0.00  0.00    +0.000 C 
BRANCH  10  11
ATOM     11  C   UNL     1       5.156   4.538  17.165  0.00  0.00    +0.000 C 
BRANCH  11  12
ATOM     12  N   UNL     1       5.945   5.575  16.480  0.00  0.00    +0.000 NA
ATOM     13  C   UNL     1       5.995   5.224  15.061  0.00  0.00    +0.000 C 
BRANCH  12  14
ATOM     14  C   UNL     1       7.286   5.711  17.073  0.00  0.00    +0.000 C 
BRANCH  14  16
ATOM     15  C   UNL     1       7.798   8.418  17.688  0.00  0.00    +0.000 C 
ATOM     16  C   UNL     1       7.561   7.168  17.404  0.00  0.00    +0.000 C 
ENDBRANCH  14  16
ENDBRANCH  12  14
ENDBRANCH  11  12
ENDBRANCH  10  11
ENDBRANCH   1  10
TORSDOF 7
ENDMDL
MODEL 9
REMARK VINA RESULT:      -6.0      2.085      5.744
REMARK  Name = 
REMARK  8 active torsions:
REMARK  status: ('A' for Active; 'I' for Inactive)
REMARK    1  A    between atoms: C_2  and  C_3
REMARK    2  A    between atoms: C_3  and  N_4
REMARK    3  A    between atoms: N_4  and  C_5
REMARK    4  A    between atoms: N_4  and  C_6
REMARK    5  A    between atoms: C_6  and  C_7
REMARK    6  A    between atoms: C_7  and  C_8
REMARK    7  A    between atoms: C_8  and  C_9
REMARK    8  A    between atoms: C_9  and  C_11
REMARK                            x       y       z     vdW  Elec       q    Type
REMARK                         _______ _______ _______ _____ _____    ______ ____
ROOT
ATOM      1  C   UNL     1       4.288   3.573  17.506  0.00  0.00    +0.000 C 
ENDROOT
BRANCH   1   2
ATOM      2  C   UNL     1       5.202   4.404  16.641  0.00  0.00    +0.000 C 
ATOM      3  C   UNL     1       5.273   4.382  15.299  0.00  0.00    +0.000 C 
BRANCH   2   4
ATOM      4  C   UNL     1       6.103   5.331  17.338  0.00  0.00    +0.000 A 
ATOM      5  C   UNL     1       6.342   6.609  16.819  0.00  0.00    +0.000 A 
ATOM      6  C   UNL     1       7.289   7.442  17.418  0.00  0.00    +0.000 A 
ATOM      7  C   UNL     1       7.991   7.005  18.540  0.00  0.00    +0.000 A 
ATOM      8  C   UNL     1       7.742   5.741  19.074  0.00  0.00    +0.000 A 
ATOM      9  C   UNL     1       6.799   4.906  18.475  0.00  0.00    +0.000 A 
ENDBRANCH   2   4
ENDBRANCH   1   2
BRANCH   1  10
ATOM     10  C   UNL     1       2.797   3.745  17.186  0.00  0.00    +0.000 C 
BRANCH  10  11
ATOM     11  C   UNL     1       1.978   4.205  18.386  0.00  0.00    +0.000 C 
BRANCH  11  12
ATOM     12  N   UNL     1       2.802   4.639  19.527  0.00  0.00    +0.000 NA
ATOM     13  C   UNL     1       2.559   3.704  20.625  0.00  0.00    +0.000 C 
BRANCH  12  14
ATOM     14  C   UNL     1       2.510   6.033  19.901  0.00  0.00    +0.000 C 
BRANCH  14  16
ATOM     15  C   UNL     1       3.075   7.750  17.732  0.00  0.00    +0.000 C 
ATOM     16  C   UNL     1       2.814   6.958  18.734  0.00  0.00    +0.000 C 
ENDBRANCH  14  16
ENDBRANCH  12  14
ENDBRANCH  11  12
ENDBRANCH  10  11
ENDBRANCH   1  10
TORSDOF 7
ENDMDL
