MODEL 1
REMARK VINA RESULT:      -9.0      0.000      0.000
REMARK  Name = 
REMARK  2 active torsions:
REMARK  status: ('A' for Active; 'I' for Inactive)
REMARK    1  A    between atoms: C_4  and  C_5
REMARK    2  A    between atoms: C_19  and  C_20
REMARK                            x       y       z     vdW  Elec       q    Type
REMARK                         _______ _______ _______ _____ _____    ______ ____
ROOT
ATOM      1  O   UNL     1       0.468  11.215  18.450  0.00  0.00    +0.000 OA
ATOM      2  C   UNL     1       0.725  10.280  19.199  0.00  0.00    +0.000 A 
ATOM      3  N   UNL     1       1.478   9.209  18.798  0.00  0.00    +0.000 N 
ATOM      4  C   UNL     1       1.762   8.138  19.607  0.00  0.00    +0.000 A 
ATOM      5  N   UNL     1       1.341   8.041  20.825  0.00  0.00    +0.000 NA
ATOM      6  C   UNL     1       0.579   9.102  21.343  0.00  0.00    +0.000 A 
ATOM      7  C   UNL     1       0.147   9.037  22.666  0.00  0.00    +0.000 A 
ATOM      8  C   UNL     1      -0.606  10.078  23.223  0.00  0.00    +0.000 A 
ATOM      9  C   UNL     1      -0.943  11.205  22.460  0.00  0.00    +0.000 A 
ATOM     10  C   UNL     1      -0.510  11.278  21.132  0.00  0.00    +0.000 A 
ATOM     11  C   UNL     1       0.244  10.230  20.590  0.00  0.00    +0.000 A 
ATOM     12  H   UNL     1       1.789   9.234  17.836  0.00  0.00    +0.000 HD
ENDROOT
BRANCH   4  13
ATOM     13  C   UNL     1       2.583   7.100  18.955  0.00  0.00    +0.000 C 
ATOM     14  C   UNL     1       3.319   7.427  17.884  0.00  0.00    +0.000 C 
ATOM     15  C   UNL     1       4.169   6.377  17.330  0.00  0.00    +0.000 A 
ATOM     16  C   UNL     1       4.834   6.544  16.111  0.00  0.00    +0.000 A 
ATOM     17  C   UNL     1       5.691   5.546  15.637  0.00  0.00    +0.000 A 
ATOM     18  C   UNL     1       5.898   4.385  16.382  0.00  0.00    +0.000 A 
ATOM     19  C   UNL     1       5.246   4.216  17.603  0.00  0.00    +0.000 A 
ATOM     20  C   UNL     1       4.376   5.202  18.067  0.00  0.00    +0.000 A 
ATOM     21  O   UNL     1       3.796   4.980  19.290  0.00  0.00    +0.000 OA
ATOM     22  C   UNL     1       2.583   5.715  19.525  0.00  0.00    +0.000 C 
ENDBRANCH   4  13
BRANCH   9  23
ATOM     23  C   UNL     1      -1.723  12.274  23.053  0.00  0.00    +0.000 A 
ATOM     24  C   UNL     1      -1.367  13.601  23.389  0.00  0.00    +0.000 A 
ATOM     25  N   UNL     1      -2.374  14.281  23.946  0.00  0.00    +0.000 NA
ATOM     26  N   UNL     1      -3.377  13.388  23.969  0.00  0.00    +0.000 N 
ATOM     27  C   UNL     1      -3.038  12.173  23.450  0.00  0.00    +0.000 A 
ATOM     28  H   UNL     1      -4.267  13.678  24.361  0.00  0.00    +0.000 HD
ENDBRANCH   9  23
TORSDOF 2
ENDMDL
MODEL 2
REMARK VINA RESULT:      -8.7      3.017      5.048
REMARK  Name = 
REMARK  2 active torsions:
REMARK  status: ('A' for Active; 'I' for Inactive)
REMARK    1  A    between atoms: C_4  and  C_5
REMARK    2  A    between atoms: C_19  and  C_20
REMARK                            x       y       z     vdW  Elec       q    Type
REMARK                         _______ _______ _______ _____ _____    ______ ____
ROOT
ATOM      1  O   UNL     1       3.524   4.443  20.214  0.00  0.00    +0.000 OA
ATOM      2  C   UNL     1       3.614   5.224  19.275  0.00  0.00    +0.000 A 
ATOM      3  N   UNL     1       4.324   4.926  18.141  0.00  0.00    +0.000 N 
ATOM      4  C   UNL     1       4.459   5.790  17.085  0.00  0.00    +0.000 A 
ATOM      5  N   UNL     1       3.930   6.968  17.062  0.00  0.00    +0.000 NA
ATOM      6  C   UNL     1       3.158   7.363  18.168  0.00  0.00    +0.000 A 
ATOM      7  C   UNL     1       2.545   8.615  18.149  0.00  0.00    +0.000 A 
ATOM      8  C   UNL     1       1.760   9.041  19.226  0.00  0.00    +0.000 A 
ATOM      9  C   UNL     1       1.577   8.220  20.347  0.00  0.00    +0.000 A 
ATOM     10  C   UNL     1       2.187   6.961  20.372  0.00  0.00    +0.000 A 
ATOM     11  C   UNL     1       2.967   6.547  19.286  0.00  0.00    +0.000 A 
ATOM     12  H   UNL     1       4.785   4.027  18.144  0.00  0.00    +0.000 HD
ENDROOT
BRANCH   4  13
ATOM     13  C   UNL     1       5.276   5.253  15.978  0.00  0.00    +0.000 C 
ATOM     14  C   UNL     1       4.670   4.614  14.970  0.00  0.00    +0.000 C 
ATOM     15  C   UNL     1       5.522   4.174  13.868  0.00  0.00    +0.000 A 
ATOM     16  C   UNL     1       5.035   3.339  12.858  0.00  0.00    +0.000 A 
ATOM     17  C   UNL     1       5.858   2.986  11.783  0.00  0.00    +0.000 A 
ATOM     18  C   UNL     1       7.161   3.476  11.705  0.00  0.00    +0.000 A 
ATOM     19  C   UNL     1       7.650   4.317  12.704  0.00  0.00    +0.000 A 
ATOM     20  C   UNL     1       6.838   4.653  13.786  0.00  0.00    +0.000 A 
ATOM     21  O   UNL     1       7.376   5.510  14.712  0.00  0.00    +0.000 OA
ATOM     22  C   UNL     1       6.759   5.461  16.010  0.00  0.00    +0.000 C 
ENDBRANCH   4  13
BRANCH   9  23
ATOM     23  C   UNL     1       0.760   8.678  21.454  0.00  0.00    +0.000 A 
ATOM     24  C   UNL     1       1.081   9.490  22.566  0.00  0.00    +0.000 A 
ATOM     25  N   UNL     1       0.045   9.672  23.391  0.00  0.00    +0.000 NA
ATOM     26  N   UNL     1      -0.943   8.974  22.807  0.00  0.00    +0.000 N 
ATOM     27  C   UNL     1      -0.566   8.359  21.649  0.00  0.00    +0.000 A 
ATOM     28  H   UNL     1      -1.850   8.957  23.261  0.00  0.00    +0.000 HD
ENDBRANCH   9  23
TORSDOF 2
ENDMDL
MODEL 3
REMARK VINA RESULT:      -8.5      2.550      9.131
REMARK  Name = 
REMARK  2 active torsions:
REMARK  status: ('A' for Active; 'I' for Inactive)
REMARK    1  A    between atoms: C_4  and  C_5
REMARK    2  A    between atoms: C_19  and  C_20
REMARK                            x       y       z     vdW  Elec       q    Type
REMARK                         _______ _______ _______ _____ _____    ______ ____
ROOT
ATOM      1  O   UNL     1       2.124   9.817  17.353  0.00  0.00    +0.000 OA
ATOM      2  C   UNL     1       1.779   9.340  18.427  0.00  0.00    +0.000 A 
ATOM      3  N   UNL     1       0.984  10.024  19.308  0.00  0.00    +0.000 N 
ATOM      4  C   UNL     1       0.601   9.524  20.527  0.00  0.00    +0.000 A 
ATOM      5  N   UNL     1       0.958   8.360  20.957  0.00  0.00    +0.000 NA
ATOM      6  C   UNL     1       1.755   7.564  20.116  0.00  0.00    +0.000 A 
ATOM      7  C   UNL     1       2.119   6.289  20.543  0.00  0.00    +0.000 A 
ATOM      8  C   UNL     1       2.904   5.462  19.731  0.00  0.00    +0.000 A 
ATOM      9  C   UNL     1       3.342   5.901  18.473  0.00  0.00    +0.000 A 
ATOM     10  C   UNL     1       2.977   7.179  18.038  0.00  0.00    +0.000 A 
ATOM     11  C   UNL     1       2.190   7.994  18.860  0.00  0.00    +0.000 A 
ATOM     12  H   UNL     1       0.721  10.957  19.020  0.00  0.00    +0.000 HD
ENDROOT
BRANCH   4  13
ATOM     13  C   UNL     1      -0.248  10.446  21.308  0.00  0.00    +0.000 C 
ATOM     14  C   UNL     1      -0.943  11.394  20.667  0.00  0.00    +0.000 C 
ATOM     15  C   UNL     1      -1.823  12.224  21.485  0.00  0.00    +0.000 A 
ATOM     16  C   UNL     1      -2.451  13.358  20.960  0.00  0.00    +0.000 A 
ATOM     17  C   UNL     1      -3.338  14.097  21.750  0.00  0.00    +0.000 A 
ATOM     18  C   UNL     1      -3.611  13.700  23.059  0.00  0.00    +0.000 A 
ATOM     19  C   UNL     1      -2.997  12.565  23.585  0.00  0.00    +0.000 A 
ATOM     20  C   UNL     1      -2.097  11.839  22.806  0.00  0.00    +0.000 A 
ATOM     21  O   UNL     1      -1.557  10.717  23.379  0.00  0.00    +0.000 OA
ATOM     22  C   UNL     1      -0.319  10.276  22.794  0.00  0.00    +0.000 C 
ENDBRANCH   4  13
BRANCH   9  23
ATOM     23  C   UNL     1       4.154   5.031  17.645  0.00  0.00    +0.000 A 
ATOM     24  C   UNL     1       4.890   5.298  16.468  0.00  0.00    +0.000 A 
ATOM     25  N   UNL     1       5.498   4.212  15.981  0.00  0.00    +0.000 NA
ATOM     26  N   UNL     1       5.152   3.246  16.846  0.00  0.00    +0.000 N 
ATOM     27  C   UNL     1       4.346   3.683  17.857  0.00  0.00    +0.000 A 
ATOM     28  H   UNL     1       5.498   2.307  16.680  0.00  0.00    +0.000 HD
ENDBRANCH   9  23
TORSDOF 2
ENDMDL
MODEL 4
REMARK VINA RESULT:      -8.3      1.200      2.000
REMARK  Name = 
REMARK  2 active torsions:
REMARK  status: ('A' for Active; 'I' for Inactive)
REMARK    1  A    between atoms: C_4  and  C_5
REMARK    2  A    between atoms: C_19  and  C_20
REMARK                            x       y       z     vdW  Elec       q    Type
REMARK                         _______ _______ _______ _____ _____    ______ ____
ROOT
ATOM      1  O   UNL     1       0.896  11.123  18.610  0.00  0.00    +0.000 OA
ATOM      2  C   UNL     1       0.936  10.184  19.396  0.00  0.00    +0.000 A 
ATOM      3  N   UNL     1       1.551   8.999  19.088  0.00  0.00    +0.000 N 
ATOM      4  C   UNL     1       1.591   7.925  19.939  0.00  0.00    +0.000 A 
ATOM      5  N   UNL     1       1.049   7.930  21.112  0.00  0.00    +0.000 NA
ATOM      6  C   UNL     1       0.413   9.109  21.536  0.00  0.00    +0.000 A 
ATOM      7  C   UNL     1      -0.146   9.152  22.812  0.00  0.00    +0.000 A 
ATOM      8  C   UNL     1      -0.779  10.311  23.275  0.00  0.00    +0.000 A 
ATOM      9  C   UNL     1      -0.868  11.451  22.464  0.00  0.00    +0.000 A 
ATOM     10  C   UNL     1      -0.307  11.416  21.183  0.00  0.00    +0.000 A 
ATOM     11  C   UNL     1       0.325  10.250  20.734  0.00  0.00    +0.000 A 
ATOM     12  H   UNL     1       1.950   8.948  18.161  0.00  0.00    +0.000 HD
ENDROOT
BRANCH   4  13
ATOM     13  C   UNL     1       2.302   6.754  19.387  0.00  0.00    +0.000 C 
ATOM     14  C   UNL     1       1.985   5.530  19.829  0.00  0.00    +0.000 C 
ATOM     15  C   UNL     1       2.667   4.408  19.190  0.00  0.00    +0.000 A 
ATOM     16  C   UNL     1       2.558   3.107  19.692  0.00  0.00    +0.000 A 
ATOM     17  C   UNL     1       3.171   2.044  19.022  0.00  0.00    +0.000 A 
ATOM     18  C   UNL     1       3.882   2.272  17.844  0.00  0.00    +0.000 A 
ATOM     19  C   UNL     1       3.987   3.565  17.333  0.00  0.00    +0.000 A 
ATOM     20  C   UNL     1       3.394   4.628  18.011  0.00  0.00    +0.000 A 
ATOM     21  O   UNL     1       3.512   5.865  17.432  0.00  0.00    +0.000 OA
ATOM     22  C   UNL     1       3.343   6.973  18.333  0.00  0.00    +0.000 C 
ENDBRANCH   4  13
BRANCH   9  23
ATOM     23  C   UNL     1      -1.528  12.643  22.961  0.00  0.00    +0.000 A 
ATOM     24  C   UNL     1      -1.015  13.925  23.264  0.00  0.00    +0.000 A 
ATOM     25  N   UNL     1      -1.950  14.760  23.725  0.00  0.00    +0.000 NA
ATOM     26  N   UNL     1      -3.066  14.013  23.719  0.00  0.00    +0.000 N 
ATOM     27  C   UNL     1      -2.866  12.739  23.274  0.00  0.00    +0.000 A 
ATOM     28  H   UNL     1      -3.929  14.438  24.040  0.00  0.00    +0.000 HD
ENDBRANCH   9  23
TORSDOF 2
ENDMDL
MODEL 5
REMARK VINA RESULT:      -8.3      2.514      9.177
REMARK  Name = 
REMARK  2 active torsions:
REMARK  status: ('A' for Active; 'I' for Inactive)
REMARK    1  A    between atoms: C_4  and  C_5
REMARK    2  A    between atoms: C_19  and  C_20
REMARK                            x       y       z     vdW  Elec       q    Type
REMARK                         _______ _______ _______ _____ _____    ______ ____
ROOT
ATOM      1  O   UNL     1       2.216   9.815  17.317  0.00  0.00    +0.000 OA
ATOM      2  C   UNL     1       1.827   9.516  18.440  0.00  0.00    +0.000 A 
ATOM      3  N   UNL     1       1.164  10.406  19.244  0.00  0.00    +0.000 N 
ATOM      4  C   UNL     1       0.736  10.106  20.512  0.00  0.00    +0.000 A 
ATOM      5  N   UNL     1       0.923   8.955  21.068  0.00  0.00    +0.000 NA
ATOM      6  C   UNL     1       1.572   7.960  20.316  0.00  0.00    +0.000 A 
ATOM      7  C   UNL     1       1.750   6.698  20.881  0.00  0.00    +0.000 A 
ATOM      8  C   UNL     1       2.383   5.678  20.161  0.00  0.00    +0.000 A 
ATOM      9  C   UNL     1       2.854   5.905  18.861  0.00  0.00    +0.000 A 
ATOM     10  C   UNL     1       2.676   7.169  18.287  0.00  0.00    +0.000 A 
ATOM     11  C   UNL     1       2.039   8.179  19.018  0.00  0.00    +0.000 A 
ATOM     12  H   UNL     1       1.038  11.330  18.854  0.00  0.00    +0.000 HD
ENDROOT
BRANCH   4  13
ATOM     13  C   UNL     1       0.053  11.225  21.190  0.00  0.00    +0.000 C 
ATOM     14  C   UNL     1      -1.011  10.969  21.962  0.00  0.00    +0.000 C 
ATOM     15  C   UNL     1      -1.596  12.106  22.667  0.00  0.00    +0.000 A 
ATOM     16  C   UNL     1      -2.813  11.995  23.348  0.00  0.00    +0.000 A 
ATOM     17  C   UNL     1      -3.316  13.084  24.066  0.00  0.00    +0.000 A 
ATOM     18  C   UNL     1      -2.602  14.281  24.120  0.00  0.00    +0.000 A 
ATOM     19  C   UNL     1      -1.383  14.395  23.453  0.00  0.00    +0.000 A 
ATOM     20  C   UNL     1      -0.891  13.317  22.719  0.00  0.00    +0.000 A 
ATOM     21  O   UNL     1       0.328  13.493  22.116  0.00  0.00    +0.000 OA
ATOM     22  C   UNL     1       0.588  12.612  21.009  0.00  0.00    +0.000 C 
ENDBRANCH   4  13
BRANCH   9  23
ATOM     23  C   UNL     1       3.507   4.836  18.131  0.00  0.00    +0.000 A 
ATOM     24  C   UNL     1       4.329   4.870  16.980  0.00  0.00    +0.000 A 
ATOM     25  N   UNL     1       4.726   3.655  16.592  0.00  0.00    +0.000 NA
ATOM     26  N   UNL     1       4.157   2.838  17.494  0.00  0.00    +0.000 N 
ATOM     27  C   UNL     1       3.417   3.495  18.433  0.00  0.00    +0.000 A 
ATOM     28  H   UNL     1       4.314   1.840  17.404  0.00  0.00    +0.000 HD
ENDBRANCH   9  23
TORSDOF 2
ENDMDL
MODEL 6
REMARK VINA RESULT:      -8.2      1.803      2.845
REMARK  Name = 
REMARK  2 active torsions:
REMARK  status: ('A' for Active; 'I' for Inactive)
REMARK    1  A    between atoms: C_4  and  C_5
REMARK    2  A    between atoms: C_19  and  C_20
REMARK                            x       y       z     vdW  Elec       q    Type
REMARK                         _______ _______ _______ _____ _____    ______ ____
ROOT
ATOM      1  O   UNL     1       0.524   9.500  24.060  0.00  0.00    +0.000 OA
ATOM      2  C   UNL     1       0.391   9.615  22.848  0.00  0.00    +0.000 A 
ATOM      3  N   UNL     1       1.065   8.818  21.960  0.00  0.00    +0.000 N 
ATOM      4  C   UNL     1       0.952   8.939  20.599  0.00  0.00    +0.000 A 
ATOM      5  N   UNL     1       0.200   9.820  20.027  0.00  0.00    +0.000 NA
ATOM      6  C   UNL     1      -0.555  10.673  20.850  0.00  0.00    +0.000 A 
ATOM      7  C   UNL     1      -1.403  11.605  20.255  0.00  0.00    +0.000 A 
ATOM      8  C   UNL     1      -2.180  12.465  21.040  0.00  0.00    +0.000 A 
ATOM      9  C   UNL     1      -2.118  12.409  22.439  0.00  0.00    +0.000 A 
ATOM     10  C   UNL     1      -1.271  11.474  23.043  0.00  0.00    +0.000 A 
ATOM     11  C   UNL     1      -0.502  10.618  22.244  0.00  0.00    +0.000 A 
ATOM     12  H   UNL     1       1.694   8.145  22.375  0.00  0.00    +0.000 HD
ENDROOT
BRANCH   4  13
ATOM     13  C   UNL     1       1.781   7.977  19.845  0.00  0.00    +0.000 C 
ATOM     14  C   UNL     1       2.002   6.761  20.363  0.00  0.00    +0.000 C 
ATOM     15  C   UNL     1       2.763   5.828  19.536  0.00  0.00    +0.000 A 
ATOM     16  C   UNL     1       3.213   4.605  20.043  0.00  0.00    +0.000 A 
ATOM     17  C   UNL     1       3.885   3.706  19.209  0.00  0.00    +0.000 A 
ATOM     18  C   UNL     1       4.097   4.016  17.866  0.00  0.00    +0.000 A 
ATOM     19  C   UNL     1       3.642   5.230  17.351  0.00  0.00    +0.000 A 
ATOM     20  C   UNL     1       2.991   6.136  18.187  0.00  0.00    +0.000 A 
ATOM     21  O   UNL     1       2.544   7.293  17.603  0.00  0.00    +0.000 OA
ATOM     22  C   UNL     1       2.330   8.386  18.514  0.00  0.00    +0.000 C 
ENDBRANCH   4  13
BRANCH   9  23
ATOM     23  C   UNL     1      -2.931  13.308  23.236  0.00  0.00    +0.000 A 
ATOM     24  C   UNL     1      -2.563  14.293  24.182  0.00  0.00    +0.000 A 
ATOM     25  N   UNL     1      -3.618  14.905  24.727  0.00  0.00    +0.000 NA
ATOM     26  N   UNL     1      -4.665  14.312  24.131  0.00  0.00    +0.000 N 
ATOM     27  C   UNL     1      -4.307  13.349  23.234  0.00  0.00    +0.000 A 
ATOM     28  H   UNL     1      -5.598  14.613  24.391  0.00  0.00    +0.000 HD
ENDBRANCH   9  23
TORSDOF 2
ENDMDL
MODEL 7
REMARK VINA RESULT:      -8.2      1.698      2.358
REMARK  Name = 
REMARK  2 active torsions:
REMARK  status: ('A' for Active; 'I' for Inactive)
REMARK    1  A    between atoms: C_4  and  C_5
REMARK    2  A    between atoms: C_19  and  C_20
REMARK                            x       y       z     vdW  Elec       q    Type
REMARK                         _______ _______ _______ _____ _____    ______ ____
ROOT
ATOM      1  O   UNL     1       0.903   8.660  22.354  0.00  0.00    +0.000 OA
ATOM      2  C   UNL     1       1.066   8.713  21.141  0.00  0.00    +0.000 A 
ATOM      3  N   UNL     1       1.927   7.875  20.483  0.00  0.00    +0.000 N 
ATOM      4  C   UNL     1       2.146   7.926  19.130  0.00  0.00    +0.000 A 
ATOM      5  N   UNL     1       1.561   8.773  18.350  0.00  0.00    +0.000 NA
ATOM      6  C   UNL     1       0.636   9.663  18.924  0.00  0.00    +0.000 A 
ATOM      7  C   UNL     1      -0.037  10.560  18.096  0.00  0.00    +0.000 A 
ATOM      8  C   UNL     1      -0.973  11.456  18.627  0.00  0.00    +0.000 A 
ATOM      9  C   UNL     1      -1.249  11.471  20.001  0.00  0.00    +0.000 A 
ATOM     10  C   UNL     1      -0.580  10.571  20.837  0.00  0.00    +0.000 A 
ATOM     11  C   UNL     1       0.352   9.680  20.291  0.00  0.00    +0.000 A 
ATOM     12  H   UNL     1       2.433   7.226  21.071  0.00  0.00    +0.000 HD
ENDROOT
BRANCH   4  13
ATOM     13  C   UNL     1       3.124   6.930  18.647  0.00  0.00    +0.000 C 
ATOM     14  C   UNL     1       3.710   7.116  17.457  0.00  0.00    +0.000 C 
ATOM     15  C   UNL     1       4.724   6.139  17.069  0.00  0.00    +0.000 A 
ATOM     16  C   UNL     1       5.265   6.123  15.780  0.00  0.00    +0.000 A 
ATOM     17  C   UNL     1       6.280   5.216  15.457  0.00  0.00    +0.000 A 
ATOM     18  C   UNL     1       6.766   4.333  16.421  0.00  0.00    +0.000 A 
ATOM     19  C   UNL     1       6.238   4.351  17.711  0.00  0.00    +0.000 A 
ATOM     20  C   UNL     1       5.213   5.240  18.028  0.00  0.00    +0.000 A 
ATOM     21  O   UNL     1       4.766   5.221  19.324  0.00  0.00    +0.000 OA
ATOM     22  C   UNL     1       3.444   5.753  19.516  0.00  0.00    +0.000 C 
ENDBRANCH   4  13
BRANCH   9  23
ATOM     23  C   UNL     1      -2.222  12.406  20.533  0.00  0.00    +0.000 A 
ATOM     24  C   UNL     1      -2.138  13.312  21.615  0.00  0.00    +0.000 A 
ATOM     25  N   UNL     1      -3.270  13.994  21.808  0.00  0.00    +0.000 NA
ATOM     26  N   UNL     1      -4.084  13.525  20.847  0.00  0.00    +0.000 N 
ATOM     27  C   UNL     1      -3.506  12.572  20.061  0.00  0.00    +0.000 A 
ATOM     28  H   UNL     1      -5.026  13.899  20.792  0.00  0.00    +0.000 HD
ENDBRANCH   9  23
TORSDOF 2
ENDMDL
MODEL 8
REMARK VINA RESULT:      -8.1      2.660      9.320
REMARK  Name = 
REMARK  2 active torsions:
REMARK  status: ('A' for Active; 'I' for Inactive)
REMARK    1  A    between atoms: C_4  and  C_5
REMARK    2  A    between atoms: C_19  and  C_20
REMARK                            x       y       z     vdW  Elec       q    Type
REMARK                         _______ _______ _______ _____ _____    ______ ____
ROOT
ATOM      1  O   UNL     1       1.967   5.321  21.167  0.00  0.00    +0.000 OA
ATOM      2  C   UNL     1       1.908   6.411  20.610  0.00  0.00    +0.000 A 
ATOM      3  N   UNL     1       1.217   7.466  21.144  0.00  0.00    +0.000 N 
ATOM      4  C   UNL     1       1.115   8.690  20.533  0.00  0.00    +0.000 A 
ATOM      5  N   UNL     1       1.661   8.960  19.394  0.00  0.00    +0.000 NA
ATOM      6  C   UNL     1       2.416   7.950  18.772  0.00  0.00    +0.000 A 
ATOM      7  C   UNL     1       3.046   8.230  17.561  0.00  0.00    +0.000 A 
ATOM      8  C   UNL     1       3.815   7.255  16.915  0.00  0.00    +0.000 A 
ATOM      9  C   UNL     1       3.965   5.977  17.471  0.00  0.00    +0.000 A 
ATOM     10  C   UNL     1       3.337   5.690  18.688  0.00  0.00    +0.000 A 
ATOM     11  C   UNL     1       2.572   6.676  19.323  0.00  0.00    +0.000 A 
ATOM     12  H   UNL     1       0.743   7.276  22.017  0.00  0.00    +0.000 HD
ENDROOT
BRANCH   4  13
ATOM     13  C   UNL     1       0.312   9.669  21.293  0.00  0.00    +0.000 C 
ATOM     14  C   UNL     1      -0.305  10.659  20.633  0.00  0.00    +0.000 C 
ATOM     15  C   UNL     1      -1.145  11.549  21.428  0.00  0.00    +0.000 A 
ATOM     16  C   UNL     1      -1.685  12.720  20.886  0.00  0.00    +0.000 A 
ATOM     17  C   UNL     1      -2.538  13.519  21.653  0.00  0.00    +0.000 A 
ATOM     18  C   UNL     1      -2.865  13.148  22.957  0.00  0.00    +0.000 A 
ATOM     19  C   UNL     1      -2.339  11.977  23.501  0.00  0.00    +0.000 A 
ATOM     20  C   UNL     1      -1.472  11.190  22.744  0.00  0.00    +0.000 A 
ATOM     21  O   UNL     1      -1.020  10.038  23.333  0.00  0.00    +0.000 OA
ATOM     22  C   UNL     1       0.197   9.512  22.777  0.00  0.00    +0.000 C 
ENDBRANCH   4  13
BRANCH   9  23
ATOM     23  C   UNL     1       4.766   4.980  16.788  0.00  0.00    +0.000 A 
ATOM     24  C   UNL     1       5.701   5.108  15.736  0.00  0.00    +0.000 A 
ATOM     25  N   UNL     1       6.222   3.936  15.361  0.00  0.00    +0.000 NA
ATOM     26  N   UNL     1       5.620   3.053  16.174  0.00  0.00    +0.000 N 
ATOM     27  C   UNL     1       4.738   3.626  17.043  0.00  0.00    +0.000 A 
ATOM     28  H   UNL     1       5.855   2.071  16.075  0.00  0.00    +0.000 HD
ENDBRANCH   9  23
TORSDOF 2
ENDMDL
MODEL 9
REMARK VINA RESULT:      -8.1      1.452      1.981
REMARK  Name = 
REMARK  2 active torsions:
REMARK  status: ('A' for Active; 'I' for Inactive)
REMARK    1  A    between atoms: C_4  and  C_5
REMARK    2  A    between atoms: C_19  and  C_20
REMARK                            x       y       z     vdW  Elec       q    Type
REMARK                         _______ _______ _______ _____ _____    ______ ____
ROOT
ATOM      1  O   UNL     1       1.001   9.346  23.545  0.00  0.00    +0.000 OA
ATOM      2  C   UNL     1       0.869   9.334  22.327  0.00  0.00    +0.000 A 
ATOM      3  N   UNL     1       1.539   8.444  21.529  0.00  0.00    +0.000 N 
ATOM      4  C   UNL     1       1.427   8.422  20.162  0.00  0.00    +0.000 A 
ATOM      5  N   UNL     1       0.681   9.242  19.500  0.00  0.00    +0.000 NA
ATOM      6  C   UNL     1      -0.069  10.181  20.228  0.00  0.00    +0.000 A 
ATOM      7  C   UNL     1      -0.911  11.051  19.537  0.00  0.00    +0.000 A 
ATOM      8  C   UNL     1      -1.683  11.994  20.227  0.00  0.00    +0.000 A 
ATOM      9  C   UNL     1      -1.623  12.085  21.624  0.00  0.00    +0.000 A 
ATOM     10  C   UNL     1      -0.781  11.213  22.324  0.00  0.00    +0.000 A 
ATOM     11  C   UNL     1      -0.017  10.274  21.621  0.00  0.00    +0.000 A 
ATOM     12  H   UNL     1       2.164   7.814  22.013  0.00  0.00    +0.000 HD
ENDROOT
BRANCH   4  13
ATOM     13  C   UNL     1       2.250   7.381  19.515  0.00  0.00    +0.000 C 
ATOM     14  C   UNL     1       2.933   7.687  18.403  0.00  0.00    +0.000 C 
ATOM     15  C   UNL     1       3.788   6.639  17.853  0.00  0.00    +0.000 A 
ATOM     16  C   UNL     1       4.398   6.777  16.602  0.00  0.00    +0.000 A 
ATOM     17  C   UNL     1       5.262   5.783  16.131  0.00  0.00    +0.000 A 
ATOM     18  C   UNL     1       5.531   4.658  16.909  0.00  0.00    +0.000 A 
ATOM     19  C   UNL     1       4.934   4.518  18.161  0.00  0.00    +0.000 A 
ATOM     20  C   UNL     1       4.056   5.498  18.624  0.00  0.00    +0.000 A 
ATOM     21  O   UNL     1       3.533   5.308  19.877  0.00  0.00    +0.000 OA
ATOM     22  C   UNL     1       2.311   6.020  20.135  0.00  0.00    +0.000 C 
ENDBRANCH   4  13
BRANCH   9  23
ATOM     23  C   UNL     1      -2.429  13.067  22.321  0.00  0.00    +0.000 A 
ATOM     24  C   UNL     1      -2.058  14.121  23.188  0.00  0.00    +0.000 A 
ATOM     25  N   UNL     1      -3.110  14.803  23.654  0.00  0.00    +0.000 NA
ATOM     26  N   UNL     1      -4.158  14.185  23.085  0.00  0.00    +0.000 N 
ATOM     27  C   UNL     1      -3.805  13.140  22.283  0.00  0.00    +0.000 A 
ATOM     28  H   UNL     1      -5.089  14.528  23.296  0.00  0.00    +0.000 HD
ENDBRANCH   9  23
TORSDOF 2
ENDMDL
