MODEL 1
REMARK VINA RESULT:      -7.5      0.000      0.000
REMARK  Name = 
REMARK  5 active torsions:
REMARK  status: ('A' for Active; 'I' for Inactive)
REMARK    1  A    between atoms: C_1  and  O_2
REMARK    2  A    between atoms: O_2  and  C_3
REMARK    3  A    between atoms: C_8  and  C_9
REMARK    4  A    between atoms: C_9  and  C_11
REMARK    5  A    between atoms: N_18  and  C_19
REMARK                            x       y       z     vdW  Elec       q    Type
REMARK                         _______ _______ _______ _____ _____    ______ ____
ROOT
ATOM      1  C   UNL     1       5.133   5.185  19.386  0.00  0.00    +0.000 C 
ATOM      2  C   UNL     1       4.057   6.309  19.360  0.00  0.00    +0.000 C 
ATOM      3  C   UNL     1       3.652   6.830  17.978  0.00  0.00    +0.000 C 
ATOM      4  C   UNL     1       4.807   6.987  16.996  0.00  0.00    +0.000 C 
ATOM      5  N   UNL     1       5.727   5.857  17.058  0.00  0.00    +0.000 N 
ATOM      6  C   UNL     1       6.412   5.277  15.994  0.00  0.00    +0.000 C 
ATOM      7  O   UNL     1       7.454   4.656  16.177  0.00  0.00    +0.000 OA
ATOM      8  N   UNL     1       5.840   5.417  14.753  0.00  0.00    +0.000 N 
ATOM      9  C   UNL     1       6.231   5.548  18.393  0.00  0.00    +0.000 C 
ATOM     10  H   UNL     1       5.337   6.254  14.514  0.00  0.00    +0.000 HD
ENDROOT
BRANCH   8  11
ATOM     11  C   UNL     1       6.145   4.556  13.664  0.00  0.00    +0.000 A 
ATOM     12  C   UNL     1       5.267   3.549  13.235  0.00  0.00    +0.000 A 
ATOM     13  C   UNL     1       5.570   2.731  12.146  0.00  0.00    +0.000 A 
ATOM     14  C   UNL     1       6.763   2.914  11.461  0.00  0.00    +0.000 A 
ATOM     15  C   UNL     1       7.644   3.923  11.857  0.00  0.00    +0.000 A 
ATOM     16  C   UNL     1       7.328   4.734  12.947  0.00  0.00    +0.000 A 
ATOM     17  F   UNL     1       8.192   5.696  13.312  0.00  0.00    +0.000 F 
ENDBRANCH   8  11
BRANCH   1  18
ATOM     18  C   UNL     1       4.575   3.732  19.359  0.00  0.00    +0.000 C 
ATOM     19  O   UNL     1       5.373   2.827  19.072  0.00  0.00    +0.000 OA
BRANCH  18  25
ATOM     20  C   UNL     1       2.189   2.789  18.557  0.00  0.00    +0.000 A 
ATOM     21  C   UNL     1       0.822   2.560  18.879  0.00  0.00    +0.000 A 
ATOM     22  C   UNL     1       0.346   2.708  20.179  0.00  0.00    +0.000 A 
ATOM     23  C   UNL     1       1.237   3.103  21.162  0.00  0.00    +0.000 A 
ATOM     24  C   UNL     1       2.574   3.402  20.822  0.00  0.00    +0.000 A 
ATOM     25  C   UNL     1       3.098   3.290  19.505  0.00  0.00    +0.000 A 
BRANCH  20  27
ATOM     26  C   UNL     1       2.931   3.631  16.551  0.00  0.00    +0.000 C 
ATOM     27  O   UNL     1       2.497   2.476  17.262  0.00  0.00    +0.000 OA
ENDBRANCH  20  27
ENDBRANCH  18  25
ENDBRANCH   1  18
TORSDOF 4
ENDMDL
MODEL 2
REMARK VINA RESULT:      -7.3      1.066      1.689
REMARK  Name = 
REMARK  5 active torsions:
REMARK  status: ('A' for Active; 'I' for Inactive)
REMARK    1  A    between atoms: C_1  and  O_2
REMARK    2  A    between atoms: O_2  and  C_3
REMARK    3  A    between atoms: C_8  and  C_9
REMARK    4  A    between atoms: C_9  and  C_11
REMARK    5  A    between atoms: N_18  and  C_19
REMARK                            x       y       z     vdW  Elec       q    Type
REMARK                         _______ _______ _______ _____ _____    ______ ____
ROOT
ATOM      1  C   UNL     1       5.249   5.455  19.190  0.00  0.00    +0.000 C 
ATOM      2  C   UNL     1       4.156   6.560  19.112  0.00  0.00    +0.000 C 
ATOM      3  C   UNL     1       3.716   6.982  17.707  0.00  0.00    +0.000 C 
ATOM      4  C   UNL     1       4.849   7.090  16.693  0.00  0.00    +0.000 C 
ATOM      5  N   UNL     1       5.787   5.979  16.811  0.00  0.00    +0.000 N 
ATOM      6  C   UNL     1       6.460   5.339  15.774  0.00  0.00    +0.000 C 
ATOM      7  O   UNL     1       7.515   4.746  15.976  0.00  0.00    +0.000 OA
ATOM      8  N   UNL     1       5.862   5.388  14.539  0.00  0.00    +0.000 N 
ATOM      9  C   UNL     1       6.322   5.767  18.153  0.00  0.00    +0.000 C 
ATOM     10  H   UNL     1       5.341   6.200  14.255  0.00  0.00    +0.000 HD
ENDROOT
BRANCH   8  11
ATOM     11  C   UNL     1       6.159   4.460  13.503  0.00  0.00    +0.000 A 
ATOM     12  C   UNL     1       5.284   3.419  13.154  0.00  0.00    +0.000 A 
ATOM     13  C   UNL     1       5.578   2.535  12.116  0.00  0.00    +0.000 A 
ATOM     14  C   UNL     1       6.759   2.685  11.401  0.00  0.00    +0.000 A 
ATOM     15  C   UNL     1       7.635   3.725  11.716  0.00  0.00    +0.000 A 
ATOM     16  C   UNL     1       7.328   4.602  12.756  0.00  0.00    +0.000 A 
ATOM     17  F   UNL     1       8.188   5.594  13.044  0.00  0.00    +0.000 F 
ENDBRANCH   8  11
BRANCH   1  18
ATOM     18  C   UNL     1       4.713   3.996  19.271  0.00  0.00    +0.000 C 
ATOM     19  O   UNL     1       5.552   3.084  19.226  0.00  0.00    +0.000 OA
BRANCH  18  25
ATOM     20  C   UNL     1       2.178   3.798  20.144  0.00  0.00    +0.000 A 
ATOM     21  C   UNL     1       0.911   3.165  20.007  0.00  0.00    +0.000 A 
ATOM     22  C   UNL     1       0.619   2.349  18.918  0.00  0.00    +0.000 A 
ATOM     23  C   UNL     1       1.603   2.150  17.965  0.00  0.00    +0.000 A 
ATOM     24  C   UNL     1       2.882   2.718  18.145  0.00  0.00    +0.000 A 
ATOM     25  C   UNL     1       3.235   3.536  19.253  0.00  0.00    +0.000 A 
BRANCH  20  27
ATOM     26  C   UNL     1       1.485   5.834  20.953  0.00  0.00    +0.000 C 
ATOM     27  O   UNL     1       2.241   4.655  21.207  0.00  0.00    +0.000 OA
ENDBRANCH  20  27
ENDBRANCH  18  25
ENDBRANCH   1  18
TORSDOF 4
ENDMDL
MODEL 3
REMARK VINA RESULT:      -7.1      3.018      5.018
REMARK  Name = 
REMARK  5 active torsions:
REMARK  status: ('A' for Active; 'I' for Inactive)
REMARK    1  A    between atoms: C_1  and  O_2
REMARK    2  A    between atoms: O_2  and  C_3
REMARK    3  A    between atoms: C_8  and  C_9
REMARK    4  A    between atoms: C_9  and  C_11
REMARK    5  A    between atoms: N_18  and  C_19
REMARK                            x       y       z     vdW  Elec       q    Type
REMARK                         _______ _______ _______ _____ _____    ______ ____
ROOT
ATOM      1  C   UNL     1       1.220   4.387  20.269  0.00  0.00    +0.000 C 
ATOM      2  C   UNL     1       1.529   3.204  21.232  0.00  0.00    +0.000 C 
ATOM      3  C   UNL     1       2.746   2.342  20.881  0.00  0.00    +0.000 C 
ATOM      4  C   UNL     1       2.911   2.054  19.393  0.00  0.00    +0.000 C 
ATOM      5  N   UNL     1       2.656   3.239  18.582  0.00  0.00    +0.000 N 
ATOM      6  C   UNL     1       3.311   3.607  17.410  0.00  0.00    +0.000 C 
ATOM      7  O   UNL     1       2.770   4.337  16.587  0.00  0.00    +0.000 OA
ATOM      8  N   UNL     1       4.591   3.133  17.255  0.00  0.00    +0.000 N 
ATOM      9  C   UNL     1       1.375   3.892  18.835  0.00  0.00    +0.000 C 
ATOM     10  H   UNL     1       4.846   2.225  17.604  0.00  0.00    +0.000 HD
ENDROOT
BRANCH   8  11
ATOM     11  C   UNL     1       5.533   3.737  16.378  0.00  0.00    +0.000 A 
ATOM     12  C   UNL     1       5.558   3.468  15.001  0.00  0.00    +0.000 A 
ATOM     13  C   UNL     1       6.472   4.092  14.151  0.00  0.00    +0.000 A 
ATOM     14  C   UNL     1       7.378   5.007  14.671  0.00  0.00    +0.000 A 
ATOM     15  C   UNL     1       7.358   5.307  16.034  0.00  0.00    +0.000 A 
ATOM     16  C   UNL     1       6.439   4.676  16.872  0.00  0.00    +0.000 A 
ATOM     17  F   UNL     1       6.441   4.977  18.182  0.00  0.00    +0.000 F 
ENDBRANCH   8  11
BRANCH   1  18
ATOM     18  C   UNL     1       1.885   5.742  20.650  0.00  0.00    +0.000 C 
ATOM     19  O   UNL     1       2.419   5.815  21.767  0.00  0.00    +0.000 OA
BRANCH  18  25
ATOM     20  C   UNL     1       1.175   8.283  20.130  0.00  0.00    +0.000 A 
ATOM     21  C   UNL     1       1.153   9.352  19.191  0.00  0.00    +0.000 A 
ATOM     22  C   UNL     1       1.882   9.294  18.006  0.00  0.00    +0.000 A 
ATOM     23  C   UNL     1       2.624   8.154  17.748  0.00  0.00    +0.000 A 
ATOM     24  C   UNL     1       2.581   7.067  18.645  0.00  0.00    +0.000 A 
ATOM     25  C   UNL     1       1.832   7.070  19.854  0.00  0.00    +0.000 A 
BRANCH  20  27
ATOM     26  C   UNL     1       1.368   9.169  22.242  0.00  0.00    +0.000 C 
ATOM     27  O   UNL     1       0.502   8.567  21.286  0.00  0.00    +0.000 OA
ENDBRANCH  20  27
ENDBRANCH  18  25
ENDBRANCH   1  18
TORSDOF 4
ENDMDL
MODEL 4
REMARK VINA RESULT:      -7.1      3.636      7.278
REMARK  Name = 
REMARK  5 active torsions:
REMARK  status: ('A' for Active; 'I' for Inactive)
REMARK    1  A    between atoms: C_1  and  O_2
REMARK    2  A    between atoms: O_2  and  C_3
REMARK    3  A    between atoms: C_8  and  C_9
REMARK    4  A    between atoms: C_9  and  C_11
REMARK    5  A    between atoms: N_18  and  C_19
REMARK                            x       y       z     vdW  Elec       q    Type
REMARK                         _______ _______ _______ _____ _____    ______ ____
ROOT
ATOM      1  C   UNL     1       3.338   2.939  18.862  0.00  0.00    +0.000 C 
ATOM      2  C   UNL     1       2.042   2.128  19.151  0.00  0.00    +0.000 C 
ATOM      3  C   UNL     1       0.792   2.945  19.493  0.00  0.00    +0.000 C 
ATOM      4  C   UNL     1       1.047   4.145  20.398  0.00  0.00    +0.000 C 
ATOM      5  N   UNL     1       2.251   4.869  20.009  0.00  0.00    +0.000 N 
ATOM      6  C   UNL     1       2.451   6.246  20.056  0.00  0.00    +0.000 C 
ATOM      7  O   UNL     1       3.580   6.718  20.135  0.00  0.00    +0.000 OA
ATOM      8  N   UNL     1       1.324   7.027  19.978  0.00  0.00    +0.000 N 
ATOM      9  C   UNL     1       3.454   4.048  19.901  0.00  0.00    +0.000 C 
ATOM     10  H   UNL     1       0.460   6.720  20.389  0.00  0.00    +0.000 HD
ENDROOT
BRANCH   8  11
ATOM     11  C   UNL     1       1.360   8.392  19.579  0.00  0.00    +0.000 A 
ATOM     12  C   UNL     1       1.853   8.796  18.329  0.00  0.00    +0.000 A 
ATOM     13  C   UNL     1       1.855  10.137  17.943  0.00  0.00    +0.000 A 
ATOM     14  C   UNL     1       1.353  11.100  18.808  0.00  0.00    +0.000 A 
ATOM     15  C   UNL     1       0.838  10.720  20.049  0.00  0.00    +0.000 A 
ATOM     16  C   UNL     1       0.842   9.375  20.421  0.00  0.00    +0.000 A 
ATOM     17  F   UNL     1       0.345   9.033  21.621  0.00  0.00    +0.000 F 
ENDBRANCH   8  11
BRANCH   1  18
ATOM     18  C   UNL     1       3.568   3.311  17.368  0.00  0.00    +0.000 C 
ATOM     19  O   UNL     1       2.649   3.056  16.575  0.00  0.00    +0.000 OA
BRANCH  18  25
ATOM     20  C   UNL     1       6.063   4.311  17.300  0.00  0.00    +0.000 A 
ATOM     21  C   UNL     1       7.110   4.866  16.511  0.00  0.00    +0.000 A 
ATOM     22  C   UNL     1       7.058   4.850  15.120  0.00  0.00    +0.000 A 
ATOM     23  C   UNL     1       5.947   4.292  14.511  0.00  0.00    +0.000 A 
ATOM     24  C   UNL     1       4.879   3.813  15.298  0.00  0.00    +0.000 A 
ATOM     25  C   UNL     1       4.875   3.831  16.720  0.00  0.00    +0.000 A 
BRANCH  20  27
ATOM     26  C   UNL     1       6.890   5.554  19.047  0.00  0.00    +0.000 C 
ATOM     27  O   UNL     1       6.342   4.306  18.638  0.00  0.00    +0.000 OA
ENDBRANCH  20  27
ENDBRANCH  18  25
ENDBRANCH   1  18
TORSDOF 4
ENDMDL
MODEL 5
REMARK VINA RESULT:      -7.0      3.219      7.093
REMARK  Name = 
REMARK  5 active torsions:
REMARK  status: ('A' for Active; 'I' for Inactive)
REMARK    1  A    between atoms: C_1  and  O_2
REMARK    2  A    between atoms: O_2  and  C_3
REMARK    3  A    between atoms: C_8  and  C_9
REMARK    4  A    between atoms: C_9  and  C_11
REMARK    5  A    between atoms: N_18  and  C_19
REMARK                            x       y       z     vdW  Elec       q    Type
REMARK                         _______ _______ _______ _____ _____    ______ ____
ROOT
ATOM      1  C   UNL     1       3.307   3.022  18.838  0.00  0.00    +0.000 C 
ATOM      2  C   UNL     1       2.022   2.183  19.096  0.00  0.00    +0.000 C 
ATOM      3  C   UNL     1       0.756   2.970  19.445  0.00  0.00    +0.000 C 
ATOM      4  C   UNL     1       0.982   4.152  20.381  0.00  0.00    +0.000 C 
ATOM      5  N   UNL     1       2.178   4.906  20.021  0.00  0.00    +0.000 N 
ATOM      6  C   UNL     1       2.354   6.284  20.103  0.00  0.00    +0.000 C 
ATOM      7  O   UNL     1       3.475   6.773  20.204  0.00  0.00    +0.000 OA
ATOM      8  N   UNL     1       1.215   7.048  20.033  0.00  0.00    +0.000 N 
ATOM      9  C   UNL     1       3.395   4.107  19.905  0.00  0.00    +0.000 C 
ATOM     10  H   UNL     1       0.352   6.717  20.429  0.00  0.00    +0.000 HD
ENDROOT
BRANCH   8  11
ATOM     11  C   UNL     1       1.232   8.422  19.668  0.00  0.00    +0.000 A 
ATOM     12  C   UNL     1       0.844   9.439  20.554  0.00  0.00    +0.000 A 
ATOM     13  C   UNL     1       0.894  10.785  20.188  0.00  0.00    +0.000 A 
ATOM     14  C   UNL     1       1.343  11.135  18.922  0.00  0.00    +0.000 A 
ATOM     15  C   UNL     1       1.754  10.142  18.031  0.00  0.00    +0.000 A 
ATOM     16  C   UNL     1       1.699   8.801  18.410  0.00  0.00    +0.000 A 
ATOM     17  F   UNL     1       2.096   7.862  17.535  0.00  0.00    +0.000 F 
ENDBRANCH   8  11
BRANCH   1  18
ATOM     18  C   UNL     1       3.545   3.434  17.356  0.00  0.00    +0.000 C 
ATOM     19  O   UNL     1       2.604   3.263  16.566  0.00  0.00    +0.000 OA
BRANCH  18  25
ATOM     20  C   UNL     1       6.090   4.297  17.295  0.00  0.00    +0.000 A 
ATOM     21  C   UNL     1       7.160   4.815  16.512  0.00  0.00    +0.000 A 
ATOM     22  C   UNL     1       7.099   4.840  15.122  0.00  0.00    +0.000 A 
ATOM     23  C   UNL     1       5.955   4.359  14.507  0.00  0.00    +0.000 A 
ATOM     24  C   UNL     1       4.867   3.919  15.290  0.00  0.00    +0.000 A 
ATOM     25  C   UNL     1       4.874   3.899  16.712  0.00  0.00    +0.000 A 
BRANCH  20  27
ATOM     26  C   UNL     1       6.704   5.531  19.134  0.00  0.00    +0.000 C 
ATOM     27  O   UNL     1       6.377   4.241  18.630  0.00  0.00    +0.000 OA
ENDBRANCH  20  27
ENDBRANCH  18  25
ENDBRANCH   1  18
TORSDOF 4
ENDMDL
MODEL 6
REMARK VINA RESULT:      -6.9      2.625      4.698
REMARK  Name = 
REMARK  5 active torsions:
REMARK  status: ('A' for Active; 'I' for Inactive)
REMARK    1  A    between atoms: C_1  and  O_2
REMARK    2  A    between atoms: O_2  and  C_3
REMARK    3  A    between atoms: C_8  and  C_9
REMARK    4  A    between atoms: C_9  and  C_11
REMARK    5  A    between atoms: N_18  and  C_19
REMARK                            x       y       z     vdW  Elec       q    Type
REMARK                         _______ _______ _______ _____ _____    ______ ____
ROOT
ATOM      1  C   UNL     1       1.325   4.262  20.286  0.00  0.00    +0.000 C 
ATOM      2  C   UNL     1       1.865   3.327  21.406  0.00  0.00    +0.000 C 
ATOM      3  C   UNL     1       3.187   2.610  21.115  0.00  0.00    +0.000 C 
ATOM      4  C   UNL     1       3.327   2.094  19.688  0.00  0.00    +0.000 C 
ATOM      5  N   UNL     1       2.847   3.066  18.712  0.00  0.00    +0.000 N 
ATOM      6  C   UNL     1       3.379   3.318  17.451  0.00  0.00    +0.000 C 
ATOM      7  O   UNL     1       2.690   3.803  16.559  0.00  0.00    +0.000 OA
ATOM      8  N   UNL     1       4.710   3.023  17.282  0.00  0.00    +0.000 N 
ATOM      9  C   UNL     1       1.491   3.553  18.947  0.00  0.00    +0.000 C 
ATOM     10  H   UNL     1       5.124   2.239  17.757  0.00  0.00    +0.000 HD
ENDROOT
BRANCH   8  11
ATOM     11  C   UNL     1       5.501   3.599  16.250  0.00  0.00    +0.000 A 
ATOM     12  C   UNL     1       5.142   3.519  14.896  0.00  0.00    +0.000 A 
ATOM     13  C   UNL     1       5.916   4.115  13.899  0.00  0.00    +0.000 A 
ATOM     14  C   UNL     1       7.065   4.812  14.248  0.00  0.00    +0.000 A 
ATOM     15  C   UNL     1       7.431   4.922  15.590  0.00  0.00    +0.000 A 
ATOM     16  C   UNL     1       6.648   4.322  16.576  0.00  0.00    +0.000 A 
ATOM     17  F   UNL     1       7.021   4.438  17.862  0.00  0.00    +0.000 F 
ENDBRANCH   8  11
BRANCH   1  18
ATOM     18  C   UNL     1       1.779   5.748  20.387  0.00  0.00    +0.000 C 
ATOM     19  O   UNL     1       1.406   6.386  21.384  0.00  0.00    +0.000 OA
BRANCH  18  25
ATOM     20  C   UNL     1       2.155   7.754  18.637  0.00  0.00    +0.000 A 
ATOM     21  C   UNL     1       2.943   8.290  17.580  0.00  0.00    +0.000 A 
ATOM     22  C   UNL     1       4.178   7.742  17.244  0.00  0.00    +0.000 A 
ATOM     23  C   UNL     1       4.623   6.641  17.957  0.00  0.00    +0.000 A 
ATOM     24  C   UNL     1       3.803   6.069  18.952  0.00  0.00    +0.000 A 
ATOM     25  C   UNL     1       2.525   6.577  19.312  0.00  0.00    +0.000 A 
BRANCH  20  27
ATOM     26  C   UNL     1       1.076   9.740  18.216  0.00  0.00    +0.000 C 
ATOM     27  O   UNL     1       1.036   8.494  18.903  0.00  0.00    +0.000 OA
ENDBRANCH  20  27
ENDBRANCH  18  25
ENDBRANCH   1  18
TORSDOF 4
ENDMDL
MODEL 7
REMARK VINA RESULT:      -6.8      3.562      6.181
REMARK  Name = 
REMARK  5 active torsions:
REMARK  status: ('A' for Active; 'I' for Inactive)
REMARK    1  A    between atoms: C_1  and  O_2
REMARK    2  A    between atoms: O_2  and  C_3
REMARK    3  A    between atoms: C_8  and  C_9
REMARK    4  A    between atoms: C_9  and  C_11
REMARK    5  A    between atoms: N_18  and  C_19
REMARK                            x       y       z     vdW  Elec       q    Type
REMARK                         _______ _______ _______ _____ _____    ______ ____
ROOT
ATOM      1  C   UNL     1       5.346   4.847  17.669  0.00  0.00    +0.000 C 
ATOM      2  C   UNL     1       6.652   5.654  17.420  0.00  0.00    +0.000 C 
ATOM      3  C   UNL     1       6.539   7.178  17.520  0.00  0.00    +0.000 C 
ATOM      4  C   UNL     1       5.267   7.761  16.913  0.00  0.00    +0.000 C 
ATOM      5  N   UNL     1       4.093   6.964  17.252  0.00  0.00    +0.000 N 
ATOM      6  C   UNL     1       2.811   7.436  17.516  0.00  0.00    +0.000 C 
ATOM      7  O   UNL     1       1.829   6.717  17.360  0.00  0.00    +0.000 OA
ATOM      8  N   UNL     1       2.721   8.723  17.985  0.00  0.00    +0.000 N 
ATOM      9  C   UNL     1       4.204   5.543  16.937  0.00  0.00    +0.000 C 
ATOM     10  H   UNL     1       3.364   9.428  17.669  0.00  0.00    +0.000 HD
ENDROOT
BRANCH   8  11
ATOM     11  C   UNL     1       1.589   9.204  18.700  0.00  0.00    +0.000 A 
ATOM     12  C   UNL     1       0.626  10.036  18.108  0.00  0.00    +0.000 A 
ATOM     13  C   UNL     1      -0.493  10.476  18.816  0.00  0.00    +0.000 A 
ATOM     14  C   UNL     1      -0.669  10.080  20.135  0.00  0.00    +0.000 A 
ATOM     15  C   UNL     1       0.265   9.237  20.738  0.00  0.00    +0.000 A 
ATOM     16  C   UNL     1       1.379   8.804  20.019  0.00  0.00    +0.000 A 
ATOM     17  F   UNL     1       2.266   7.995  20.621  0.00  0.00    +0.000 F 
ENDBRANCH   8  11
BRANCH   1  18
ATOM     18  C   UNL     1       5.108   4.409  19.143  0.00  0.00    +0.000 C 
ATOM     19  O   UNL     1       6.103   4.344  19.881  0.00  0.00    +0.000 OA
BRANCH  18  25
ATOM     20  C   UNL     1       3.258   2.597  19.868  0.00  0.00    +0.000 A 
ATOM     21  C   UNL     1       1.950   2.358  20.377  0.00  0.00    +0.000 A 
ATOM     22  C   UNL     1       1.180   3.386  20.914  0.00  0.00    +0.000 A 
ATOM     23  C   UNL     1       1.711   4.665  20.928  0.00  0.00    +0.000 A 
ATOM     24  C   UNL     1       2.975   4.908  20.352  0.00  0.00    +0.000 A 
ATOM     25  C   UNL     1       3.787   3.896  19.770  0.00  0.00    +0.000 A 
BRANCH  20  27
ATOM     26  C   UNL     1       3.779   1.228  18.097  0.00  0.00    +0.000 C 
ATOM     27  O   UNL     1       3.909   1.453  19.496  0.00  0.00    +0.000 OA
ENDBRANCH  20  27
ENDBRANCH  18  25
ENDBRANCH   1  18
TORSDOF 4
ENDMDL
MODEL 8
REMARK VINA RESULT:      -6.8      9.678     12.165
REMARK  Name = 
REMARK  5 active torsions:
REMARK  status: ('A' for Active; 'I' for Inactive)
REMARK    1  A    between atoms: C_1  and  O_2
REMARK    2  A    between atoms: O_2  and  C_3
REMARK    3  A    between atoms: C_8  and  C_9
REMARK    4  A    between atoms: C_9  and  C_11
REMARK    5  A    between atoms: N_18  and  C_19
REMARK                            x       y       z     vdW  Elec       q    Type
REMARK                         _______ _______ _______ _____ _____    ______ ____
ROOT
ATOM      1  C   UNL     1       1.031  11.393  19.870  0.00  0.00    +0.000 C 
ATOM      2  C   UNL     1       1.566  12.779  19.407  0.00  0.00    +0.000 C 
ATOM      3  C   UNL     1       0.524  13.767  18.875  0.00  0.00    +0.000 C 
ATOM      4  C   UNL     1      -0.554  13.140  17.999  0.00  0.00    +0.000 C 
ATOM      5  N   UNL     1      -1.029  11.875  18.548  0.00  0.00    +0.000 N 
ATOM      6  C   UNL     1      -2.331  11.383  18.510  0.00  0.00    +0.000 C 
ATOM      7  O   UNL     1      -2.554  10.179  18.590  0.00  0.00    +0.000 OA
ATOM      8  N   UNL     1      -3.332  12.318  18.412  0.00  0.00    +0.000 N 
ATOM      9  C   UNL     1       0.019  10.901  18.842  0.00  0.00    +0.000 C 
ATOM     10  H   UNL     1      -3.193  13.161  17.883  0.00  0.00    +0.000 HD
ENDROOT
BRANCH   8  11
ATOM     11  C   UNL     1      -4.676  12.048  18.791  0.00  0.00    +0.000 A 
ATOM     12  C   UNL     1      -5.153  12.292  20.088  0.00  0.00    +0.000 A 
ATOM     13  C   UNL     1      -6.482  12.048  20.434  0.00  0.00    +0.000 A 
ATOM     14  C   UNL     1      -7.362  11.560  19.477  0.00  0.00    +0.000 A 
ATOM     15  C   UNL     1      -6.915  11.329  18.175  0.00  0.00    +0.000 A 
ATOM     16  C   UNL     1      -5.584  11.578  17.843  0.00  0.00    +0.000 A 
ATOM     17  F   UNL     1      -5.175  11.346  16.584  0.00  0.00    +0.000 F 
ENDBRANCH   8  11
BRANCH   1  18
ATOM     18  C   UNL     1       0.647  11.300  21.376  0.00  0.00    +0.000 C 
ATOM     19  O   UNL     1       1.139  10.365  22.027  0.00  0.00    +0.000 OA
BRANCH  18  25
ATOM     20  C   UNL     1      -0.336  13.473  22.617  0.00  0.00    +0.000 A 
ATOM     21  C   UNL     1      -1.380  14.031  23.408  0.00  0.00    +0.000 A 
ATOM     22  C   UNL     1      -2.566  13.339  23.639  0.00  0.00    +0.000 A 
ATOM     23  C   UNL     1      -2.706  12.075  23.091  0.00  0.00    +0.000 A 
ATOM     24  C   UNL     1      -1.638  11.497  22.373  0.00  0.00    +0.000 A 
ATOM     25  C   UNL     1      -0.400  12.154  22.133  0.00  0.00    +0.000 A 
BRANCH  20  27
ATOM     26  C   UNL     1       0.236  15.688  22.395  0.00  0.00    +0.000 C 
ATOM     27  O   UNL     1       0.697  14.341  22.397  0.00  0.00    +0.000 OA
ENDBRANCH  20  27
ENDBRANCH  18  25
ENDBRANCH   1  18
TORSDOF 4
ENDMDL
MODEL 9
REMARK VINA RESULT:      -6.7      9.771     12.237
REMARK  Name = 
REMARK  5 active torsions:
REMARK  status: ('A' for Active; 'I' for Inactive)
REMARK    1  A    between atoms: C_1  and  O_2
REMARK    2  A    between atoms: O_2  and  C_3
REMARK    3  A    between atoms: C_8  and  C_9
REMARK    4  A    between atoms: C_9  and  C_11
REMARK    5  A    between atoms: N_18  and  C_19
REMARK                            x       y       z     vdW  Elec       q    Type
REMARK                         _______ _______ _______ _____ _____    ______ ____
ROOT
ATOM      1  C   UNL     1       0.982  11.380  19.923  0.00  0.00    +0.000 C 
ATOM      2  C   UNL     1       1.501  12.775  19.470  0.00  0.00    +0.000 C 
ATOM      3  C   UNL     1       0.449  13.750  18.932  0.00  0.00    +0.000 C 
ATOM      4  C   UNL     1      -0.612  13.110  18.044  0.00  0.00    +0.000 C 
ATOM      5  N   UNL     1      -1.073  11.836  18.585  0.00  0.00    +0.000 N 
ATOM      6  C   UNL     1      -2.367  11.325  18.533  0.00  0.00    +0.000 C 
ATOM      7  O   UNL     1      -2.572  10.118  18.606  0.00  0.00    +0.000 OA
ATOM      8  N   UNL     1      -3.381  12.245  18.429  0.00  0.00    +0.000 N 
ATOM      9  C   UNL     1      -0.013  10.877  18.884  0.00  0.00    +0.000 C 
ATOM     10  H   UNL     1      -3.250  13.093  17.905  0.00  0.00    +0.000 HD
ENDROOT
BRANCH   8  11
ATOM     11  C   UNL     1      -4.724  11.954  18.795  0.00  0.00    +0.000 A 
ATOM     12  C   UNL     1      -5.552  11.130  18.017  0.00  0.00    +0.000 A 
ATOM     13  C   UNL     1      -6.859  10.833  18.406  0.00  0.00    +0.000 A 
ATOM     14  C   UNL     1      -7.357  11.355  19.593  0.00  0.00    +0.000 A 
ATOM     15  C   UNL     1      -6.545  12.160  20.393  0.00  0.00    +0.000 A 
ATOM     16  C   UNL     1      -5.240  12.448  19.992  0.00  0.00    +0.000 A 
ATOM     17  F   UNL     1      -4.477  13.229  20.777  0.00  0.00    +0.000 F 
ENDBRANCH   8  11
BRANCH   1  18
ATOM     18  C   UNL     1       0.587  11.275  21.425  0.00  0.00    +0.000 C 
ATOM     19  O   UNL     1       1.056  10.323  22.067  0.00  0.00    +0.000 OA
BRANCH  18  25
ATOM     20  C   UNL     1      -0.382  13.468  22.643  0.00  0.00    +0.000 A 
ATOM     21  C   UNL     1      -1.412  14.036  23.443  0.00  0.00    +0.000 A 
ATOM     22  C   UNL     1      -2.591  13.345  23.711  0.00  0.00    +0.000 A 
ATOM     23  C   UNL     1      -2.736  12.070  23.190  0.00  0.00    +0.000 A 
ATOM     24  C   UNL     1      -1.680  11.482  22.463  0.00  0.00    +0.000 A 
ATOM     25  C   UNL     1      -0.449  12.139  22.186  0.00  0.00    +0.000 A 
BRANCH  20  27
ATOM     26  C   UNL     1       0.241  15.680  22.627  0.00  0.00    +0.000 C 
ATOM     27  O   UNL     1       0.643  14.336  22.387  0.00  0.00    +0.000 OA
ENDBRANCH  20  27
ENDBRANCH  18  25
ENDBRANCH   1  18
TORSDOF 4
ENDMDL
