MODEL 1
REMARK VINA RESULT:      -7.1      0.000      0.000
REMARK  Name = 
REMARK  16 active torsions:
REMARK  status: ('A' for Active; 'I' for Inactive)
REMARK    1  A    between atoms: C_1  and  O_2
REMARK    2  A    between atoms: O_2  and  C_3
REMARK    3  A    between atoms: C_3  and  C_4
REMARK    4  A    between atoms: C_4  and  C_5
REMARK    5  A    between atoms: C_5  and  N_6
REMARK    6  A    between atoms: C_7  and  C_9
REMARK    7  A    between atoms: C_9  and  C_10
REMARK    8  A    between atoms: C_9  and  N_17
REMARK    9  A    between atoms: C_10  and  C_11
REMARK   10  A    between atoms: C_11  and  C_12
REMARK   11  A    between atoms: C_12  and  N_13
REMARK   12  A    between atoms: N_17  and  S_18
REMARK   13  A    between atoms: S_18  and  C_21
REMARK   14  A    between atoms: C_26  and  N_27
REMARK   15  A    between atoms: N_27  and  C_28
REMARK   16  A    between atoms: N_27  and  C_29
REMARK                            x       y       z     vdW  Elec       q    Type
REMARK                         _______ _______ _______ _____ _____    ______ ____
ROOT
ATOM      1  C   UNL     1       2.639   6.462  17.920  0.00  0.00    +0.000 C 
ENDROOT
BRANCH   1   3
ATOM      2  N   UNL     1       4.683   5.091  17.669  0.00  0.00    +0.000 N 
ATOM      3  C   UNL     1       4.085   6.312  17.403  0.00  0.00    +0.000 C 
ATOM      4  O   UNL     1       4.652   7.205  16.783  0.00  0.00    +0.000 OA
ATOM      5  H   UNL     1       4.206   4.470  18.319  0.00  0.00    +0.000 HD
BRANCH   2   6
ATOM      6  C   UNL     1       5.993   4.716  17.175  0.00  0.00    +0.000 C 
BRANCH   6   7
ATOM      7  C   UNL     1       5.947   3.777  15.971  0.00  0.00    +0.000 C 
BRANCH   7   8
ATOM      8  C   UNL     1       6.319   4.466  14.665  0.00  0.00    +0.000 C 
BRANCH   8  10
ATOM      9  C   UNL     1       6.277   3.530  12.504  0.00  0.00    +0.000 C 
ATOM     10  O   UNL     1       5.500   3.959  13.613  0.00  0.00    +0.000 OA
ENDBRANCH   8  10
ENDBRANCH   7   8
ENDBRANCH   6   7
ENDBRANCH   2   6
ENDBRANCH   1   3
BRANCH   1  11
ATOM     11  N   UNL     1       2.649   7.712  18.738  0.00  0.00    +0.000 NA
ATOM     12  H   UNL     1       3.577   8.090  18.941  0.00  0.00    +0.000 HD
BRANCH  11  13
ATOM     13  S   UNL     1       1.623   8.982  18.304  0.00  0.00    +0.000 S 
ATOM     14  O   UNL     1       2.478  10.033  17.806  0.00  0.00    +0.000 OA
ATOM     15  O   UNL     1       0.576   8.422  17.483  0.00  0.00    +0.000 OA
BRANCH  13  16
ATOM     16  C   UNL     1       0.927   9.561  19.853  0.00  0.00    +0.000 A 
ATOM     17  C   UNL     1       1.240   8.802  20.985  0.00  0.00    +0.000 A 
ATOM     18  C   UNL     1       0.671   9.124  22.201  0.00  0.00    +0.000 A 
ATOM     19  C   UNL     1      -0.195  10.215  22.289  0.00  0.00    +0.000 A 
ATOM     20  C   UNL     1      -0.472  11.090  21.206  0.00  0.00    +0.000 A 
ATOM     21  C   UNL     1      -1.302  12.274  21.331  0.00  0.00    +0.000 A 
ATOM     22  C   UNL     1      -1.552  13.001  20.149  0.00  0.00    +0.000 A 
ATOM     23  C   UNL     1      -1.042  12.624  18.913  0.00  0.00    +0.000 A 
ATOM     24  C   UNL     1      -0.236  11.507  18.814  0.00  0.00    +0.000 A 
ATOM     25  C   UNL     1       0.087  10.716  19.937  0.00  0.00    +0.000 A 
BRANCH  21  26
ATOM     26  N   UNL     1      -1.853  12.746  22.528  0.00  0.00    +0.000 N 
ATOM     27  C   UNL     1      -3.183  12.343  22.987  0.00  0.00    +0.000 C 
ATOM     28  C   UNL     1      -1.259  13.822  23.314  0.00  0.00    +0.000 C 
ENDBRANCH  21  26
ENDBRANCH  13  16
ENDBRANCH  11  13
ENDBRANCH   1  11
BRANCH   1  29
ATOM     29  C   UNL     1       2.161   5.272  18.757  0.00  0.00    +0.000 C 
BRANCH  29  30
ATOM     30  C   UNL     1       1.427   4.161  18.013  0.00  0.00    +0.000 C 
BRANCH  30  31
ATOM     31  C   UNL     1       1.940   2.755  18.296  0.00  0.00    +0.000 C 
BRANCH  31  32
ATOM     32  N   UNL     1       3.102   2.846  19.184  0.00  0.00    +0.000 NA
ATOM     33  C   UNL     1       3.971   1.901  19.117  0.00  0.00    +0.000 C 
ATOM     34  N   UNL     1       4.015   0.803  18.327  0.00  0.00    +0.000 N 
ATOM     35  N   UNL     1       4.993   1.930  19.993  0.00  0.00    +0.000 N 
ATOM     36  H   UNL     1       3.401   0.789  17.517  0.00  0.00    +0.000 HD
ATOM     37  H   UNL     1       4.928   0.440  18.103  0.00  0.00    +0.000 HD
ATOM     38  H   UNL     1       5.057   2.828  20.456  0.00  0.00    +0.000 HD
ATOM     39  H   UNL     1       5.884   1.570  19.686  0.00  0.00    +0.000 HD
ENDBRANCH  31  32
ENDBRANCH  30  31
ENDBRANCH  29  30
ENDBRANCH   1  29
TORSDOF 13
ENDMDL
MODEL 2
REMARK VINA RESULT:      -7.1      1.160      1.297
REMARK  Name = 
REMARK  16 active torsions:
REMARK  status: ('A' for Active; 'I' for Inactive)
REMARK    1  A    between atoms: C_1  and  O_2
REMARK    2  A    between atoms: O_2  and  C_3
REMARK    3  A    between atoms: C_3  and  C_4
REMARK    4  A    between atoms: C_4  and  C_5
REMARK    5  A    between atoms: C_5  and  N_6
REMARK    6  A    between atoms: C_7  and  C_9
REMARK    7  A    between atoms: C_9  and  C_10
REMARK    8  A    between atoms: C_9  and  N_17
REMARK    9  A    between atoms: C_10  and  C_11
REMARK   10  A    between atoms: C_11  and  C_12
REMARK   11  A    between atoms: C_12  and  N_13
REMARK   12  A    between atoms: N_17  and  S_18
REMARK   13  A    between atoms: S_18  and  C_21
REMARK   14  A    between atoms: C_26  and  N_27
REMARK   15  A    between atoms: N_27  and  C_28
REMARK   16  A    between atoms: N_27  and  C_29
REMARK                            x       y       z     vdW  Elec       q    Type
REMARK                         _______ _______ _______ _____ _____    ______ ____
ROOT
ATOM      1  C   UNL     1       2.426   6.071  18.968  0.00  0.00    +0.000 C 
ENDROOT
BRANCH   1   3
ATOM      2  N   UNL     1       4.830   5.507  19.114  0.00  0.00    +0.000 N 
ATOM      3  C   UNL     1       3.689   5.456  18.330  0.00  0.00    +0.000 C 
ATOM      4  O   UNL     1       3.674   4.943  17.216  0.00  0.00    +0.000 OA
ATOM      5  H   UNL     1       4.796   6.084  19.951  0.00  0.00    +0.000 HD
BRANCH   2   6
ATOM      6  C   UNL     1       6.087   4.890  18.740  0.00  0.00    +0.000 C 
BRANCH   6   7
ATOM      7  C   UNL     1       6.864   5.675  17.684  0.00  0.00    +0.000 C 
BRANCH   7   8
ATOM      8  C   UNL     1       7.454   4.787  16.598  0.00  0.00    +0.000 C 
BRANCH   8  10
ATOM      9  C   UNL     1       6.706   4.758  14.364  0.00  0.00    +0.000 C 
ATOM     10  O   UNL     1       7.427   5.481  15.352  0.00  0.00    +0.000 OA
ENDBRANCH   8  10
ENDBRANCH   7   8
ENDBRANCH   6   7
ENDBRANCH   2   6
ENDBRANCH   1   3
BRANCH   1  11
ATOM     11  N   UNL     1       2.766   7.508  19.192  0.00  0.00    +0.000 NA
ATOM     12  H   UNL     1       3.733   7.763  18.978  0.00  0.00    +0.000 HD
BRANCH  11  13
ATOM     13  S   UNL     1       1.737   8.698  18.576  0.00  0.00    +0.000 S 
ATOM     14  O   UNL     1       2.595   9.730  18.044  0.00  0.00    +0.000 OA
ATOM     15  O   UNL     1       0.768   8.031  17.739  0.00  0.00    +0.000 OA
BRANCH  13  16
ATOM     16  C   UNL     1       0.916   9.387  20.015  0.00  0.00    +0.000 A 
ATOM     17  C   UNL     1       1.218   8.780  21.239  0.00  0.00    +0.000 A 
ATOM     18  C   UNL     1       0.560   9.187  22.382  0.00  0.00    +0.000 A 
ATOM     19  C   UNL     1      -0.382  10.213  22.307  0.00  0.00    +0.000 A 
ATOM     20  C   UNL     1      -0.658  10.944  21.121  0.00  0.00    +0.000 A 
ATOM     21  C   UNL     1      -1.574  12.069  21.073  0.00  0.00    +0.000 A 
ATOM     22  C   UNL     1      -1.807  12.643  19.806  0.00  0.00    +0.000 A 
ATOM     23  C   UNL     1      -1.203  12.175  18.646  0.00  0.00    +0.000 A 
ATOM     24  C   UNL     1      -0.317  11.117  18.711  0.00  0.00    +0.000 A 
ATOM     25  C   UNL     1      -0.004  10.478  19.930  0.00  0.00    +0.000 A 
BRANCH  21  26
ATOM     26  N   UNL     1      -2.223  12.624  22.181  0.00  0.00    +0.000 N 
ATOM     27  C   UNL     1      -3.680  12.631  22.310  0.00  0.00    +0.000 C 
ATOM     28  C   UNL     1      -1.537  13.417  23.196  0.00  0.00    +0.000 C 
ENDBRANCH  21  26
ENDBRANCH  13  16
ENDBRANCH  11  13
ENDBRANCH   1  11
BRANCH   1  29
ATOM     29  C   UNL     1       2.015   5.401  20.282  0.00  0.00    +0.000 C 
BRANCH  29  30
ATOM     30  C   UNL     1       1.081   4.199  20.178  0.00  0.00    +0.000 C 
BRANCH  30  31
ATOM     31  C   UNL     1       1.732   2.929  19.647  0.00  0.00    +0.000 C 
BRANCH  31  32
ATOM     32  N   UNL     1       3.031   2.753  20.304  0.00  0.00    +0.000 NA
ATOM     33  C   UNL     1       3.924   2.079  19.672  0.00  0.00    +0.000 C 
ATOM     34  N   UNL     1       3.884   1.495  18.452  0.00  0.00    +0.000 N 
ATOM     35  N   UNL     1       5.086   1.835  20.307  0.00  0.00    +0.000 N 
ATOM     36  H   UNL     1       3.134   1.777  17.827  0.00  0.00    +0.000 HD
ATOM     37  H   UNL     1       4.760   1.408  17.960  0.00  0.00    +0.000 HD
ATOM     38  H   UNL     1       5.183   2.412  21.133  0.00  0.00    +0.000 HD
ATOM     39  H   UNL     1       5.925   1.787  19.747  0.00  0.00    +0.000 HD
ENDBRANCH  31  32
ENDBRANCH  30  31
ENDBRANCH  29  30
ENDBRANCH   1  29
TORSDOF 13
ENDMDL
MODEL 3
REMARK VINA RESULT:      -6.9      1.963      3.460
REMARK  Name = 
REMARK  16 active torsions:
REMARK  status: ('A' for Active; 'I' for Inactive)
REMARK    1  A    between atoms: C_1  and  O_2
REMARK    2  A    between atoms: O_2  and  C_3
REMARK    3  A    between atoms: C_3  and  C_4
REMARK    4  A    between atoms: C_4  and  C_5
REMARK    5  A    between atoms: C_5  and  N_6
REMARK    6  A    between atoms: C_7  and  C_9
REMARK    7  A    between atoms: C_9  and  C_10
REMARK    8  A    between atoms: C_9  and  N_17
REMARK    9  A    between atoms: C_10  and  C_11
REMARK   10  A    between atoms: C_11  and  C_12
REMARK   11  A    between atoms: C_12  and  N_13
REMARK   12  A    between atoms: N_17  and  S_18
REMARK   13  A    between atoms: S_18  and  C_21
REMARK   14  A    between atoms: C_26  and  N_27
REMARK   15  A    between atoms: N_27  and  C_28
REMARK   16  A    between atoms: N_27  and  C_29
REMARK                            x       y       z     vdW  Elec       q    Type
REMARK                         _______ _______ _______ _____ _____    ______ ____
ROOT
ATOM      1  C   UNL     1       3.335   7.083  18.579  0.00  0.00    +0.000 C 
ENDROOT
BRANCH   1   3
ATOM      2  N   UNL     1       2.356   5.601  20.301  0.00  0.00    +0.000 N 
ATOM      3  C   UNL     1       3.484   5.895  19.551  0.00  0.00    +0.000 C 
ATOM      4  O   UNL     1       4.522   5.247  19.637  0.00  0.00    +0.000 OA
ATOM      5  H   UNL     1       1.596   6.277  20.285  0.00  0.00    +0.000 HD
BRANCH   2   6
ATOM      6  C   UNL     1       2.259   4.460  21.189  0.00  0.00    +0.000 C 
BRANCH   6   7
ATOM      7  C   UNL     1       1.162   3.471  20.799  0.00  0.00    +0.000 C 
BRANCH   7   8
ATOM      8  C   UNL     1       1.118   3.189  19.304  0.00  0.00    +0.000 C 
BRANCH   8  10
ATOM      9  C   UNL     1       2.635   2.269  17.754  0.00  0.00    +0.000 C 
ATOM     10  O   UNL     1       1.981   2.094  19.003  0.00  0.00    +0.000 OA
ENDBRANCH   8  10
ENDBRANCH   7   8
ENDBRANCH   6   7
ENDBRANCH   2   6
ENDBRANCH   1   3
BRANCH   1  11
ATOM     11  N   UNL     1       1.896   7.474  18.663  0.00  0.00    +0.000 NA
ATOM     12  H   UNL     1       1.397   7.117  19.481  0.00  0.00    +0.000 HD
BRANCH  11  13
ATOM     13  S   UNL     1       1.472   9.091  18.425  0.00  0.00    +0.000 S 
ATOM     14  O   UNL     1       2.712   9.801  18.216  0.00  0.00    +0.000 OA
ATOM     15  O   UNL     1       0.424   9.116  17.433  0.00  0.00    +0.000 OA
BRANCH  13  16
ATOM     16  C   UNL     1       0.817   9.633  20.005  0.00  0.00    +0.000 A 
ATOM     17  C   UNL     1       1.127   8.825  21.104  0.00  0.00    +0.000 A 
ATOM     18  C   UNL     1       0.587   9.119  22.340  0.00  0.00    +0.000 A 
ATOM     19  C   UNL     1      -0.246  10.230  22.482  0.00  0.00    +0.000 A 
ATOM     20  C   UNL     1      -0.515  11.151  21.436  0.00  0.00    +0.000 A 
ATOM     21  C   UNL     1      -1.309  12.353  21.617  0.00  0.00    +0.000 A 
ATOM     22  C   UNL     1      -1.557  13.129  20.466  0.00  0.00    +0.000 A 
ATOM     23  C   UNL     1      -1.077  12.783  19.209  0.00  0.00    +0.000 A 
ATOM     24  C   UNL     1      -0.305  11.648  19.056  0.00  0.00    +0.000 A 
ATOM     25  C   UNL     1       0.013  10.808  20.145  0.00  0.00    +0.000 A 
BRANCH  21  26
ATOM     26  N   UNL     1      -1.827  12.796  22.839  0.00  0.00    +0.000 N 
ATOM     27  C   UNL     1      -3.080  12.277  23.390  0.00  0.00    +0.000 C 
ATOM     28  C   UNL     1      -1.292  13.942  23.568  0.00  0.00    +0.000 C 
ENDBRANCH  21  26
ENDBRANCH  13  16
ENDBRANCH  11  13
ENDBRANCH   1  11
BRANCH   1  29
ATOM     29  C   UNL     1       3.721   6.746  17.135  0.00  0.00    +0.000 C 
BRANCH  29  30
ATOM     30  C   UNL     1       5.168   7.012  16.731  0.00  0.00    +0.000 C 
BRANCH  30  31
ATOM     31  C   UNL     1       5.776   5.965  15.808  0.00  0.00    +0.000 C 
BRANCH  31  32
ATOM     32  N   UNL     1       7.064   5.539  16.361  0.00  0.00    +0.000 NA
ATOM     33  C   UNL     1       7.051   4.566  17.202  0.00  0.00    +0.000 C 
ATOM     34  N   UNL     1       6.021   3.824  17.671  0.00  0.00    +0.000 N 
ATOM     35  N   UNL     1       8.218   4.229  17.785  0.00  0.00    +0.000 N 
ATOM     36  H   UNL     1       5.144   3.874  17.161  0.00  0.00    +0.000 HD
ATOM     37  H   UNL     1       6.232   2.879  17.951  0.00  0.00    +0.000 HD
ATOM     38  H   UNL     1       9.003   4.657  17.310  0.00  0.00    +0.000 HD
ATOM     39  H   UNL     1       8.364   3.258  18.013  0.00  0.00    +0.000 HD
ENDBRANCH  31  32
ENDBRANCH  30  31
ENDBRANCH  29  30
ENDBRANCH   1  29
TORSDOF 13
ENDMDL
MODEL 4
REMARK VINA RESULT:      -6.8      1.386      1.921
REMARK  Name = 
REMARK  16 active torsions:
REMARK  status: ('A' for Active; 'I' for Inactive)
REMARK    1  A    between atoms: C_1  and  O_2
REMARK    2  A    between atoms: O_2  and  C_3
REMARK    3  A    between atoms: C_3  and  C_4
REMARK    4  A    between atoms: C_4  and  C_5
REMARK    5  A    between atoms: C_5  and  N_6
REMARK    6  A    between atoms: C_7  and  C_9
REMARK    7  A    between atoms: C_9  and  C_10
REMARK    8  A    between atoms: C_9  and  N_17
REMARK    9  A    between atoms: C_10  and  C_11
REMARK   10  A    between atoms: C_11  and  C_12
REMARK   11  A    between atoms: C_12  and  N_13
REMARK   12  A    between atoms: N_17  and  S_18
REMARK   13  A    between atoms: S_18  and  C_21
REMARK   14  A    between atoms: C_26  and  N_27
REMARK   15  A    between atoms: N_27  and  C_28
REMARK   16  A    between atoms: N_27  and  C_29
REMARK                            x       y       z     vdW  Elec       q    Type
REMARK                         _______ _______ _______ _____ _____    ______ ____
ROOT
ATOM      1  C   UNL     1       2.335   6.052  18.666  0.00  0.00    +0.000 C 
ENDROOT
BRANCH   1   3
ATOM      2  N   UNL     1       3.671   4.668  17.110  0.00  0.00    +0.000 N 
ATOM      3  C   UNL     1       3.688   5.424  18.271  0.00  0.00    +0.000 C 
ATOM      4  O   UNL     1       4.708   5.601  18.930  0.00  0.00    +0.000 OA
ATOM      5  H   UNL     1       2.761   4.443  16.713  0.00  0.00    +0.000 HD
BRANCH   2   6
ATOM      6  C   UNL     1       4.858   4.087  16.515  0.00  0.00    +0.000 C 
BRANCH   6   7
ATOM      7  C   UNL     1       5.736   5.101  15.785  0.00  0.00    +0.000 C 
BRANCH   7   8
ATOM      8  C   UNL     1       7.122   5.239  16.400  0.00  0.00    +0.000 C 
BRANCH   8  10
ATOM      9  C   UNL     1       7.505   7.265  17.540  0.00  0.00    +0.000 C 
ATOM     10  O   UNL     1       7.556   6.594  16.289  0.00  0.00    +0.000 OA
ENDBRANCH   8  10
ENDBRANCH   7   8
ENDBRANCH   6   7
ENDBRANCH   2   6
ENDBRANCH   1   3
BRANCH   1  11
ATOM     11  N   UNL     1       2.668   7.436  19.117  0.00  0.00    +0.000 NA
ATOM     12  H   UNL     1       3.659   7.683  19.064  0.00  0.00    +0.000 HD
BRANCH  11  13
ATOM     13  S   UNL     1       1.749   8.728  18.534  0.00  0.00    +0.000 S 
ATOM     14  O   UNL     1       2.696   9.718  18.080  0.00  0.00    +0.000 OA
ATOM     15  O   UNL     1       0.760   8.178  17.639  0.00  0.00    +0.000 OA
BRANCH  13  16
ATOM     16  C   UNL     1       0.937   9.405  19.984  0.00  0.00    +0.000 A 
ATOM     17  C   UNL     1       1.150   8.716  21.182  0.00  0.00    +0.000 A 
ATOM     18  C   UNL     1       0.489   9.115  22.326  0.00  0.00    +0.000 A 
ATOM     19  C   UNL     1      -0.370  10.214  22.278  0.00  0.00    +0.000 A 
ATOM     20  C   UNL     1      -0.550  11.023  21.124  0.00  0.00    +0.000 A 
ATOM     21  C   UNL     1      -1.376  12.216  21.110  0.00  0.00    +0.000 A 
ATOM     22  C   UNL     1      -1.522  12.871  19.869  0.00  0.00    +0.000 A 
ATOM     23  C   UNL     1      -0.919  12.416  18.704  0.00  0.00    +0.000 A 
ATOM     24  C   UNL     1      -0.118  11.290  18.738  0.00  0.00    +0.000 A 
ATOM     25  C   UNL     1       0.105  10.568  19.930  0.00  0.00    +0.000 A 
BRANCH  21  26
ATOM     26  N   UNL     1      -2.016  12.764  22.227  0.00  0.00    +0.000 N 
ATOM     27  C   UNL     1      -1.293  13.529  23.244  0.00  0.00    +0.000 C 
ATOM     28  C   UNL     1      -3.396  12.457  22.590  0.00  0.00    +0.000 C 
ENDBRANCH  21  26
ENDBRANCH  13  16
ENDBRANCH  11  13
ENDBRANCH   1  11
BRANCH   1  29
ATOM     29  C   UNL     1       1.603   5.284  19.771  0.00  0.00    +0.000 C 
BRANCH  29  30
ATOM     30  C   UNL     1       2.470   4.635  20.847  0.00  0.00    +0.000 C 
BRANCH  30  31
ATOM     31  C   UNL     1       2.310   3.126  20.971  0.00  0.00    +0.000 C 
BRANCH  31  32
ATOM     32  N   UNL     1       3.376   2.473  20.206  0.00  0.00    +0.000 NA
ATOM     33  C   UNL     1       3.039   1.878  19.118  0.00  0.00    +0.000 C 
ATOM     34  N   UNL     1       1.833   1.758  18.519  0.00  0.00    +0.000 N 
ATOM     35  N   UNL     1       3.997   1.197  18.458  0.00  0.00    +0.000 N 
ATOM     36  H   UNL     1       1.095   2.382  18.832  0.00  0.00    +0.000 HD
ATOM     37  H   UNL     1       1.830   1.658  17.516  0.00  0.00    +0.000 HD
ATOM     38  H   UNL     1       4.919   1.431  18.803  0.00  0.00    +0.000 HD
ATOM     39  H   UNL     1       3.939   1.165  17.451  0.00  0.00    +0.000 HD
ENDBRANCH  31  32
ENDBRANCH  30  31
ENDBRANCH  29  30
ENDBRANCH   1  29
TORSDOF 13
ENDMDL
MODEL 5
REMARK VINA RESULT:      -6.8      1.280      1.856
REMARK  Name = 
REMARK  16 active torsions:
REMARK  status: ('A' for Active; 'I' for Inactive)
REMARK    1  A    between atoms: C_1  and  O_2
REMARK    2  A    between atoms: O_2  and  C_3
REMARK    3  A    between atoms: C_3  and  C_4
REMARK    4  A    between atoms: C_4  and  C_5
REMARK    5  A    between atoms: C_5  and  N_6
REMARK    6  A    between atoms: C_7  and  C_9
REMARK    7  A    between atoms: C_9  and  C_10
REMARK    8  A    between atoms: C_9  and  N_17
REMARK    9  A    between atoms: C_10  and  C_11
REMARK   10  A    between atoms: C_11  and  C_12
REMARK   11  A    between atoms: C_12  and  N_13
REMARK   12  A    between atoms: N_17  and  S_18
REMARK   13  A    between atoms: S_18  and  C_21
REMARK   14  A    between atoms: C_26  and  N_27
REMARK   15  A    between atoms: N_27  and  C_28
REMARK   16  A    between atoms: N_27  and  C_29
REMARK                            x       y       z     vdW  Elec       q    Type
REMARK                         _______ _______ _______ _____ _____    ______ ____
ROOT
ATOM      1  C   UNL     1       2.768   6.501  18.344  0.00  0.00    +0.000 C 
ENDROOT
BRANCH   1   3
ATOM      2  N   UNL     1       4.404   4.990  17.265  0.00  0.00    +0.000 N 
ATOM      3  C   UNL     1       3.887   6.275  17.306  0.00  0.00    +0.000 C 
ATOM      4  O   UNL     1       4.275   7.167  16.559  0.00  0.00    +0.000 OA
ATOM      5  H   UNL     1       4.141   4.357  18.018  0.00  0.00    +0.000 HD
BRANCH   2   6
ATOM      6  C   UNL     1       5.382   4.550  16.291  0.00  0.00    +0.000 C 
BRANCH   6   7
ATOM      7  C   UNL     1       6.750   4.238  16.894  0.00  0.00    +0.000 C 
BRANCH   7   8
ATOM      8  C   UNL     1       7.155   5.217  17.988  0.00  0.00    +0.000 C 
BRANCH   8  10
ATOM      9  C   UNL     1       8.036   7.376  18.324  0.00  0.00    +0.000 C 
ATOM     10  O   UNL     1       7.386   6.501  17.412  0.00  0.00    +0.000 OA
ENDBRANCH   8  10
ENDBRANCH   7   8
ENDBRANCH   6   7
ENDBRANCH   2   6
ENDBRANCH   1   3
BRANCH   1  11
ATOM     11  N   UNL     1       2.884   7.939  18.730  0.00  0.00    +0.000 NA
ATOM     12  H   UNL     1       3.796   8.363  18.553  0.00  0.00    +0.000 HD
BRANCH  11  13
ATOM     13  S   UNL     1       1.675   9.015  18.248  0.00  0.00    +0.000 S 
ATOM     14  O   UNL     1       2.358  10.153  17.681  0.00  0.00    +0.000 OA
ATOM     15  O   UNL     1       0.717   8.261  17.476  0.00  0.00    +0.000 OA
BRANCH  13  16
ATOM     16  C   UNL     1       0.914   9.568  19.775  0.00  0.00    +0.000 A 
ATOM     17  C   UNL     1       1.217   8.816  20.916  0.00  0.00    +0.000 A 
ATOM     18  C   UNL     1       0.602   9.117  22.114  0.00  0.00    +0.000 A 
ATOM     19  C   UNL     1      -0.301  10.179  22.178  0.00  0.00    +0.000 A 
ATOM     20  C   UNL     1      -0.573  11.048  21.088  0.00  0.00    +0.000 A 
ATOM     21  C   UNL     1      -1.444  12.205  21.190  0.00  0.00    +0.000 A 
ATOM     22  C   UNL     1      -1.681  12.927  20.002  0.00  0.00    +0.000 A 
ATOM     23  C   UNL     1      -1.122  12.569  18.782  0.00  0.00    +0.000 A 
ATOM     24  C   UNL     1      -0.278  11.479  18.705  0.00  0.00    +0.000 A 
ATOM     25  C   UNL     1       0.036  10.695  19.837  0.00  0.00    +0.000 A 
BRANCH  21  26
ATOM     26  N   UNL     1      -2.046  12.656  22.370  0.00  0.00    +0.000 N 
ATOM     27  C   UNL     1      -3.471  12.464  22.642  0.00  0.00    +0.000 C 
ATOM     28  C   UNL     1      -1.374  13.524  23.331  0.00  0.00    +0.000 C 
ENDBRANCH  21  26
ENDBRANCH  13  16
ENDBRANCH  11  13
ENDBRANCH   1  11
BRANCH   1  29
ATOM     29  C   UNL     1       2.884   5.598  19.576  0.00  0.00    +0.000 C 
BRANCH  29  30
ATOM     30  C   UNL     1       1.818   4.518  19.738  0.00  0.00    +0.000 C 
BRANCH  30  31
ATOM     31  C   UNL     1       2.288   3.258  20.451  0.00  0.00    +0.000 C 
BRANCH  31  32
ATOM     32  N   UNL     1       2.495   2.201  19.456  0.00  0.00    +0.000 NA
ATOM     33  C   UNL     1       3.709   1.895  19.168  0.00  0.00    +0.000 C 
ATOM     34  N   UNL     1       4.877   2.378  19.651  0.00  0.00    +0.000 N 
ATOM     35  N   UNL     1       3.908   0.991  18.189  0.00  0.00    +0.000 N 
ATOM     36  H   UNL     1       4.835   2.917  20.511  0.00  0.00    +0.000 HD
ATOM     37  H   UNL     1       5.666   1.750  19.647  0.00  0.00    +0.000 HD
ATOM     38  H   UNL     1       3.050   0.506  17.955  0.00  0.00    +0.000 HD
ATOM     39  H   UNL     1       4.707   0.381  18.269  0.00  0.00    +0.000 HD
ENDBRANCH  31  32
ENDBRANCH  30  31
ENDBRANCH  29  30
ENDBRANCH   1  29
TORSDOF 13
ENDMDL
MODEL 6
REMARK VINA RESULT:      -6.8      2.721      4.885
REMARK  Name = 
REMARK  16 active torsions:
REMARK  status: ('A' for Active; 'I' for Inactive)
REMARK    1  A    between atoms: C_1  and  O_2
REMARK    2  A    between atoms: O_2  and  C_3
REMARK    3  A    between atoms: C_3  and  C_4
REMARK    4  A    between atoms: C_4  and  C_5
REMARK    5  A    between atoms: C_5  and  N_6
REMARK    6  A    between atoms: C_7  and  C_9
REMARK    7  A    between atoms: C_9  and  C_10
REMARK    8  A    between atoms: C_9  and  N_17
REMARK    9  A    between atoms: C_10  and  C_11
REMARK   10  A    between atoms: C_11  and  C_12
REMARK   11  A    between atoms: C_12  and  N_13
REMARK   12  A    between atoms: N_17  and  S_18
REMARK   13  A    between atoms: S_18  and  C_21
REMARK   14  A    between atoms: C_26  and  N_27
REMARK   15  A    between atoms: N_27  and  C_28
REMARK   16  A    between atoms: N_27  and  C_29
REMARK                            x       y       z     vdW  Elec       q    Type
REMARK                         _______ _______ _______ _____ _____    ______ ____
ROOT
ATOM      1  C   UNL     1       4.918   5.672  18.527  0.00  0.00    +0.000 C 
ENDROOT
BRANCH   1   3
ATOM      2  N   UNL     1       3.822   3.519  17.996  0.00  0.00    +0.000 N 
ATOM      3  C   UNL     1       4.650   4.193  18.878  0.00  0.00    +0.000 C 
ATOM      4  O   UNL     1       5.153   3.653  19.858  0.00  0.00    +0.000 OA
ATOM      5  H   UNL     1       3.325   4.076  17.303  0.00  0.00    +0.000 HD
BRANCH   2   6
ATOM      6  C   UNL     1       3.536   2.101  18.090  0.00  0.00    +0.000 C 
BRANCH   6   7
ATOM      7  C   UNL     1       2.049   1.768  17.989  0.00  0.00    +0.000 C 
BRANCH   7   8
ATOM      8  C   UNL     1       1.266   2.152  19.237  0.00  0.00    +0.000 C 
BRANCH   8  10
ATOM      9  C   UNL     1       1.485   2.652  21.529  0.00  0.00    +0.000 C 
ATOM     10  O   UNL     1       2.163   2.270  20.340  0.00  0.00    +0.000 OA
ENDBRANCH   8  10
ENDBRANCH   7   8
ENDBRANCH   6   7
ENDBRANCH   2   6
ENDBRANCH   1   3
BRANCH   1  11
ATOM     11  N   UNL     1       4.076   6.454  19.481  0.00  0.00    +0.000 NA
ATOM     12  H   UNL     1       4.364   7.425  19.618  0.00  0.00    +0.000 HD
BRANCH  11  13
ATOM     13  S   UNL     1       2.395   6.398  19.323  0.00  0.00    +0.000 S 
ATOM     14  O   UNL     1       2.136   5.755  18.056  0.00  0.00    +0.000 OA
ATOM     15  O   UNL     1       1.869   5.858  20.554  0.00  0.00    +0.000 OA
BRANCH  13  16
ATOM     16  C   UNL     1       1.891   8.112  19.155  0.00  0.00    +0.000 A 
ATOM     17  C   UNL     1       2.202   8.723  17.936  0.00  0.00    +0.000 A 
ATOM     18  C   UNL     1       1.933  10.065  17.758  0.00  0.00    +0.000 A 
ATOM     19  C   UNL     1       1.335  10.791  18.789  0.00  0.00    +0.000 A 
ATOM     20  C   UNL     1       0.896  10.211  20.008  0.00  0.00    +0.000 A 
ATOM     21  C   UNL     1       0.194  10.956  21.037  0.00  0.00    +0.000 A 
ATOM     22  C   UNL     1      -0.107  10.263  22.228  0.00  0.00    +0.000 A 
ATOM     23  C   UNL     1       0.240   8.934  22.432  0.00  0.00    +0.000 A 
ATOM     24  C   UNL     1       0.889   8.232  21.435  0.00  0.00    +0.000 A 
ATOM     25  C   UNL     1       1.226   8.827  20.200  0.00  0.00    +0.000 A 
BRANCH  21  26
ATOM     26  N   UNL     1      -0.211  12.291  20.927  0.00  0.00    +0.000 N 
ATOM     27  C   UNL     1      -1.441  12.678  20.235  0.00  0.00    +0.000 C 
ATOM     28  C   UNL     1       0.636  13.419  21.300  0.00  0.00    +0.000 C 
ENDBRANCH  21  26
ENDBRANCH  13  16
ENDBRANCH  11  13
ENDBRANCH   1  11
BRANCH   1  29
ATOM     29  C   UNL     1       4.572   6.031  17.079  0.00  0.00    +0.000 C 
BRANCH  29  30
ATOM     30  C   UNL     1       5.713   5.980  16.068  0.00  0.00    +0.000 C 
BRANCH  30  31
ATOM     31  C   UNL     1       7.109   6.048  16.674  0.00  0.00    +0.000 C 
BRANCH  31  32
ATOM     32  N   UNL     1       7.492   7.455  16.821  0.00  0.00    +0.000 NA
ATOM     33  C   UNL     1       8.037   7.804  17.931  0.00  0.00    +0.000 C 
ATOM     34  N   UNL     1       8.350   7.072  19.025  0.00  0.00    +0.000 N 
ATOM     35  N   UNL     1       8.307   9.112  18.109  0.00  0.00    +0.000 N 
ATOM     36  H   UNL     1       8.360   6.061  18.920  0.00  0.00    +0.000 HD
ATOM     37  H   UNL     1       9.129   7.391  19.579  0.00  0.00    +0.000 HD
ATOM     38  H   UNL     1       8.239   9.624  17.239  0.00  0.00    +0.000 HD
ATOM     39  H   UNL     1       9.120   9.352  18.656  0.00  0.00    +0.000 HD
ENDBRANCH  31  32
ENDBRANCH  30  31
ENDBRANCH  29  30
ENDBRANCH   1  29
TORSDOF 13
ENDMDL
MODEL 7
REMARK VINA RESULT:      -6.7      2.246      3.793
REMARK  Name = 
REMARK  16 active torsions:
REMARK  status: ('A' for Active; 'I' for Inactive)
REMARK    1  A    between atoms: C_1  and  O_2
REMARK    2  A    between atoms: O_2  and  C_3
REMARK    3  A    between atoms: C_3  and  C_4
REMARK    4  A    between atoms: C_4  and  C_5
REMARK    5  A    between atoms: C_5  and  N_6
REMARK    6  A    between atoms: C_7  and  C_9
REMARK    7  A    between atoms: C_9  and  C_10
REMARK    8  A    between atoms: C_9  and  N_17
REMARK    9  A    between atoms: C_10  and  C_11
REMARK   10  A    between atoms: C_11  and  C_12
REMARK   11  A    between atoms: C_12  and  N_13
REMARK   12  A    between atoms: N_17  and  S_18
REMARK   13  A    between atoms: S_18  and  C_21
REMARK   14  A    between atoms: C_26  and  N_27
REMARK   15  A    between atoms: N_27  and  C_28
REMARK   16  A    between atoms: N_27  and  C_29
REMARK                            x       y       z     vdW  Elec       q    Type
REMARK                         _______ _______ _______ _____ _____    ______ ____
ROOT
ATOM      1  C   UNL     1       3.623   6.626  18.730  0.00  0.00    +0.000 C 
ENDROOT
BRANCH   1   3
ATOM      2  N   UNL     1       2.509   5.288  20.488  0.00  0.00    +0.000 N 
ATOM      3  C   UNL     1       3.628   5.409  19.679  0.00  0.00    +0.000 C 
ATOM      4  O   UNL     1       4.549   4.600  19.699  0.00  0.00    +0.000 OA
ATOM      5  H   UNL     1       1.871   6.079  20.523  0.00  0.00    +0.000 HD
BRANCH   2   6
ATOM      6  C   UNL     1       2.276   4.160  21.368  0.00  0.00    +0.000 C 
BRANCH   6   7
ATOM      7  C   UNL     1       1.165   3.228  20.886  0.00  0.00    +0.000 C 
BRANCH   7   8
ATOM      8  C   UNL     1       1.591   2.349  19.718  0.00  0.00    +0.000 C 
BRANCH   8  10
ATOM      9  C   UNL     1       2.446   2.782  17.566  0.00  0.00    +0.000 C 
ATOM     10  O   UNL     1       1.411   3.065  18.498  0.00  0.00    +0.000 OA
ENDBRANCH   8  10
ENDBRANCH   7   8
ENDBRANCH   6   7
ENDBRANCH   2   6
ENDBRANCH   1   3
BRANCH   1  11
ATOM     11  N   UNL     1       2.187   7.018  18.612  0.00  0.00    +0.000 NA
ATOM     12  H   UNL     1       1.582   6.682  19.365  0.00  0.00    +0.000 HD
BRANCH  11  13
ATOM     13  S   UNL     1       1.804   8.630  18.281  0.00  0.00    +0.000 S 
ATOM     14  O   UNL     1       3.063   9.302  18.065  0.00  0.00    +0.000 OA
ATOM     15  O   UNL     1       0.779   8.624  17.265  0.00  0.00    +0.000 OA
BRANCH  13  16
ATOM     16  C   UNL     1       1.126   9.267  19.815  0.00  0.00    +0.000 A 
ATOM     17  C   UNL     1       1.397   8.514  20.962  0.00  0.00    +0.000 A 
ATOM     18  C   UNL     1       0.836   8.882  22.168  0.00  0.00    +0.000 A 
ATOM     19  C   UNL     1       0.021  10.014  22.232  0.00  0.00    +0.000 A 
ATOM     20  C   UNL     1      -0.209  10.882  21.133  0.00  0.00    +0.000 A 
ATOM     21  C   UNL     1      -0.984  12.105  21.232  0.00  0.00    +0.000 A 
ATOM     22  C   UNL     1      -1.194  12.822  20.036  0.00  0.00    +0.000 A 
ATOM     23  C   UNL     1      -0.694  12.401  18.811  0.00  0.00    +0.000 A 
ATOM     24  C   UNL     1       0.061  11.247  18.736  0.00  0.00    +0.000 A 
ATOM     25  C   UNL     1       0.340  10.461  19.875  0.00  0.00    +0.000 A 
BRANCH  21  26
ATOM     26  N   UNL     1      -1.520  12.622  22.417  0.00  0.00    +0.000 N 
ATOM     27  C   UNL     1      -0.942  13.784  23.093  0.00  0.00    +0.000 C 
ATOM     28  C   UNL     1      -2.557  11.945  23.190  0.00  0.00    +0.000 C 
ENDBRANCH  21  26
ENDBRANCH  13  16
ENDBRANCH  11  13
ENDBRANCH   1  11
BRANCH   1  29
ATOM     29  C   UNL     1       4.218   6.329  17.351  0.00  0.00    +0.000 C 
BRANCH  29  30
ATOM     30  C   UNL     1       5.504   7.065  16.985  0.00  0.00    +0.000 C 
BRANCH  30  31
ATOM     31  C   UNL     1       6.717   6.168  16.781  0.00  0.00    +0.000 C 
BRANCH  31  32
ATOM     32  N   UNL     1       7.016   5.484  18.043  0.00  0.00    +0.000 NA
ATOM     33  C   UNL     1       7.781   6.093  18.876  0.00  0.00    +0.000 C 
ATOM     34  N   UNL     1       8.368   7.310  18.802  0.00  0.00    +0.000 N 
ATOM     35  N   UNL     1       8.135   5.434  19.996  0.00  0.00    +0.000 N 
ATOM     36  H   UNL     1       8.018   7.952  18.096  0.00  0.00    +0.000 HD
ATOM     37  H   UNL     1       8.546   7.783  19.674  0.00  0.00    +0.000 HD
ATOM     38  H   UNL     1       7.563   4.609  20.134  0.00  0.00    +0.000 HD
ATOM     39  H   UNL     1       8.271   5.975  20.836  0.00  0.00    +0.000 HD
ENDBRANCH  31  32
ENDBRANCH  30  31
ENDBRANCH  29  30
ENDBRANCH   1  29
TORSDOF 13
ENDMDL
MODEL 8
REMARK VINA RESULT:      -6.7      3.267      5.649
REMARK  Name = 
REMARK  16 active torsions:
REMARK  status: ('A' for Active; 'I' for Inactive)
REMARK    1  A    between atoms: C_1  and  O_2
REMARK    2  A    between atoms: O_2  and  C_3
REMARK    3  A    between atoms: C_3  and  C_4
REMARK    4  A    between atoms: C_4  and  C_5
REMARK    5  A    between atoms: C_5  and  N_6
REMARK    6  A    between atoms: C_7  and  C_9
REMARK    7  A    between atoms: C_9  and  C_10
REMARK    8  A    between atoms: C_9  and  N_17
REMARK    9  A    between atoms: C_10  and  C_11
REMARK   10  A    between atoms: C_11  and  C_12
REMARK   11  A    between atoms: C_12  and  N_13
REMARK   12  A    between atoms: N_17  and  S_18
REMARK   13  A    between atoms: S_18  and  C_21
REMARK   14  A    between atoms: C_26  and  N_27
REMARK   15  A    between atoms: N_27  and  C_28
REMARK   16  A    between atoms: N_27  and  C_29
REMARK                            x       y       z     vdW  Elec       q    Type
REMARK                         _______ _______ _______ _____ _____    ______ ____
ROOT
ATOM      1  C   UNL     1       5.499   5.619  18.476  0.00  0.00    +0.000 C 
ENDROOT
BRANCH   1   3
ATOM      2  N   UNL     1       4.898   3.465  19.533  0.00  0.00    +0.000 N 
ATOM      3  C   UNL     1       5.014   4.161  18.340  0.00  0.00    +0.000 C 
ATOM      4  O   UNL     1       4.734   3.664  17.255  0.00  0.00    +0.000 OA
ATOM      5  H   UNL     1       5.297   3.894  20.365  0.00  0.00    +0.000 HD
BRANCH   2   6
ATOM      6  C   UNL     1       4.358   2.123  19.627  0.00  0.00    +0.000 C 
BRANCH   6   7
ATOM      7  C   UNL     1       2.877   2.083  19.999  0.00  0.00    +0.000 C 
BRANCH   7   8
ATOM      8  C   UNL     1       2.596   2.646  21.385  0.00  0.00    +0.000 C 
BRANCH   8  10
ATOM      9  C   UNL     1       0.719   3.257  20.100  0.00  0.00    +0.000 C 
ATOM     10  O   UNL     1       1.340   3.321  21.376  0.00  0.00    +0.000 OA
ENDBRANCH   8  10
ENDBRANCH   7   8
ENDBRANCH   6   7
ENDBRANCH   2   6
ENDBRANCH   1   3
BRANCH   1  11
ATOM     11  N   UNL     1       4.347   6.454  18.022  0.00  0.00    +0.000 NA
ATOM     12  H   UNL     1       4.172   6.440  17.015  0.00  0.00    +0.000 HD
BRANCH  11  13
ATOM     13  S   UNL     1       2.873   6.324  18.836  0.00  0.00    +0.000 S 
ATOM     14  O   UNL     1       2.027   5.506  18.001  0.00  0.00    +0.000 OA
ATOM     15  O   UNL     1       3.169   5.943  20.196  0.00  0.00    +0.000 OA
BRANCH  13  16
ATOM     16  C   UNL     1       2.187   7.982  18.813  0.00  0.00    +0.000 A 
ATOM     17  C   UNL     1       2.490   8.753  17.685  0.00  0.00    +0.000 A 
ATOM     18  C   UNL     1       2.080  10.069  17.629  0.00  0.00    +0.000 A 
ATOM     19  C   UNL     1       1.351  10.610  18.689  0.00  0.00    +0.000 A 
ATOM     20  C   UNL     1       0.917   9.857  19.812  0.00  0.00    +0.000 A 
ATOM     21  C   UNL     1       0.082  10.406  20.865  0.00  0.00    +0.000 A 
ATOM     22  C   UNL     1      -0.200   9.559  21.957  0.00  0.00    +0.000 A 
ATOM     23  C   UNL     1       0.284   8.261  22.045  0.00  0.00    +0.000 A 
ATOM     24  C   UNL     1       1.060   7.745  21.024  0.00  0.00    +0.000 A 
ATOM     25  C   UNL     1       1.392   8.504  19.881  0.00  0.00    +0.000 A 
BRANCH  21  26
ATOM     26  N   UNL     1      -0.465  11.694  20.866  0.00  0.00    +0.000 N 
ATOM     27  C   UNL     1      -1.715  12.011  20.173  0.00  0.00    +0.000 C 
ATOM     28  C   UNL     1       0.243  12.865  21.371  0.00  0.00    +0.000 C 
ENDBRANCH  21  26
ENDBRANCH  13  16
ENDBRANCH  11  13
ENDBRANCH   1  11
BRANCH   1  29
ATOM     29  C   UNL     1       6.751   5.928  17.649  0.00  0.00    +0.000 C 
BRANCH  29  30
ATOM     30  C   UNL     1       7.022   7.396  17.335  0.00  0.00    +0.000 C 
BRANCH  30  31
ATOM     31  C   UNL     1       8.123   8.036  18.171  0.00  0.00    +0.000 C 
BRANCH  31  32
ATOM     32  N   UNL     1       8.314   9.418  17.722  0.00  0.00    +0.000 NA
ATOM     33  C   UNL     1       8.911  10.221  18.529  0.00  0.00    +0.000 C 
ATOM     34  N   UNL     1       9.434  10.005  19.758  0.00  0.00    +0.000 N 
ATOM     35  N   UNL     1       9.009  11.514  18.163  0.00  0.00    +0.000 N 
ATOM     36  H   UNL     1       9.577   9.039  20.038  0.00  0.00    +0.000 HD
ATOM     37  H   UNL     1      10.210  10.586  20.031  0.00  0.00    +0.000 HD
ATOM     38  H   UNL     1       8.782  11.638  17.184  0.00  0.00    +0.000 HD
ATOM     39  H   UNL     1       9.829  12.023  18.455  0.00  0.00    +0.000 HD
ENDBRANCH  31  32
ENDBRANCH  30  31
ENDBRANCH  29  30
ENDBRANCH   1  29
TORSDOF 13
ENDMDL
MODEL 9
REMARK VINA RESULT:      -6.7      2.037      3.250
REMARK  Name = 
REMARK  16 active torsions:
REMARK  status: ('A' for Active; 'I' for Inactive)
REMARK    1  A    between atoms: C_1  and  O_2
REMARK    2  A    between atoms: O_2  and  C_3
REMARK    3  A    between atoms: C_3  and  C_4
REMARK    4  A    between atoms: C_4  and  C_5
REMARK    5  A    between atoms: C_5  and  N_6
REMARK    6  A    between atoms: C_7  and  C_9
REMARK    7  A    between atoms: C_9  and  C_10
REMARK    8  A    between atoms: C_9  and  N_17
REMARK    9  A    between atoms: C_10  and  C_11
REMARK   10  A    between atoms: C_11  and  C_12
REMARK   11  A    between atoms: C_12  and  N_13
REMARK   12  A    between atoms: N_17  and  S_18
REMARK   13  A    between atoms: S_18  and  C_21
REMARK   14  A    between atoms: C_26  and  N_27
REMARK   15  A    between atoms: N_27  and  C_28
REMARK   16  A    between atoms: N_27  and  C_29
REMARK                            x       y       z     vdW  Elec       q    Type
REMARK                         _______ _______ _______ _____ _____    ______ ____
ROOT
ATOM      1  C   UNL     1       4.432   4.777  17.990  0.00  0.00    +0.000 C 
ENDROOT
BRANCH   1   3
ATOM      2  N   UNL     1       5.881   4.188  16.073  0.00  0.00    +0.000 N 
ATOM      3  C   UNL     1       5.095   5.171  16.654  0.00  0.00    +0.000 C 
ATOM      4  O   UNL     1       4.921   6.270  16.137  0.00  0.00    +0.000 OA
ATOM      5  H   UNL     1       6.099   3.371  16.638  0.00  0.00    +0.000 HD
BRANCH   2   6
ATOM      6  C   UNL     1       6.500   4.325  14.770  0.00  0.00    +0.000 C 
BRANCH   6   7
ATOM      7  C   UNL     1       5.565   3.990  13.609  0.00  0.00    +0.000 C 
BRANCH   7   8
ATOM      8  C   UNL     1       6.293   3.398  12.410  0.00  0.00    +0.000 C 
BRANCH   8  10
ATOM      9  C   UNL     1       4.212   3.171  11.331  0.00  0.00    +0.000 C 
ATOM     10  O   UNL     1       5.415   2.518  11.711  0.00  0.00    +0.000 OA
ENDBRANCH   8  10
ENDBRANCH   7   8
ENDBRANCH   6   7
ENDBRANCH   2   6
ENDBRANCH   1   3
BRANCH   1  11
ATOM     11  N   UNL     1       3.989   6.067  18.597  0.00  0.00    +0.000 NA
ATOM     12  H   UNL     1       4.176   6.899  18.033  0.00  0.00    +0.000 HD
BRANCH  11  13
ATOM     13  S   UNL     1       2.430   6.178  19.238  0.00  0.00    +0.000 S 
ATOM     14  O   UNL     1       1.582   5.411  18.356  0.00  0.00    +0.000 OA
ATOM     15  O   UNL     1       2.523   5.861  20.643  0.00  0.00    +0.000 OA
BRANCH  13  16
ATOM     16  C   UNL     1       1.972   7.901  19.040  0.00  0.00    +0.000 A 
ATOM     17  C   UNL     1       2.409   8.518  17.863  0.00  0.00    +0.000 A 
ATOM     18  C   UNL     1       2.180   9.865  17.673  0.00  0.00    +0.000 A 
ATOM     19  C   UNL     1       1.496  10.592  18.649  0.00  0.00    +0.000 A 
ATOM     20  C   UNL     1       0.933  10.009  19.815  0.00  0.00    +0.000 A 
ATOM     21  C   UNL     1       0.146  10.757  20.779  0.00  0.00    +0.000 A 
ATOM     22  C   UNL     1      -0.280  10.059  21.928  0.00  0.00    +0.000 A 
ATOM     23  C   UNL     1       0.025   8.722  22.150  0.00  0.00    +0.000 A 
ATOM     24  C   UNL     1       0.756   8.018  21.213  0.00  0.00    +0.000 A 
ATOM     25  C   UNL     1       1.221   8.618  20.023  0.00  0.00    +0.000 A 
BRANCH  21  26
ATOM     26  N   UNL     1      -0.225  12.099  20.644  0.00  0.00    +0.000 N 
ATOM     27  C   UNL     1       0.543  13.186  21.251  0.00  0.00    +0.000 C 
ATOM     28  C   UNL     1      -1.499  12.525  20.073  0.00  0.00    +0.000 C 
ENDBRANCH  21  26
ENDBRANCH  13  16
ENDBRANCH  11  13
ENDBRANCH   1  11
BRANCH   1  29
ATOM     29  C   UNL     1       5.367   4.023  18.940  0.00  0.00    +0.000 C 
BRANCH  29  30
ATOM     30  C   UNL     1       4.708   3.161  20.012  0.00  0.00    +0.000 C 
BRANCH  30  31
ATOM     31  C   UNL     1       3.856   2.017  19.477  0.00  0.00    +0.000 C 
BRANCH  31  32
ATOM     32  N   UNL     1       2.456   2.451  19.436  0.00  0.00    +0.000 NA
ATOM     33  C   UNL     1       1.904   2.764  20.553  0.00  0.00    +0.000 C 
ATOM     34  N   UNL     1       2.409   2.785  21.808  0.00  0.00    +0.000 N 
ATOM     35  N   UNL     1       0.593   3.075  20.535  0.00  0.00    +0.000 N 
ATOM     36  H   UNL     1       3.420   2.751  21.902  0.00  0.00    +0.000 HD
ATOM     37  H   UNL     1       2.002   3.445  22.452  0.00  0.00    +0.000 HD
ATOM     38  H   UNL     1       0.264   3.230  19.591  0.00  0.00    +0.000 HD
ATOM     39  H   UNL     1       0.266   3.764  21.195  0.00  0.00    +0.000 HD
ENDBRANCH  31  32
ENDBRANCH  30  31
ENDBRANCH  29  30
ENDBRANCH   1  29
TORSDOF 13
ENDMDL
