MODEL 1
REMARK VINA RESULT:      -6.3      0.000      0.000
REMARK  Name = 
REMARK  0 active torsions:
REMARK  status: ('A' for Active; 'I' for Inactive)
REMARK                            x       y       z     vdW  Elec       q    Type
REMARK                         _______ _______ _______ _____ _____    ______ ____
ROOT
ATOM      1  O   UNL     1       3.036   1.519  18.921  0.00  0.00    +0.000 OA
ATOM      2  S   UNL     1       3.734   2.450  19.772  0.00  0.00    +0.000 S 
ATOM      3  O   UNL     1       5.090   2.211  20.220  0.00  0.00    +0.000 OA
ATOM      4  N   UNL     1       2.846   2.691  21.185  0.00  0.00    +0.000 NA
ATOM      5  C   UNL     1       1.385   2.831  21.067  0.00  0.00    +0.000 C 
ATOM      6  C   UNL     1       0.968   4.120  20.367  0.00  0.00    +0.000 C 
ATOM      7  O   UNL     1       1.276   4.089  18.968  0.00  0.00    +0.000 OA
ATOM      8  C   UNL     1       2.489   4.664  18.719  0.00  0.00    +0.000 A 
ATOM      9  C   UNL     1       2.483   5.915  18.100  0.00  0.00    +0.000 A 
ATOM     10  C   UNL     1       3.687   6.573  17.840  0.00  0.00    +0.000 A 
ATOM     11  C   UNL     1       4.900   5.972  18.176  0.00  0.00    +0.000 A 
ATOM     12  C   UNL     1       4.910   4.706  18.761  0.00  0.00    +0.000 A 
ATOM     13  C   UNL     1       3.701   4.049  19.025  0.00  0.00    +0.000 A 
ATOM     14  H   UNL     1       3.327   3.297  21.848  0.00  0.00    +0.000 HD
ENDROOT
TORSDOF 0
ENDMDL
MODEL 2
REMARK VINA RESULT:      -6.3      3.869      5.243
REMARK  Name = 
REMARK  0 active torsions:
REMARK  status: ('A' for Active; 'I' for Inactive)
REMARK                            x       y       z     vdW  Elec       q    Type
REMARK                         _______ _______ _______ _____ _____    ______ ____
ROOT
ATOM      1  O   UNL     1       7.820   4.533  16.007  0.00  0.00    +0.000 OA
ATOM      2  S   UNL     1       6.630   5.345  16.048  0.00  0.00    +0.000 S 
ATOM      3  O   UNL     1       5.963   5.787  14.841  0.00  0.00    +0.000 OA
ATOM      4  N   UNL     1       6.944   6.757  16.913  0.00  0.00    +0.000 NA
ATOM      5  C   UNL     1       7.743   6.649  18.146  0.00  0.00    +0.000 C 
ATOM      6  C   UNL     1       7.013   5.908  19.261  0.00  0.00    +0.000 C 
ATOM      7  O   UNL     1       6.892   4.509  18.981  0.00  0.00    +0.000 OA
ATOM      8  C   UNL     1       5.697   4.229  18.382  0.00  0.00    +0.000 A 
ATOM      9  C   UNL     1       4.740   3.568  19.152  0.00  0.00    +0.000 A 
ATOM     10  C   UNL     1       3.488   3.274  18.611  0.00  0.00    +0.000 A 
ATOM     11  C   UNL     1       3.197   3.618  17.292  0.00  0.00    +0.000 A 
ATOM     12  C   UNL     1       4.164   4.246  16.507  0.00  0.00    +0.000 A 
ATOM     13  C   UNL     1       5.420   4.543  17.053  0.00  0.00    +0.000 A 
ATOM     14  H   UNL     1       6.150   7.394  16.919  0.00  0.00    +0.000 HD
ENDROOT
TORSDOF 0
ENDMDL
MODEL 3
REMARK VINA RESULT:      -6.1      3.376      4.626
REMARK  Name = 
REMARK  0 active torsions:
REMARK  status: ('A' for Active; 'I' for Inactive)
REMARK                            x       y       z     vdW  Elec       q    Type
REMARK                         _______ _______ _______ _____ _____    ______ ____
ROOT
ATOM      1  O   UNL     1       6.000   6.516  17.924  0.00  0.00    +0.000 OA
ATOM      2  S   UNL     1       6.281   5.219  18.487  0.00  0.00    +0.000 S 
ATOM      3  O   UNL     1       6.820   5.064  19.822  0.00  0.00    +0.000 OA
ATOM      4  N   UNL     1       7.358   4.395  17.485  0.00  0.00    +0.000 NA
ATOM      5  C   UNL     1       7.151   4.481  16.029  0.00  0.00    +0.000 C 
ATOM      6  C   UNL     1       5.886   3.766  15.567  0.00  0.00    +0.000 C 
ATOM      7  O   UNL     1       4.702   4.461  15.976  0.00  0.00    +0.000 OA
ATOM      8  C   UNL     1       4.225   3.967  17.157  0.00  0.00    +0.000 A 
ATOM      9  C   UNL     1       3.060   3.201  17.100  0.00  0.00    +0.000 A 
ATOM     10  C   UNL     1       2.532   2.644  18.266  0.00  0.00    +0.000 A 
ATOM     11  C   UNL     1       3.153   2.870  19.494  0.00  0.00    +0.000 A 
ATOM     12  C   UNL     1       4.297   3.665  19.558  0.00  0.00    +0.000 A 
ATOM     13  C   UNL     1       4.828   4.221  18.387  0.00  0.00    +0.000 A 
ATOM     14  H   UNL     1       7.635   3.494  17.870  0.00  0.00    +0.000 HD
ENDROOT
TORSDOF 0
ENDMDL
MODEL 4
REMARK VINA RESULT:      -6.1      3.358      4.477
REMARK  Name = 
REMARK  0 active torsions:
REMARK  status: ('A' for Active; 'I' for Inactive)
REMARK                            x       y       z     vdW  Elec       q    Type
REMARK                         _______ _______ _______ _____ _____    ______ ____
ROOT
ATOM      1  O   UNL     1       6.760   6.794  17.890  0.00  0.00    +0.000 OA
ATOM      2  S   UNL     1       6.618   5.556  18.615  0.00  0.00    +0.000 S 
ATOM      3  O   UNL     1       7.114   5.398  19.966  0.00  0.00    +0.000 OA
ATOM      4  N   UNL     1       7.337   4.308  17.739  0.00  0.00    +0.000 NA
ATOM      5  C   UNL     1       7.128   4.277  16.281  0.00  0.00    +0.000 C 
ATOM      6  C   UNL     1       5.686   3.965  15.896  0.00  0.00    +0.000 C 
ATOM      7  O   UNL     1       4.806   5.054  16.198  0.00  0.00    +0.000 OA
ATOM      8  C   UNL     1       4.228   4.893  17.425  0.00  0.00    +0.000 A 
ATOM      9  C   UNL     1       2.876   4.551  17.450  0.00  0.00    +0.000 A 
ATOM     10  C   UNL     1       2.228   4.345  18.669  0.00  0.00    +0.000 A 
ATOM     11  C   UNL     1       2.924   4.504  19.867  0.00  0.00    +0.000 A 
ATOM     12  C   UNL     1       4.266   4.882  19.846  0.00  0.00    +0.000 A 
ATOM     13  C   UNL     1       4.916   5.085  18.622  0.00  0.00    +0.000 A 
ATOM     14  H   UNL     1       7.316   3.420  18.238  0.00  0.00    +0.000 HD
ENDROOT
TORSDOF 0
ENDMDL
MODEL 5
REMARK VINA RESULT:      -6.1      3.770      4.939
REMARK  Name = 
REMARK  0 active torsions:
REMARK  status: ('A' for Active; 'I' for Inactive)
REMARK                            x       y       z     vdW  Elec       q    Type
REMARK                         _______ _______ _______ _____ _____    ______ ____
ROOT
ATOM      1  O   UNL     1       7.436   6.784  17.448  0.00  0.00    +0.000 OA
ATOM      2  S   UNL     1       7.317   5.389  17.790  0.00  0.00    +0.000 S 
ATOM      3  O   UNL     1       8.086   4.795  18.864  0.00  0.00    +0.000 OA
ATOM      4  N   UNL     1       7.663   4.447  16.435  0.00  0.00    +0.000 NA
ATOM      5  C   UNL     1       7.124   4.883  15.136  0.00  0.00    +0.000 C 
ATOM      6  C   UNL     1       5.606   4.769  15.055  0.00  0.00    +0.000 C 
ATOM      7  O   UNL     1       4.955   5.746  15.875  0.00  0.00    +0.000 OA
ATOM      8  C   UNL     1       4.657   5.235  17.107  0.00  0.00    +0.000 A 
ATOM      9  C   UNL     1       3.315   4.961  17.373  0.00  0.00    +0.000 A 
ATOM     10  C   UNL     1       2.943   4.413  18.601  0.00  0.00    +0.000 A 
ATOM     11  C   UNL     1       3.908   4.159  19.576  0.00  0.00    +0.000 A 
ATOM     12  C   UNL     1       5.246   4.466  19.326  0.00  0.00    +0.000 A 
ATOM     13  C   UNL     1       5.618   5.013  18.091  0.00  0.00    +0.000 A 
ATOM     14  H   UNL     1       7.650   3.450  16.642  0.00  0.00    +0.000 HD
ENDROOT
TORSDOF 0
ENDMDL
MODEL 6
REMARK VINA RESULT:      -6.0      2.789      3.401
REMARK  Name = 
REMARK  0 active torsions:
REMARK  status: ('A' for Active; 'I' for Inactive)
REMARK                            x       y       z     vdW  Elec       q    Type
REMARK                         _______ _______ _______ _____ _____    ______ ____
ROOT
ATOM      1  O   UNL     1       5.279   3.218  19.660  0.00  0.00    +0.000 OA
ATOM      2  S   UNL     1       5.644   4.548  19.241  0.00  0.00    +0.000 S 
ATOM      3  O   UNL     1       6.777   5.247  19.811  0.00  0.00    +0.000 OA
ATOM      4  N   UNL     1       4.335   5.586  19.465  0.00  0.00    +0.000 NA
ATOM      5  C   UNL     1       2.995   5.096  19.101  0.00  0.00    +0.000 C 
ATOM      6  C   UNL     1       2.822   4.904  17.598  0.00  0.00    +0.000 C 
ATOM      7  O   UNL     1       3.578   3.788  17.113  0.00  0.00    +0.000 OA
ATOM      8  C   UNL     1       4.799   4.186  16.649  0.00  0.00    +0.000 A 
ATOM      9  C   UNL     1       4.986   4.176  15.266  0.00  0.00    +0.000 A 
ATOM     10  C   UNL     1       6.201   4.595  14.721  0.00  0.00    +0.000 A 
ATOM     11  C   UNL     1       7.239   5.004  15.558  0.00  0.00    +0.000 A 
ATOM     12  C   UNL     1       7.067   4.981  16.942  0.00  0.00    +0.000 A 
ATOM     13  C   UNL     1       5.846   4.563  17.487  0.00  0.00    +0.000 A 
ATOM     14  H   UNL     1       4.562   6.553  19.239  0.00  0.00    +0.000 HD
ENDROOT
TORSDOF 0
ENDMDL
MODEL 7
REMARK VINA RESULT:      -6.0      2.793      4.067
REMARK  Name = 
REMARK  0 active torsions:
REMARK  status: ('A' for Active; 'I' for Inactive)
REMARK                            x       y       z     vdW  Elec       q    Type
REMARK                         _______ _______ _______ _____ _____    ______ ____
ROOT
ATOM      1  O   UNL     1       6.937   4.916  18.848  0.00  0.00    +0.000 OA
ATOM      2  S   UNL     1       5.640   4.311  18.678  0.00  0.00    +0.000 S 
ATOM      3  O   UNL     1       5.141   3.299  19.586  0.00  0.00    +0.000 OA
ATOM      4  N   UNL     1       5.545   3.608  17.149  0.00  0.00    +0.000 NA
ATOM      5  C   UNL     1       6.109   4.352  16.010  0.00  0.00    +0.000 C 
ATOM      6  C   UNL     1       5.323   5.615  15.679  0.00  0.00    +0.000 C 
ATOM      7  O   UNL     1       5.495   6.626  16.679  0.00  0.00    +0.000 OA
ATOM      8  C   UNL     1       4.496   6.573  17.610  0.00  0.00    +0.000 A 
ATOM      9  C   UNL     1       3.539   7.588  17.572  0.00  0.00    +0.000 A 
ATOM     10  C   UNL     1       2.476   7.580  18.477  0.00  0.00    +0.000 A 
ATOM     11  C   UNL     1       2.379   6.572  19.436  0.00  0.00    +0.000 A 
ATOM     12  C   UNL     1       3.354   5.577  19.498  0.00  0.00    +0.000 A 
ATOM     13  C   UNL     1       4.419   5.584  18.588  0.00  0.00    +0.000 A 
ATOM     14  H   UNL     1       4.666   3.114  17.002  0.00  0.00    +0.000 HD
ENDROOT
TORSDOF 0
ENDMDL
MODEL 8
REMARK VINA RESULT:      -6.0      1.684      2.165
REMARK  Name = 
REMARK  0 active torsions:
REMARK  status: ('A' for Active; 'I' for Inactive)
REMARK                            x       y       z     vdW  Elec       q    Type
REMARK                         _______ _______ _______ _____ _____    ______ ____
ROOT
ATOM      1  O   UNL     1       1.153   3.294  17.860  0.00  0.00    +0.000 OA
ATOM      2  S   UNL     1       2.541   3.037  18.157  0.00  0.00    +0.000 S 
ATOM      3  O   UNL     1       3.183   1.790  17.798  0.00  0.00    +0.000 OA
ATOM      4  N   UNL     1       2.798   3.197  19.816  0.00  0.00    +0.000 NA
ATOM      5  C   UNL     1       2.143   4.317  20.512  0.00  0.00    +0.000 C 
ATOM      6  C   UNL     1       2.706   5.675  20.107  0.00  0.00    +0.000 C 
ATOM      7  O   UNL     1       2.334   6.030  18.770  0.00  0.00    +0.000 OA
ATOM      8  C   UNL     1       3.301   5.665  17.877  0.00  0.00    +0.000 A 
ATOM      9  C   UNL     1       4.067   6.689  17.319  0.00  0.00    +0.000 A 
ATOM     10  C   UNL     1       5.090   6.386  16.419  0.00  0.00    +0.000 A 
ATOM     11  C   UNL     1       5.335   5.061  16.058  0.00  0.00    +0.000 A 
ATOM     12  C   UNL     1       4.548   4.039  16.587  0.00  0.00    +0.000 A 
ATOM     13  C   UNL     1       3.523   4.345  17.492  0.00  0.00    +0.000 A 
ATOM     14  H   UNL     1       3.752   2.966  20.085  0.00  0.00    +0.000 HD
ENDROOT
TORSDOF 0
ENDMDL
MODEL 9
REMARK VINA RESULT:      -5.9      1.447      1.569
REMARK  Name = 
REMARK  0 active torsions:
REMARK  status: ('A' for Active; 'I' for Inactive)
REMARK                            x       y       z     vdW  Elec       q    Type
REMARK                         _______ _______ _______ _____ _____    ______ ____
ROOT
ATOM      1  O   UNL     1       1.093   2.569  18.263  0.00  0.00    +0.000 OA
ATOM      2  S   UNL     1       2.518   2.586  18.481  0.00  0.00    +0.000 S 
ATOM      3  O   UNL     1       3.398   1.611  17.871  0.00  0.00    +0.000 OA
ATOM      4  N   UNL     1       2.833   2.482  20.134  0.00  0.00    +0.000 NA
ATOM      5  C   UNL     1       1.990   3.270  21.049  0.00  0.00    +0.000 C 
ATOM      6  C   UNL     1       2.213   4.772  20.914  0.00  0.00    +0.000 C 
ATOM      7  O   UNL     1       1.690   5.279  19.680  0.00  0.00    +0.000 OA
ATOM      8  C   UNL     1       2.658   5.323  18.717  0.00  0.00    +0.000 A 
ATOM      9  C   UNL     1       3.143   6.581  18.361  0.00  0.00    +0.000 A 
ATOM     10  C   UNL     1       4.151   6.698  17.402  0.00  0.00    +0.000 A 
ATOM     11  C   UNL     1       4.661   5.558  16.781  0.00  0.00    +0.000 A 
ATOM     12  C   UNL     1       4.153   4.301  17.109  0.00  0.00    +0.000 A 
ATOM     13  C   UNL     1       3.144   4.186  18.074  0.00  0.00    +0.000 A 
ATOM     14  H   UNL     1       3.830   2.430  20.336  0.00  0.00    +0.000 HD
ENDROOT
TORSDOF 0
ENDMDL
