MODEL 1
REMARK VINA RESULT:      -6.8      0.000      0.000
REMARK  Name = 
REMARK  8 active torsions:
REMARK  status: ('A' for Active; 'I' for Inactive)
REMARK    1  A    between atoms: C_1  and  O_2
REMARK    2  A    between atoms: O_2  and  C_3
REMARK    3  A    between atoms: C_3  and  C_5
REMARK    4  A    between atoms: C_5  and  C_6
REMARK    5  A    between atoms: C_11  and  O_12
REMARK    6  A    between atoms: O_12  and  C_13
REMARK    7  A    between atoms: C_13  and  C_15
REMARK    8  A    between atoms: C_15  and  C_16
REMARK                            x       y       z     vdW  Elec       q    Type
REMARK                         _______ _______ _______ _____ _____    ______ ____
ROOT
ATOM      1  C   UNL     1       2.876   5.389  18.766  0.00  0.00    +0.000 A 
ATOM      2  C   UNL     1       1.911   4.688  18.017  0.00  0.00    +0.000 A 
ATOM      3  C   UNL     1       2.177   3.408  17.527  0.00  0.00    +0.000 A 
ATOM      4  C   UNL     1       3.410   2.813  17.773  0.00  0.00    +0.000 A 
ATOM      5  C   UNL     1       4.393   3.509  18.472  0.00  0.00    +0.000 A 
ATOM      6  C   UNL     1       4.139   4.801  18.951  0.00  0.00    +0.000 A 
ENDROOT
BRANCH   1   7
ATOM      7  C   UNL     1       2.478   6.686  19.430  0.00  0.00    +0.000 C 
BRANCH   7   8
ATOM      8  C   UNL     1       2.398   7.854  18.462  0.00  0.00    +0.000 C 
ATOM      9  O   UNL     1       3.080   8.015  17.458  0.00  0.00    +0.000 OA
BRANCH   8  11
ATOM     10  C   UNL     1       1.521  10.026  18.330  0.00  0.00    +0.000 C 
ATOM     11  O   UNL     1       1.416   8.709  18.877  0.00  0.00    +0.000 OA
ENDBRANCH   8  11
ENDBRANCH   7   8
ENDBRANCH   1   7
BRANCH   6  12
ATOM     12  O   UNL     1       5.089   5.442  19.769  0.00  0.00    +0.000 OA
BRANCH  12  13
ATOM     13  C   UNL     1       6.382   5.541  19.240  0.00  0.00    +0.000 C 
ATOM     14  O   UNL     1       7.385   5.036  19.717  0.00  0.00    +0.000 OA
BRANCH  13  15
ATOM     15  C   UNL     1       6.358   6.447  18.027  0.00  0.00    +0.000 C 
BRANCH  15  16
ATOM     16  C   UNL     1       6.257   5.743  16.699  0.00  0.00    +0.000 A 
ATOM     17  C   UNL     1       7.115   4.673  16.404  0.00  0.00    +0.000 A 
ATOM     18  C   UNL     1       6.998   3.983  15.195  0.00  0.00    +0.000 A 
ATOM     19  C   UNL     1       6.020   4.357  14.276  0.00  0.00    +0.000 A 
ATOM     20 CL   UNL     1       5.861   3.489  12.799  0.00  0.00    +0.000 Cl
ATOM     21  C   UNL     1       5.169   5.426  14.548  0.00  0.00    +0.000 A 
ATOM     22  C   UNL     1       5.290   6.121  15.755  0.00  0.00    +0.000 A 
ENDBRANCH  15  16
ENDBRANCH  13  15
ENDBRANCH  12  13
ENDBRANCH   6  12
TORSDOF 7
ENDMDL
MODEL 2
REMARK VINA RESULT:      -6.7      1.310      1.668
REMARK  Name = 
REMARK  8 active torsions:
REMARK  status: ('A' for Active; 'I' for Inactive)
REMARK    1  A    between atoms: C_1  and  O_2
REMARK    2  A    between atoms: O_2  and  C_3
REMARK    3  A    between atoms: C_3  and  C_5
REMARK    4  A    between atoms: C_5  and  C_6
REMARK    5  A    between atoms: C_11  and  O_12
REMARK    6  A    between atoms: O_12  and  C_13
REMARK    7  A    between atoms: C_13  and  C_15
REMARK    8  A    between atoms: C_15  and  C_16
REMARK                            x       y       z     vdW  Elec       q    Type
REMARK                         _______ _______ _______ _____ _____    ______ ____
ROOT
ATOM      1  C   UNL     1       2.850   4.677  18.453  0.00  0.00    +0.000 A 
ATOM      2  C   UNL     1       1.890   3.741  18.019  0.00  0.00    +0.000 A 
ATOM      3  C   UNL     1       2.135   2.370  18.108  0.00  0.00    +0.000 A 
ATOM      4  C   UNL     1       3.342   1.913  18.627  0.00  0.00    +0.000 A 
ATOM      5  C   UNL     1       4.322   2.822  19.017  0.00  0.00    +0.000 A 
ATOM      6  C   UNL     1       4.089   4.200  18.913  0.00  0.00    +0.000 A 
ENDROOT
BRANCH   1   7
ATOM      7  C   UNL     1       2.469   6.136  18.510  0.00  0.00    +0.000 C 
BRANCH   7   8
ATOM      8  C   UNL     1       1.987   6.577  19.881  0.00  0.00    +0.000 C 
ATOM      9  O   UNL     1       1.644   5.845  20.801  0.00  0.00    +0.000 OA
BRANCH   8  11
ATOM     10  C   UNL     1       1.043   8.502  20.833  0.00  0.00    +0.000 C 
ATOM     11  O   UNL     1       2.013   7.941  19.945  0.00  0.00    +0.000 OA
ENDBRANCH   8  11
ENDBRANCH   7   8
ENDBRANCH   1   7
BRANCH   6  12
ATOM     12  O   UNL     1       5.031   5.108  19.433  0.00  0.00    +0.000 OA
BRANCH  12  13
ATOM     13  C   UNL     1       6.240   5.203  18.732  0.00  0.00    +0.000 C 
ATOM     14  O   UNL     1       7.306   4.725  19.086  0.00  0.00    +0.000 OA
BRANCH  13  15
ATOM     15  C   UNL     1       6.038   6.066  17.504  0.00  0.00    +0.000 C 
BRANCH  15  16
ATOM     16  C   UNL     1       6.136   5.343  16.186  0.00  0.00    +0.000 A 
ATOM     17  C   UNL     1       5.059   4.572  15.726  0.00  0.00    +0.000 A 
ATOM     18  C   UNL     1       5.121   3.937  14.483  0.00  0.00    +0.000 A 
ATOM     19  C   UNL     1       6.260   4.074  13.692  0.00  0.00    +0.000 A 
ATOM     20 CL   UNL     1       6.324   3.312  12.151  0.00  0.00    +0.000 Cl
ATOM     21  C   UNL     1       7.343   4.825  14.141  0.00  0.00    +0.000 A 
ATOM     22  C   UNL     1       7.285   5.455  15.388  0.00  0.00    +0.000 A 
ENDBRANCH  15  16
ENDBRANCH  13  15
ENDBRANCH  12  13
ENDBRANCH   6  12
TORSDOF 7
ENDMDL
MODEL 3
REMARK VINA RESULT:      -6.6      2.585      3.403
REMARK  Name = 
REMARK  8 active torsions:
REMARK  status: ('A' for Active; 'I' for Inactive)
REMARK    1  A    between atoms: C_1  and  O_2
REMARK    2  A    between atoms: O_2  and  C_3
REMARK    3  A    between atoms: C_3  and  C_5
REMARK    4  A    between atoms: C_5  and  C_6
REMARK    5  A    between atoms: C_11  and  O_12
REMARK    6  A    between atoms: O_12  and  C_13
REMARK    7  A    between atoms: C_13  and  C_15
REMARK    8  A    between atoms: C_15  and  C_16
REMARK                            x       y       z     vdW  Elec       q    Type
REMARK                         _______ _______ _______ _____ _____    ______ ____
ROOT
ATOM      1  C   UNL     1       2.478   4.842  19.716  0.00  0.00    +0.000 A 
ATOM      2  C   UNL     1       2.035   4.597  21.031  0.00  0.00    +0.000 A 
ATOM      3  C   UNL     1       1.352   3.422  21.349  0.00  0.00    +0.000 A 
ATOM      4  C   UNL     1       1.096   2.478  20.359  0.00  0.00    +0.000 A 
ATOM      5  C   UNL     1       1.485   2.723  19.044  0.00  0.00    +0.000 A 
ATOM      6  C   UNL     1       2.155   3.909  18.716  0.00  0.00    +0.000 A 
ENDROOT
BRANCH   1   7
ATOM      7  C   UNL     1       3.370   6.032  19.461  0.00  0.00    +0.000 C 
BRANCH   7   8
ATOM      8  C   UNL     1       2.612   7.256  18.974  0.00  0.00    +0.000 C 
ATOM      9  O   UNL     1       2.596   7.695  17.831  0.00  0.00    +0.000 OA
BRANCH   8  11
ATOM     10  C   UNL     1       1.282   9.039  19.719  0.00  0.00    +0.000 C 
ATOM     11  O   UNL     1       1.919   7.795  20.021  0.00  0.00    +0.000 OA
ENDBRANCH   8  11
ENDBRANCH   7   8
ENDBRANCH   1   7
BRANCH   6  12
ATOM     12  O   UNL     1       2.661   4.087  17.413  0.00  0.00    +0.000 OA
BRANCH  12  13
ATOM     13  C   UNL     1       3.802   3.341  17.094  0.00  0.00    +0.000 C 
ATOM     14  O   UNL     1       4.108   2.267  17.585  0.00  0.00    +0.000 OA
BRANCH  13  15
ATOM     15  C   UNL     1       4.644   4.116  16.103  0.00  0.00    +0.000 C 
BRANCH  15  16
ATOM     16  C   UNL     1       5.641   5.069  16.710  0.00  0.00    +0.000 A 
ATOM     17  C   UNL     1       5.531   6.447  16.471  0.00  0.00    +0.000 A 
ATOM     18  C   UNL     1       6.420   7.343  17.068  0.00  0.00    +0.000 A 
ATOM     19  C   UNL     1       7.423   6.866  17.909  0.00  0.00    +0.000 A 
ATOM     20 CL   UNL     1       8.502   7.974  18.663  0.00  0.00    +0.000 Cl
ATOM     21  C   UNL     1       7.554   5.500  18.145  0.00  0.00    +0.000 A 
ATOM     22  C   UNL     1       6.668   4.601  17.543  0.00  0.00    +0.000 A 
ENDBRANCH  15  16
ENDBRANCH  13  15
ENDBRANCH  12  13
ENDBRANCH   6  12
TORSDOF 7
ENDMDL
MODEL 4
REMARK VINA RESULT:      -6.6      3.152      5.685
REMARK  Name = 
REMARK  8 active torsions:
REMARK  status: ('A' for Active; 'I' for Inactive)
REMARK    1  A    between atoms: C_1  and  O_2
REMARK    2  A    between atoms: O_2  and  C_3
REMARK    3  A    between atoms: C_3  and  C_5
REMARK    4  A    between atoms: C_5  and  C_6
REMARK    5  A    between atoms: C_11  and  O_12
REMARK    6  A    between atoms: O_12  and  C_13
REMARK    7  A    between atoms: C_13  and  C_15
REMARK    8  A    between atoms: C_15  and  C_16
REMARK                            x       y       z     vdW  Elec       q    Type
REMARK                         _______ _______ _______ _____ _____    ______ ____
ROOT
ATOM      1  C   UNL     1       6.476   5.429  16.659  0.00  0.00    +0.000 A 
ATOM      2  C   UNL     1       6.993   5.820  15.408  0.00  0.00    +0.000 A 
ATOM      3  C   UNL     1       6.819   5.017  14.280  0.00  0.00    +0.000 A 
ATOM      4  C   UNL     1       6.132   3.812  14.384  0.00  0.00    +0.000 A 
ATOM      5  C   UNL     1       5.655   3.386  15.621  0.00  0.00    +0.000 A 
ATOM      6  C   UNL     1       5.842   4.180  16.761  0.00  0.00    +0.000 A 
ENDROOT
BRANCH   1   7
ATOM      7  C   UNL     1       6.527   6.411  17.804  0.00  0.00    +0.000 C 
BRANCH   7   8
ATOM      8  C   UNL     1       7.768   6.262  18.667  0.00  0.00    +0.000 C 
ATOM      9  O   UNL     1       8.131   5.248  19.250  0.00  0.00    +0.000 OA
BRANCH   8  11
ATOM     10  C   UNL     1       7.938   8.422  17.766  0.00  0.00    +0.000 C 
ATOM     11  O   UNL     1       8.446   7.449  18.682  0.00  0.00    +0.000 OA
ENDBRANCH   8  11
ENDBRANCH   7   8
ENDBRANCH   1   7
BRANCH   6  12
ATOM     12  O   UNL     1       5.241   3.805  17.979  0.00  0.00    +0.000 OA
BRANCH  12  13
ATOM     13  C   UNL     1       3.900   3.406  17.900  0.00  0.00    +0.000 C 
ATOM     14  O   UNL     1       3.475   2.292  18.155  0.00  0.00    +0.000 OA
BRANCH  13  15
ATOM     15  C   UNL     1       3.069   4.554  17.367  0.00  0.00    +0.000 C 
BRANCH  15  16
ATOM     16  C   UNL     1       2.606   5.549  18.399  0.00  0.00    +0.000 A 
ATOM     17  C   UNL     1       2.228   5.111  19.677  0.00  0.00    +0.000 A 
ATOM     18  C   UNL     1       1.844   6.030  20.656  0.00  0.00    +0.000 A 
ATOM     19  C   UNL     1       1.836   7.392  20.363  0.00  0.00    +0.000 A 
ATOM     20 CL   UNL     1       1.386   8.523  21.578  0.00  0.00    +0.000 Cl
ATOM     21  C   UNL     1       2.195   7.841  19.094  0.00  0.00    +0.000 A 
ATOM     22  C   UNL     1       2.574   6.922  18.111  0.00  0.00    +0.000 A 
ENDBRANCH  15  16
ENDBRANCH  13  15
ENDBRANCH  12  13
ENDBRANCH   6  12
TORSDOF 7
ENDMDL
MODEL 5
REMARK VINA RESULT:      -6.4      3.484      6.518
REMARK  Name = 
REMARK  8 active torsions:
REMARK  status: ('A' for Active; 'I' for Inactive)
REMARK    1  A    between atoms: C_1  and  O_2
REMARK    2  A    between atoms: O_2  and  C_3
REMARK    3  A    between atoms: C_3  and  C_5
REMARK    4  A    between atoms: C_5  and  C_6
REMARK    5  A    between atoms: C_11  and  O_12
REMARK    6  A    between atoms: O_12  and  C_13
REMARK    7  A    between atoms: C_13  and  C_15
REMARK    8  A    between atoms: C_15  and  C_16
REMARK                            x       y       z     vdW  Elec       q    Type
REMARK                         _______ _______ _______ _____ _____    ______ ____
ROOT
ATOM      1  C   UNL     1       6.082   6.054  16.905  0.00  0.00    +0.000 A 
ATOM      2  C   UNL     1       7.351   6.547  17.269  0.00  0.00    +0.000 A 
ATOM      3  C   UNL     1       7.849   6.357  18.559  0.00  0.00    +0.000 A 
ATOM      4  C   UNL     1       7.088   5.677  19.504  0.00  0.00    +0.000 A 
ATOM      5  C   UNL     1       5.812   5.224  19.177  0.00  0.00    +0.000 A 
ATOM      6  C   UNL     1       5.299   5.428  17.889  0.00  0.00    +0.000 A 
ENDROOT
BRANCH   1   7
ATOM      7  C   UNL     1       5.666   6.121  15.455  0.00  0.00    +0.000 C 
BRANCH   7   8
ATOM      8  C   UNL     1       6.436   5.159  14.566  0.00  0.00    +0.000 C 
ATOM      9  O   UNL     1       7.635   5.197  14.321  0.00  0.00    +0.000 OA
BRANCH   8  11
ATOM     10  C   UNL     1       6.052   3.529  12.922  0.00  0.00    +0.000 C 
ATOM     11  O   UNL     1       5.576   4.213  14.084  0.00  0.00    +0.000 OA
ENDBRANCH   8  11
ENDBRANCH   7   8
ENDBRANCH   1   7
BRANCH   6  12
ATOM     12  O   UNL     1       4.066   4.850  17.529  0.00  0.00    +0.000 OA
BRANCH  12  13
ATOM     13  C   UNL     1       2.923   5.521  17.981  0.00  0.00    +0.000 C 
ATOM     14  O   UNL     1       1.895   4.991  18.370  0.00  0.00    +0.000 OA
BRANCH  13  15
ATOM     15  C   UNL     1       3.128   7.014  17.831  0.00  0.00    +0.000 C 
BRANCH  15  16
ATOM     16  C   UNL     1       2.204   7.877  18.649  0.00  0.00    +0.000 A 
ATOM     17  C   UNL     1       2.049   7.635  20.023  0.00  0.00    +0.000 A 
ATOM     18  C   UNL     1       1.233   8.460  20.800  0.00  0.00    +0.000 A 
ATOM     19  C   UNL     1       0.568   9.531  20.208  0.00  0.00    +0.000 A 
ATOM     20 CL   UNL     1      -0.418  10.560  21.173  0.00  0.00    +0.000 Cl
ATOM     21  C   UNL     1       0.699   9.776  18.843  0.00  0.00    +0.000 A 
ATOM     22  C   UNL     1       1.512   8.948  18.063  0.00  0.00    +0.000 A 
ENDBRANCH  15  16
ENDBRANCH  13  15
ENDBRANCH  12  13
ENDBRANCH   6  12
TORSDOF 7
ENDMDL
MODEL 6
REMARK VINA RESULT:      -6.4      2.668      3.440
REMARK  Name = 
REMARK  8 active torsions:
REMARK  status: ('A' for Active; 'I' for Inactive)
REMARK    1  A    between atoms: C_1  and  O_2
REMARK    2  A    between atoms: O_2  and  C_3
REMARK    3  A    between atoms: C_3  and  C_5
REMARK    4  A    between atoms: C_5  and  C_6
REMARK    5  A    between atoms: C_11  and  O_12
REMARK    6  A    between atoms: O_12  and  C_13
REMARK    7  A    between atoms: C_13  and  C_15
REMARK    8  A    between atoms: C_15  and  C_16
REMARK                            x       y       z     vdW  Elec       q    Type
REMARK                         _______ _______ _______ _____ _____    ______ ____
ROOT
ATOM      1  C   UNL     1       2.195   5.159  19.416  0.00  0.00    +0.000 A 
ATOM      2  C   UNL     1       1.367   4.615  20.418  0.00  0.00    +0.000 A 
ATOM      3  C   UNL     1       0.816   3.340  20.277  0.00  0.00    +0.000 A 
ATOM      4  C   UNL     1       1.079   2.592  19.135  0.00  0.00    +0.000 A 
ATOM      5  C   UNL     1       1.857   3.131  18.112  0.00  0.00    +0.000 A 
ATOM      6  C   UNL     1       2.398   4.418  18.240  0.00  0.00    +0.000 A 
ENDROOT
BRANCH   1   7
ATOM      7  C   UNL     1       2.914   6.457  19.694  0.00  0.00    +0.000 C 
BRANCH   7   8
ATOM      8  C   UNL     1       2.176   7.675  19.167  0.00  0.00    +0.000 C 
ATOM      9  O   UNL     1       2.189   8.092  18.016  0.00  0.00    +0.000 OA
BRANCH   8  11
ATOM     10  C   UNL     1       0.959   9.545  19.894  0.00  0.00    +0.000 C 
ATOM     11  O   UNL     1       1.462   8.239  20.187  0.00  0.00    +0.000 OA
ENDBRANCH   8  11
ENDBRANCH   7   8
ENDBRANCH   1   7
BRANCH   6  12
ATOM     12  O   UNL     1       3.290   4.899  17.263  0.00  0.00    +0.000 OA
BRANCH  12  13
ATOM     13  C   UNL     1       4.441   4.129  17.053  0.00  0.00    +0.000 C 
ATOM     14  O   UNL     1       4.621   3.360  16.123  0.00  0.00    +0.000 OA
BRANCH  13  15
ATOM     15  C   UNL     1       5.396   4.334  18.209  0.00  0.00    +0.000 C 
BRANCH  15  16
ATOM     16  C   UNL     1       6.259   5.566  18.122  0.00  0.00    +0.000 A 
ATOM     17  C   UNL     1       5.892   6.621  17.273  0.00  0.00    +0.000 A 
ATOM     18  C   UNL     1       6.659   7.787  17.220  0.00  0.00    +0.000 A 
ATOM     19  C   UNL     1       7.794   7.906  18.019  0.00  0.00    +0.000 A 
ATOM     20 CL   UNL     1       8.723   9.354  17.971  0.00  0.00    +0.000 Cl
ATOM     21  C   UNL     1       8.179   6.862  18.856  0.00  0.00    +0.000 A 
ATOM     22  C   UNL     1       7.416   5.691  18.905  0.00  0.00    +0.000 A 
ENDBRANCH  15  16
ENDBRANCH  13  15
ENDBRANCH  12  13
ENDBRANCH   6  12
TORSDOF 7
ENDMDL
MODEL 7
REMARK VINA RESULT:      -6.4      2.631      3.354
REMARK  Name = 
REMARK  8 active torsions:
REMARK  status: ('A' for Active; 'I' for Inactive)
REMARK    1  A    between atoms: C_1  and  O_2
REMARK    2  A    between atoms: O_2  and  C_3
REMARK    3  A    between atoms: C_3  and  C_5
REMARK    4  A    between atoms: C_5  and  C_6
REMARK    5  A    between atoms: C_11  and  O_12
REMARK    6  A    between atoms: O_12  and  C_13
REMARK    7  A    between atoms: C_13  and  C_15
REMARK    8  A    between atoms: C_15  and  C_16
REMARK                            x       y       z     vdW  Elec       q    Type
REMARK                         _______ _______ _______ _____ _____    ______ ____
ROOT
ATOM      1  C   UNL     1       2.296   5.042  19.276  0.00  0.00    +0.000 A 
ATOM      2  C   UNL     1       1.438   4.420  20.204  0.00  0.00    +0.000 A 
ATOM      3  C   UNL     1       0.917   3.149  19.957  0.00  0.00    +0.000 A 
ATOM      4  C   UNL     1       1.240   2.483  18.779  0.00  0.00    +0.000 A 
ATOM      5  C   UNL     1       2.049   3.101  17.828  0.00  0.00    +0.000 A 
ATOM      6  C   UNL     1       2.560   4.385  18.063  0.00  0.00    +0.000 A 
ENDROOT
BRANCH   1   7
ATOM      7  C   UNL     1       2.979   6.330  19.668  0.00  0.00    +0.000 C 
BRANCH   7   8
ATOM      8  C   UNL     1       2.111   7.558  19.455  0.00  0.00    +0.000 C 
ATOM      9  O   UNL     1       1.492   8.170  20.317  0.00  0.00    +0.000 OA
BRANCH   8  11
ATOM     10  C   UNL     1       1.831   9.271  17.877  0.00  0.00    +0.000 C 
ATOM     11  O   UNL     1       2.138   7.899  18.132  0.00  0.00    +0.000 OA
ENDBRANCH   8  11
ENDBRANCH   7   8
ENDBRANCH   1   7
BRANCH   6  12
ATOM     12  O   UNL     1       3.482   4.945  17.157  0.00  0.00    +0.000 OA
BRANCH  12  13
ATOM     13  C   UNL     1       4.607   4.162  16.868  0.00  0.00    +0.000 C 
ATOM     14  O   UNL     1       4.739   3.442  15.892  0.00  0.00    +0.000 OA
BRANCH  13  15
ATOM     15  C   UNL     1       5.603   4.282  18.002  0.00  0.00    +0.000 C 
BRANCH  15  16
ATOM     16  C   UNL     1       6.371   5.577  18.051  0.00  0.00    +0.000 A 
ATOM     17  C   UNL     1       7.473   5.708  18.910  0.00  0.00    +0.000 A 
ATOM     18  C   UNL     1       8.221   6.887  18.929  0.00  0.00    +0.000 A 
ATOM     19  C   UNL     1       7.873   7.941  18.087  0.00  0.00    +0.000 A 
ATOM     20 CL   UNL     1       8.811   9.383  18.093  0.00  0.00    +0.000 Cl
ATOM     21  C   UNL     1       6.773   7.832  17.239  0.00  0.00    +0.000 A 
ATOM     22  C   UNL     1       6.020   6.654  17.224  0.00  0.00    +0.000 A 
ENDBRANCH  15  16
ENDBRANCH  13  15
ENDBRANCH  12  13
ENDBRANCH   6  12
TORSDOF 7
ENDMDL
MODEL 8
REMARK VINA RESULT:      -6.4      3.207      6.161
REMARK  Name = 
REMARK  8 active torsions:
REMARK  status: ('A' for Active; 'I' for Inactive)
REMARK    1  A    between atoms: C_1  and  O_2
REMARK    2  A    between atoms: O_2  and  C_3
REMARK    3  A    between atoms: C_3  and  C_5
REMARK    4  A    between atoms: C_5  and  C_6
REMARK    5  A    between atoms: C_11  and  O_12
REMARK    6  A    between atoms: O_12  and  C_13
REMARK    7  A    between atoms: C_13  and  C_15
REMARK    8  A    between atoms: C_15  and  C_16
REMARK                            x       y       z     vdW  Elec       q    Type
REMARK                         _______ _______ _______ _____ _____    ______ ____
ROOT
ATOM      1  C   UNL     1       6.152   5.744  16.847  0.00  0.00    +0.000 A 
ATOM      2  C   UNL     1       7.311   6.494  17.128  0.00  0.00    +0.000 A 
ATOM      3  C   UNL     1       7.866   6.502  18.408  0.00  0.00    +0.000 A 
ATOM      4  C   UNL     1       7.271   5.765  19.428  0.00  0.00    +0.000 A 
ATOM      5  C   UNL     1       6.098   5.055  19.181  0.00  0.00    +0.000 A 
ATOM      6  C   UNL     1       5.526   5.059  17.902  0.00  0.00    +0.000 A 
ENDROOT
BRANCH   1   7
ATOM      7  C   UNL     1       5.698   5.618  15.413  0.00  0.00    +0.000 C 
BRANCH   7   8
ATOM      8  C   UNL     1       6.746   4.998  14.505  0.00  0.00    +0.000 C 
ATOM      9  O   UNL     1       7.792   5.520  14.140  0.00  0.00    +0.000 OA
BRANCH   8  11
ATOM     10  C   UNL     1       5.371   3.697  13.119  0.00  0.00    +0.000 C 
ATOM     11  O   UNL     1       6.348   3.737  14.162  0.00  0.00    +0.000 OA
ENDBRANCH   8  11
ENDBRANCH   7   8
ENDBRANCH   1   7
BRANCH   6  12
ATOM     12  O   UNL     1       4.418   4.232  17.631  0.00  0.00    +0.000 OA
BRANCH  12  13
ATOM     13  C   UNL     1       3.176   4.717  18.058  0.00  0.00    +0.000 C 
ATOM     14  O   UNL     1       2.101   4.475  17.534  0.00  0.00    +0.000 OA
BRANCH  13  15
ATOM     15  C   UNL     1       3.382   5.660  19.224  0.00  0.00    +0.000 C 
BRANCH  15  16
ATOM     16  C   UNL     1       2.678   6.987  19.113  0.00  0.00    +0.000 A 
ATOM     17  C   UNL     1       2.739   7.716  17.916  0.00  0.00    +0.000 A 
ATOM     18  C   UNL     1       2.050   8.924  17.786  0.00  0.00    +0.000 A 
ATOM     19  C   UNL     1       1.295   9.408  18.851  0.00  0.00    +0.000 A 
ATOM     20 CL   UNL     1       0.427  10.884  18.680  0.00  0.00    +0.000 Cl
ATOM     21  C   UNL     1       1.236   8.703  20.051  0.00  0.00    +0.000 A 
ATOM     22  C   UNL     1       1.930   7.497  20.185  0.00  0.00    +0.000 A 
ENDBRANCH  15  16
ENDBRANCH  13  15
ENDBRANCH  12  13
ENDBRANCH   6  12
TORSDOF 7
ENDMDL
MODEL 9
REMARK VINA RESULT:      -6.4      3.534      6.627
REMARK  Name = 
REMARK  8 active torsions:
REMARK  status: ('A' for Active; 'I' for Inactive)
REMARK    1  A    between atoms: C_1  and  O_2
REMARK    2  A    between atoms: O_2  and  C_3
REMARK    3  A    between atoms: C_3  and  C_5
REMARK    4  A    between atoms: C_5  and  C_6
REMARK    5  A    between atoms: C_11  and  O_12
REMARK    6  A    between atoms: O_12  and  C_13
REMARK    7  A    between atoms: C_13  and  C_15
REMARK    8  A    between atoms: C_15  and  C_16
REMARK                            x       y       z     vdW  Elec       q    Type
REMARK                         _______ _______ _______ _____ _____    ______ ____
ROOT
ATOM      1  C   UNL     1       5.230   4.763  17.744  0.00  0.00    +0.000 A 
ATOM      2  C   UNL     1       5.926   3.869  16.905  0.00  0.00    +0.000 A 
ATOM      3  C   UNL     1       6.194   4.197  15.576  0.00  0.00    +0.000 A 
ATOM      4  C   UNL     1       5.770   5.418  15.062  0.00  0.00    +0.000 A 
ATOM      5  C   UNL     1       5.040   6.294  15.861  0.00  0.00    +0.000 A 
ATOM      6  C   UNL     1       4.751   5.963  17.192  0.00  0.00    +0.000 A 
ENDROOT
BRANCH   1   7
ATOM      7  C   UNL     1       5.127   4.446  19.216  0.00  0.00    +0.000 C 
BRANCH   7   8
ATOM      8  C   UNL     1       4.483   3.099  19.495  0.00  0.00    +0.000 C 
ATOM      9  O   UNL     1       4.968   2.182  20.145  0.00  0.00    +0.000 OA
BRANCH   8  11
ATOM     10  C   UNL     1       2.172   2.891  19.845  0.00  0.00    +0.000 C 
ATOM     11  O   UNL     1       3.245   3.068  18.917  0.00  0.00    +0.000 OA
ENDBRANCH   8  11
ENDBRANCH   7   8
ENDBRANCH   1   7
BRANCH   6  12
ATOM     12  O   UNL     1       4.131   6.911  18.029  0.00  0.00    +0.000 OA
BRANCH  12  13
ATOM     13  C   UNL     1       2.730   6.924  18.003  0.00  0.00    +0.000 C 
ATOM     14  O   UNL     1       2.013   5.941  17.920  0.00  0.00    +0.000 OA
BRANCH  13  15
ATOM     15  C   UNL     1       2.245   8.358  18.009  0.00  0.00    +0.000 C 
BRANCH  15  16
ATOM     16  C   UNL     1       1.491   8.778  19.244  0.00  0.00    +0.000 A 
ATOM     17  C   UNL     1       1.697   8.103  20.457  0.00  0.00    +0.000 A 
ATOM     18  C   UNL     1       1.040   8.515  21.618  0.00  0.00    +0.000 A 
ATOM     19  C   UNL     1       0.174   9.605  21.573  0.00  0.00    +0.000 A 
ATOM     20 CL   UNL     1      -0.616  10.126  23.011  0.00  0.00    +0.000 Cl
ATOM     21  C   UNL     1      -0.052  10.277  20.374  0.00  0.00    +0.000 A 
ATOM     22  C   UNL     1       0.600   9.861  19.210  0.00  0.00    +0.000 A 
ENDBRANCH  15  16
ENDBRANCH  13  15
ENDBRANCH  12  13
ENDBRANCH   6  12
TORSDOF 7
ENDMDL
