MODEL 1
REMARK VINA RESULT:      -8.6      0.000      0.000
REMARK  Name = 
REMARK  12 active torsions:
REMARK  status: ('A' for Active; 'I' for Inactive)
REMARK    1  A    between atoms: C_1  and  C_2
REMARK    2  A    between atoms: C_2  and  C_3
REMARK    3  A    between atoms: C_3  and  C_4
REMARK    4  A    between atoms: C_4  and  O_5
REMARK    5  A    between atoms: O_5  and  C_6
REMARK    6  A    between atoms: C_16  and  C_17
REMARK    7  A    between atoms: C_19  and  C_20
REMARK    8  A    between atoms: C_20  and  C_21
REMARK    9  A    between atoms: C_21  and  O_23
REMARK   10  A    between atoms: C_26  and  O_27
REMARK   11  A    between atoms: O_27  and  C_28
REMARK   12  A    between atoms: C_28  and  C_29
REMARK                            x       y       z     vdW  Elec       q    Type
REMARK                         _______ _______ _______ _____ _____    ______ ____
ROOT
ATOM      1  C   UNL     1       2.149   8.507  18.005  0.00  0.00    +0.000 C 
ATOM      2  O   UNL     1       2.989   8.972  17.247  0.00  0.00    +0.000 OA
ATOM      3  N   UNL     1       2.340   7.349  18.730  0.00  0.00    +0.000 N 
ATOM      4  C   UNL     1       2.013   7.272  20.133  0.00  0.00    +0.000 C 
ATOM      5  C   UNL     1       1.492   5.883  20.464  0.00  0.00    +0.000 C 
ATOM      6  C   UNL     1       2.305   4.778  19.820  0.00  0.00    +0.000 A 
ATOM      7  C   UNL     1       2.087   3.468  20.234  0.00  0.00    +0.000 A 
ATOM      8  F   UNL     1       1.176   3.211  21.185  0.00  0.00    +0.000 F 
ATOM      9  C   UNL     1       2.785   2.412  19.671  0.00  0.00    +0.000 A 
ATOM     10  C   UNL     1       3.753   2.655  18.688  0.00  0.00    +0.000 A 
ATOM     11  C   UNL     1       4.033   3.958  18.227  0.00  0.00    +0.000 A 
ATOM     12  C   UNL     1       3.248   5.031  18.781  0.00  0.00    +0.000 A 
ATOM     13  C   UNL     1       3.391   6.465  18.292  0.00  0.00    +0.000 C 
ENDROOT
BRANCH  11  14
ATOM     14  C   UNL     1       5.135   4.178  17.224  0.00  0.00    +0.000 A 
ATOM     15  C   UNL     1       4.944   3.735  15.896  0.00  0.00    +0.000 A 
ATOM     16  C   UNL     1       5.697   4.209  14.818  0.00  0.00    +0.000 A 
ATOM     17  C   UNL     1       6.851   4.926  15.084  0.00  0.00    +0.000 A 
ATOM     18  C   UNL     1       7.195   5.206  16.404  0.00  0.00    +0.000 A 
ATOM     19  C   UNL     1       6.339   4.886  17.480  0.00  0.00    +0.000 A 
BRANCH  16  20
ATOM     20  C   UNL     1       5.229   3.989  13.399  0.00  0.00    +0.000 C 
BRANCH  20  21
ATOM     21  C   UNL     1       6.273   3.466  12.438  0.00  0.00    +0.000 C 
ATOM     22  O   UNL     1       7.120   4.176  11.934  0.00  0.00    +0.000 OA
BRANCH  21  23
ATOM     23  O   UNL     1       6.146   2.158  12.119  0.00  0.00    +0.000 OA
ATOM     24  H   UNL     1       6.246   1.958  11.170  0.00  0.00    +0.000 HD
ENDBRANCH  21  23
ENDBRANCH  20  21
ENDBRANCH  16  20
BRANCH  19  25
ATOM     25  O   UNL     1       6.649   5.230  18.783  0.00  0.00    +0.000 OA
BRANCH  25  26
ATOM     26  C   UNL     1       7.977   5.722  19.007  0.00  0.00    +0.000 C 
ATOM     27  C   UNL     1       8.094   7.190  18.642  0.00  0.00    +0.000 C 
ENDBRANCH  25  26
ENDBRANCH  19  25
ENDBRANCH  11  14
BRANCH   1  28
ATOM     28  O   UNL     1       0.904   9.013  18.187  0.00  0.00    +0.000 OA
BRANCH  28  29
ATOM     29  C   UNL     1       0.822  10.386  18.580  0.00  0.00    +0.000 C 
BRANCH  29  30
ATOM     30  C   UNL     1      -0.554  11.062  18.500  0.00  0.00    +0.000 C 
BRANCH  30  32
ATOM     31  C   UNL     1      -2.207  10.216  16.756  0.00  0.00    +0.000 C 
ATOM     32  C   UNL     1      -1.592   9.999  18.126  0.00  0.00    +0.000 C 
ENDBRANCH  30  32
ENDBRANCH  29  30
ENDBRANCH  28  29
ENDBRANCH   1  28
TORSDOF 10
ENDMDL
MODEL 2
REMARK VINA RESULT:      -8.4      1.174      1.466
REMARK  Name = 
REMARK  12 active torsions:
REMARK  status: ('A' for Active; 'I' for Inactive)
REMARK    1  A    between atoms: C_1  and  C_2
REMARK    2  A    between atoms: C_2  and  C_3
REMARK    3  A    between atoms: C_3  and  C_4
REMARK    4  A    between atoms: C_4  and  O_5
REMARK    5  A    between atoms: O_5  and  C_6
REMARK    6  A    between atoms: C_16  and  C_17
REMARK    7  A    between atoms: C_19  and  C_20
REMARK    8  A    between atoms: C_20  and  C_21
REMARK    9  A    between atoms: C_21  and  O_23
REMARK   10  A    between atoms: C_26  and  O_27
REMARK   11  A    between atoms: O_27  and  C_28
REMARK   12  A    between atoms: C_28  and  C_29
REMARK                            x       y       z     vdW  Elec       q    Type
REMARK                         _______ _______ _______ _____ _____    ______ ____
ROOT
ATOM      1  C   UNL     1       2.387   8.216  18.110  0.00  0.00    +0.000 C 
ATOM      2  O   UNL     1       3.283   8.708  17.438  0.00  0.00    +0.000 OA
ATOM      3  N   UNL     1       2.467   6.960  18.676  0.00  0.00    +0.000 N 
ATOM      4  C   UNL     1       2.093   6.724  20.049  0.00  0.00    +0.000 C 
ATOM      5  C   UNL     1       1.458   5.350  20.180  0.00  0.00    +0.000 C 
ATOM      6  C   UNL     1       2.202   4.279  19.409  0.00  0.00    +0.000 A 
ATOM      7  C   UNL     1       1.871   2.947  19.638  0.00  0.00    +0.000 A 
ATOM      8  F   UNL     1       0.916   2.640  20.529  0.00  0.00    +0.000 F 
ATOM      9  C   UNL     1       2.502   1.923  18.952  0.00  0.00    +0.000 A 
ATOM     10  C   UNL     1       3.515   2.215  18.029  0.00  0.00    +0.000 A 
ATOM     11  C   UNL     1       3.908   3.541  17.753  0.00  0.00    +0.000 A 
ATOM     12  C   UNL     1       3.192   4.591  18.431  0.00  0.00    +0.000 A 
ATOM     13  C   UNL     1       3.459   6.061  18.143  0.00  0.00    +0.000 C 
ENDROOT
BRANCH  11  14
ATOM     14  C   UNL     1       5.054   3.804  16.810  0.00  0.00    +0.000 A 
ATOM     15  C   UNL     1       4.839   3.654  15.422  0.00  0.00    +0.000 A 
ATOM     16  C   UNL     1       5.673   4.224  14.455  0.00  0.00    +0.000 A 
ATOM     17  C   UNL     1       6.902   4.718  14.854  0.00  0.00    +0.000 A 
ATOM     18  C   UNL     1       7.248   4.691  16.202  0.00  0.00    +0.000 A 
ATOM     19  C   UNL     1       6.332   4.285  17.197  0.00  0.00    +0.000 A 
BRANCH  16  20
ATOM     20  C   UNL     1       5.213   4.344  13.021  0.00  0.00    +0.000 C 
BRANCH  20  21
ATOM     21  C   UNL     1       5.616   3.209  12.106  0.00  0.00    +0.000 C 
ATOM     22  O   UNL     1       6.768   2.847  11.972  0.00  0.00    +0.000 OA
BRANCH  21  23
ATOM     23  O   UNL     1       4.605   2.674  11.387  0.00  0.00    +0.000 OA
ATOM     24  H   UNL     1       4.604   2.914  10.443  0.00  0.00    +0.000 HD
ENDBRANCH  21  23
ENDBRANCH  20  21
ENDBRANCH  16  20
BRANCH  19  25
ATOM     25  O   UNL     1       6.652   4.328  18.542  0.00  0.00    +0.000 OA
BRANCH  25  26
ATOM     26  C   UNL     1       6.840   5.634  19.104  0.00  0.00    +0.000 C 
ATOM     27  C   UNL     1       8.258   5.823  19.609  0.00  0.00    +0.000 C 
ENDBRANCH  25  26
ENDBRANCH  19  25
ENDBRANCH  11  14
BRANCH   1  28
ATOM     28  O   UNL     1       1.179   8.791  18.335  0.00  0.00    +0.000 OA
BRANCH  28  29
ATOM     29  C   UNL     1       1.189  10.166  18.731  0.00  0.00    +0.000 C 
BRANCH  29  30
ATOM     30  C   UNL     1       0.851  10.481  20.194  0.00  0.00    +0.000 C 
BRANCH  30  32
ATOM     31  C   UNL     1      -0.163   9.220  22.163  0.00  0.00    +0.000 C 
ATOM     32  C   UNL     1      -0.211   9.484  20.669  0.00  0.00    +0.000 C 
ENDBRANCH  30  32
ENDBRANCH  29  30
ENDBRANCH  28  29
ENDBRANCH   1  28
TORSDOF 10
ENDMDL
MODEL 3
REMARK VINA RESULT:      -8.3      0.843      1.295
REMARK  Name = 
REMARK  12 active torsions:
REMARK  status: ('A' for Active; 'I' for Inactive)
REMARK    1  A    between atoms: C_1  and  C_2
REMARK    2  A    between atoms: C_2  and  C_3
REMARK    3  A    between atoms: C_3  and  C_4
REMARK    4  A    between atoms: C_4  and  O_5
REMARK    5  A    between atoms: O_5  and  C_6
REMARK    6  A    between atoms: C_16  and  C_17
REMARK    7  A    between atoms: C_19  and  C_20
REMARK    8  A    between atoms: C_20  and  C_21
REMARK    9  A    between atoms: C_21  and  O_23
REMARK   10  A    between atoms: C_26  and  O_27
REMARK   11  A    between atoms: O_27  and  C_28
REMARK   12  A    between atoms: C_28  and  C_29
REMARK                            x       y       z     vdW  Elec       q    Type
REMARK                         _______ _______ _______ _____ _____    ______ ____
ROOT
ATOM      1  C   UNL     1       2.204   8.368  17.960  0.00  0.00    +0.000 C 
ATOM      2  O   UNL     1       3.044   8.811  17.189  0.00  0.00    +0.000 OA
ATOM      3  N   UNL     1       2.399   7.238  18.726  0.00  0.00    +0.000 N 
ATOM      4  C   UNL     1       2.067   7.209  20.130  0.00  0.00    +0.000 C 
ATOM      5  C   UNL     1       1.554   5.830  20.509  0.00  0.00    +0.000 C 
ATOM      6  C   UNL     1       2.376   4.708  19.908  0.00  0.00    +0.000 A 
ATOM      7  C   UNL     1       2.164   3.412  20.367  0.00  0.00    +0.000 A 
ATOM      8  F   UNL     1       1.251   3.183  21.324  0.00  0.00    +0.000 F 
ATOM      9  C   UNL     1       2.870   2.341  19.846  0.00  0.00    +0.000 A 
ATOM     10  C   UNL     1       3.841   2.555  18.858  0.00  0.00    +0.000 A 
ATOM     11  C   UNL     1       4.115   3.842  18.352  0.00  0.00    +0.000 A 
ATOM     12  C   UNL     1       3.321   4.929  18.864  0.00  0.00    +0.000 A 
ATOM     13  C   UNL     1       3.457   6.345  18.324  0.00  0.00    +0.000 C 
ENDROOT
BRANCH  11  14
ATOM     14  C   UNL     1       5.220   4.033  17.346  0.00  0.00    +0.000 A 
ATOM     15  C   UNL     1       4.982   3.678  15.999  0.00  0.00    +0.000 A 
ATOM     16  C   UNL     1       5.757   4.152  14.937  0.00  0.00    +0.000 A 
ATOM     17  C   UNL     1       6.964   4.766  15.224  0.00  0.00    +0.000 A 
ATOM     18  C   UNL     1       7.343   4.947  16.551  0.00  0.00    +0.000 A 
ATOM     19  C   UNL     1       6.477   4.635  17.621  0.00  0.00    +0.000 A 
BRANCH  16  20
ATOM     20  C   UNL     1       5.258   4.044  13.515  0.00  0.00    +0.000 C 
BRANCH  20  21
ATOM     21  C   UNL     1       6.244   3.484  12.515  0.00  0.00    +0.000 C 
ATOM     22  O   UNL     1       7.134   4.149  12.022  0.00  0.00    +0.000 OA
BRANCH  21  23
ATOM     23  O   UNL     1       6.016   2.203  12.149  0.00  0.00    +0.000 OA
ATOM     24  H   UNL     1       5.187   1.822  12.492  0.00  0.00    +0.000 HD
ENDBRANCH  21  23
ENDBRANCH  20  21
ENDBRANCH  16  20
BRANCH  19  25
ATOM     25  O   UNL     1       6.825   4.883  18.936  0.00  0.00    +0.000 OA
BRANCH  25  26
ATOM     26  C   UNL     1       8.023   5.645  19.137  0.00  0.00    +0.000 C 
ATOM     27  C   UNL     1       7.919   7.022  18.510  0.00  0.00    +0.000 C 
ENDBRANCH  25  26
ENDBRANCH  19  25
ENDBRANCH  11  14
BRANCH   1  28
ATOM     28  O   UNL     1       0.955   8.872  18.118  0.00  0.00    +0.000 OA
BRANCH  28  29
ATOM     29  C   UNL     1       0.861  10.270  18.409  0.00  0.00    +0.000 C 
BRANCH  29  30
ATOM     30  C   UNL     1       1.024  10.699  19.873  0.00  0.00    +0.000 C 
BRANCH  30  32
ATOM     31  C   UNL     1       0.214  12.723  21.192  0.00  0.00    +0.000 C 
ATOM     32  C   UNL     1       0.919  12.226  19.944  0.00  0.00    +0.000 C 
ENDBRANCH  30  32
ENDBRANCH  29  30
ENDBRANCH  28  29
ENDBRANCH   1  28
TORSDOF 10
ENDMDL
MODEL 4
REMARK VINA RESULT:      -7.7      1.308      1.508
REMARK  Name = 
REMARK  12 active torsions:
REMARK  status: ('A' for Active; 'I' for Inactive)
REMARK    1  A    between atoms: C_1  and  C_2
REMARK    2  A    between atoms: C_2  and  C_3
REMARK    3  A    between atoms: C_3  and  C_4
REMARK    4  A    between atoms: C_4  and  O_5
REMARK    5  A    between atoms: O_5  and  C_6
REMARK    6  A    between atoms: C_16  and  C_17
REMARK    7  A    between atoms: C_19  and  C_20
REMARK    8  A    between atoms: C_20  and  C_21
REMARK    9  A    between atoms: C_21  and  O_23
REMARK   10  A    between atoms: C_26  and  O_27
REMARK   11  A    between atoms: O_27  and  C_28
REMARK   12  A    between atoms: C_28  and  C_29
REMARK                            x       y       z     vdW  Elec       q    Type
REMARK                         _______ _______ _______ _____ _____    ______ ____
ROOT
ATOM      1  C   UNL     1       2.451   8.182  17.859  0.00  0.00    +0.000 C 
ATOM      2  O   UNL     1       3.321   8.688  17.163  0.00  0.00    +0.000 OA
ATOM      3  N   UNL     1       2.570   6.931  18.428  0.00  0.00    +0.000 N 
ATOM      4  C   UNL     1       2.234   6.694  19.811  0.00  0.00    +0.000 C 
ATOM      5  C   UNL     1       1.629   5.308  19.963  0.00  0.00    +0.000 C 
ATOM      6  C   UNL     1       2.376   4.248  19.179  0.00  0.00    +0.000 A 
ATOM      7  C   UNL     1       2.077   2.911  19.421  0.00  0.00    +0.000 A 
ATOM      8  F   UNL     1       1.150   2.589  20.336  0.00  0.00    +0.000 F 
ATOM      9  C   UNL     1       2.712   1.896  18.725  0.00  0.00    +0.000 A 
ATOM     10  C   UNL     1       3.696   2.204  17.776  0.00  0.00    +0.000 A 
ATOM     11  C   UNL     1       4.056   3.536  17.485  0.00  0.00    +0.000 A 
ATOM     12  C   UNL     1       3.335   4.575  18.176  0.00  0.00    +0.000 A 
ATOM     13  C   UNL     1       3.567   6.048  17.875  0.00  0.00    +0.000 C 
ENDROOT
BRANCH  11  14
ATOM     14  C   UNL     1       5.173   3.817  16.514  0.00  0.00    +0.000 A 
ATOM     15  C   UNL     1       4.937   3.628  15.134  0.00  0.00    +0.000 A 
ATOM     16  C   UNL     1       5.731   4.205  14.138  0.00  0.00    +0.000 A 
ATOM     17  C   UNL     1       6.950   4.750  14.501  0.00  0.00    +0.000 A 
ATOM     18  C   UNL     1       7.323   4.764  15.843  0.00  0.00    +0.000 A 
ATOM     19  C   UNL     1       6.442   4.350  16.864  0.00  0.00    +0.000 A 
BRANCH  16  20
ATOM     20  C   UNL     1       5.240   4.277  12.711  0.00  0.00    +0.000 C 
BRANCH  20  21
ATOM     21  C   UNL     1       5.353   2.998  11.914  0.00  0.00    +0.000 C 
ATOM     22  O   UNL     1       4.423   2.522  11.293  0.00  0.00    +0.000 OA
BRANCH  21  23
ATOM     23  O   UNL     1       6.551   2.378  12.004  0.00  0.00    +0.000 OA
ATOM     24  H   UNL     1       7.311   2.916  11.718  0.00  0.00    +0.000 HD
ENDBRANCH  21  23
ENDBRANCH  20  21
ENDBRANCH  16  20
BRANCH  19  25
ATOM     25  O   UNL     1       6.786   4.433  18.201  0.00  0.00    +0.000 OA
BRANCH  25  26
ATOM     26  C   UNL     1       7.835   5.356  18.525  0.00  0.00    +0.000 C 
ATOM     27  C   UNL     1       7.781   5.768  19.985  0.00  0.00    +0.000 C 
ENDBRANCH  25  26
ENDBRANCH  19  25
ENDBRANCH  11  14
BRANCH   1  28
ATOM     28  O   UNL     1       1.238   8.734  18.110  0.00  0.00    +0.000 OA
BRANCH  28  29
ATOM     29  C   UNL     1       1.217   9.853  19.001  0.00  0.00    +0.000 C 
BRANCH  29  30
ATOM     30  C   UNL     1       1.649  11.213  18.435  0.00  0.00    +0.000 C 
BRANCH  30  32
ATOM     31  C   UNL     1       0.267  13.311  18.862  0.00  0.00    +0.000 C 
ATOM     32  C   UNL     1       1.245  12.302  19.435  0.00  0.00    +0.000 C 
ENDBRANCH  30  32
ENDBRANCH  29  30
ENDBRANCH  28  29
ENDBRANCH   1  28
TORSDOF 10
ENDMDL
MODEL 5
REMARK VINA RESULT:      -6.6      7.884     12.997
REMARK  Name = 
REMARK  12 active torsions:
REMARK  status: ('A' for Active; 'I' for Inactive)
REMARK    1  A    between atoms: C_1  and  C_2
REMARK    2  A    between atoms: C_2  and  C_3
REMARK    3  A    between atoms: C_3  and  C_4
REMARK    4  A    between atoms: C_4  and  O_5
REMARK    5  A    between atoms: O_5  and  C_6
REMARK    6  A    between atoms: C_16  and  C_17
REMARK    7  A    between atoms: C_19  and  C_20
REMARK    8  A    between atoms: C_20  and  C_21
REMARK    9  A    between atoms: C_21  and  O_23
REMARK   10  A    between atoms: C_26  and  O_27
REMARK   11  A    between atoms: O_27  and  C_28
REMARK   12  A    between atoms: C_28  and  C_29
REMARK                            x       y       z     vdW  Elec       q    Type
REMARK                         _______ _______ _______ _____ _____    ______ ____
ROOT
ATOM      1  C   UNL     1      -1.457  12.443  22.272  0.00  0.00    +0.000 C 
ATOM      2  O   UNL     1      -2.140  13.093  23.052  0.00  0.00    +0.000 OA
ATOM      3  N   UNL     1      -1.758  12.309  20.932  0.00  0.00    +0.000 N 
ATOM      4  C   UNL     1      -0.753  12.477  19.911  0.00  0.00    +0.000 C 
ATOM      5  C   UNL     1      -1.023  11.520  18.761  0.00  0.00    +0.000 C 
ATOM      6  C   UNL     1      -2.486  11.461  18.373  0.00  0.00    +0.000 A 
ATOM      7  C   UNL     1      -2.832  10.816  17.190  0.00  0.00    +0.000 A 
ATOM      8  F   UNL     1      -1.876  10.270  16.423  0.00  0.00    +0.000 F 
ATOM      9  C   UNL     1      -4.154  10.713  16.789  0.00  0.00    +0.000 A 
ATOM     10  C   UNL     1      -5.170  11.289  17.563  0.00  0.00    +0.000 A 
ATOM     11  C   UNL     1      -4.892  11.965  18.768  0.00  0.00    +0.000 A 
ATOM     12  C   UNL     1      -3.517  12.002  19.197  0.00  0.00    +0.000 A 
ATOM     13  C   UNL     1      -3.107  12.617  20.527  0.00  0.00    +0.000 C 
ENDROOT
BRANCH  11  14
ATOM     14  C   UNL     1      -6.008  12.635  19.528  0.00  0.00    +0.000 A 
ATOM     15  C   UNL     1      -6.386  12.110  20.784  0.00  0.00    +0.000 A 
ATOM     16  C   UNL     1      -7.109  12.841  21.730  0.00  0.00    +0.000 A 
ATOM     17  C   UNL     1      -7.719  14.017  21.328  0.00  0.00    +0.000 A 
ATOM     18  C   UNL     1      -7.546  14.468  20.022  0.00  0.00    +0.000 A 
ATOM     19  C   UNL     1      -6.667  13.826  19.124  0.00  0.00    +0.000 A 
BRANCH  16  20
ATOM     20  C   UNL     1      -7.175  12.382  23.168  0.00  0.00    +0.000 C 
BRANCH  20  21
ATOM     21  C   UNL     1      -6.010  12.793  24.040  0.00  0.00    +0.000 C 
ATOM     22  O   UNL     1      -5.268  11.991  24.571  0.00  0.00    +0.000 OA
BRANCH  21  23
ATOM     23  O   UNL     1      -5.901  14.123  24.251  0.00  0.00    +0.000 OA
ATOM     24  H   UNL     1      -5.455  14.614  23.536  0.00  0.00    +0.000 HD
ENDBRANCH  21  23
ENDBRANCH  20  21
ENDBRANCH  16  20
BRANCH  19  25
ATOM     25  O   UNL     1      -6.441  14.317  17.851  0.00  0.00    +0.000 OA
BRANCH  25  26
ATOM     26  C   UNL     1      -7.568  14.916  17.197  0.00  0.00    +0.000 C 
ATOM     27  C   UNL     1      -7.215  16.270  16.611  0.00  0.00    +0.000 C 
ENDBRANCH  25  26
ENDBRANCH  19  25
ENDBRANCH  11  14
BRANCH   1  28
ATOM     28  O   UNL     1      -0.366  11.715  22.616  0.00  0.00    +0.000 OA
BRANCH  28  29
ATOM     29  C   UNL     1      -0.604  10.375  23.057  0.00  0.00    +0.000 C 
BRANCH  29  30
ATOM     30  C   UNL     1      -0.803   9.302  21.977  0.00  0.00    +0.000 C 
BRANCH  30  32
ATOM     31  C   UNL     1       1.711   9.028  22.295  0.00  0.00    +0.000 C 
ATOM     32  C   UNL     1       0.552   9.027  21.315  0.00  0.00    +0.000 C 
ENDBRANCH  30  32
ENDBRANCH  29  30
ENDBRANCH  28  29
ENDBRANCH   1  28
TORSDOF 10
ENDMDL
MODEL 6
REMARK VINA RESULT:      -6.5      7.184     11.551
REMARK  Name = 
REMARK  12 active torsions:
REMARK  status: ('A' for Active; 'I' for Inactive)
REMARK    1  A    between atoms: C_1  and  C_2
REMARK    2  A    between atoms: C_2  and  C_3
REMARK    3  A    between atoms: C_3  and  C_4
REMARK    4  A    between atoms: C_4  and  O_5
REMARK    5  A    between atoms: O_5  and  C_6
REMARK    6  A    between atoms: C_16  and  C_17
REMARK    7  A    between atoms: C_19  and  C_20
REMARK    8  A    between atoms: C_20  and  C_21
REMARK    9  A    between atoms: C_21  and  O_23
REMARK   10  A    between atoms: C_26  and  O_27
REMARK   11  A    between atoms: O_27  and  C_28
REMARK   12  A    between atoms: C_28  and  C_29
REMARK                            x       y       z     vdW  Elec       q    Type
REMARK                         _______ _______ _______ _____ _____    ______ ____
ROOT
ATOM      1  C   UNL     1       1.389  13.636  18.616  0.00  0.00    +0.000 C 
ATOM      2  O   UNL     1       0.784  14.698  18.562  0.00  0.00    +0.000 OA
ATOM      3  N   UNL     1       0.892  12.513  19.244  0.00  0.00    +0.000 N 
ATOM      4  C   UNL     1       0.937  11.214  18.618  0.00  0.00    +0.000 C 
ATOM      5  C   UNL     1       1.168  10.143  19.672  0.00  0.00    +0.000 C 
ATOM      6  C   UNL     1       0.330  10.349  20.917  0.00  0.00    +0.000 A 
ATOM      7  C   UNL     1       0.265   9.318  21.850  0.00  0.00    +0.000 A 
ATOM      8  F   UNL     1       0.933   8.175  21.630  0.00  0.00    +0.000 F 
ATOM      9  C   UNL     1      -0.469   9.451  23.016  0.00  0.00    +0.000 A 
ATOM     10  C   UNL     1      -1.190  10.628  23.262  0.00  0.00    +0.000 A 
ATOM     11  C   UNL     1      -1.177  11.709  22.358  0.00  0.00    +0.000 A 
ATOM     12  C   UNL     1      -0.353  11.571  21.184  0.00  0.00    +0.000 A 
ATOM     13  C   UNL     1      -0.183  12.707  20.186  0.00  0.00    +0.000 C 
ENDROOT
BRANCH  11  14
ATOM     14  C   UNL     1      -2.027  12.924  22.627  0.00  0.00    +0.000 A 
ATOM     15  C   UNL     1      -3.425  12.828  22.447  0.00  0.00    +0.000 A 
ATOM     16  C   UNL     1      -4.331  13.727  23.016  0.00  0.00    +0.000 A 
ATOM     17  C   UNL     1      -3.843  14.910  23.544  0.00  0.00    +0.000 A 
ATOM     18  C   UNL     1      -2.470  15.143  23.549  0.00  0.00    +0.000 A 
ATOM     19  C   UNL     1      -1.546  14.157  23.142  0.00  0.00    +0.000 A 
BRANCH  16  20
ATOM     20  C   UNL     1      -5.800  13.386  23.100  0.00  0.00    +0.000 C 
BRANCH  20  21
ATOM     21  C   UNL     1      -6.163  12.288  24.075  0.00  0.00    +0.000 C 
ATOM     22  O   UNL     1      -7.226  11.701  24.042  0.00  0.00    +0.000 OA
BRANCH  21  23
ATOM     23  O   UNL     1      -5.244  12.059  25.039  0.00  0.00    +0.000 OA
ATOM     24  H   UNL     1      -4.645  11.311  24.862  0.00  0.00    +0.000 HD
ENDBRANCH  21  23
ENDBRANCH  20  21
ENDBRANCH  16  20
BRANCH  19  25
ATOM     25  O   UNL     1      -0.181  14.363  23.216  0.00  0.00    +0.000 OA
BRANCH  25  26
ATOM     26  C   UNL     1       0.320  15.518  22.529  0.00  0.00    +0.000 C 
ATOM     27  C   UNL     1       1.713  15.276  21.978  0.00  0.00    +0.000 C 
ENDBRANCH  25  26
ENDBRANCH  19  25
ENDBRANCH  11  14
BRANCH   1  28
ATOM     28  O   UNL     1       2.641  13.430  18.137  0.00  0.00    +0.000 OA
BRANCH  28  29
ATOM     29  C   UNL     1       3.445  14.595  17.928  0.00  0.00    +0.000 C 
BRANCH  29  30
ATOM     30  C   UNL     1       4.675  14.774  18.830  0.00  0.00    +0.000 C 
BRANCH  30  32
ATOM     31  C   UNL     1       6.875  14.174  17.693  0.00  0.00    +0.000 C 
ATOM     32  C   UNL     1       5.843  15.254  17.963  0.00  0.00    +0.000 C 
ENDBRANCH  30  32
ENDBRANCH  29  30
ENDBRANCH  28  29
ENDBRANCH   1  28
TORSDOF 10
ENDMDL
MODEL 7
REMARK VINA RESULT:      -6.5      1.094      1.256
REMARK  Name = 
REMARK  12 active torsions:
REMARK  status: ('A' for Active; 'I' for Inactive)
REMARK    1  A    between atoms: C_1  and  C_2
REMARK    2  A    between atoms: C_2  and  C_3
REMARK    3  A    between atoms: C_3  and  C_4
REMARK    4  A    between atoms: C_4  and  O_5
REMARK    5  A    between atoms: O_5  and  C_6
REMARK    6  A    between atoms: C_16  and  C_17
REMARK    7  A    between atoms: C_19  and  C_20
REMARK    8  A    between atoms: C_20  and  C_21
REMARK    9  A    between atoms: C_21  and  O_23
REMARK   10  A    between atoms: C_26  and  O_27
REMARK   11  A    between atoms: O_27  and  C_28
REMARK   12  A    between atoms: C_28  and  C_29
REMARK                            x       y       z     vdW  Elec       q    Type
REMARK                         _______ _______ _______ _____ _____    ______ ____
ROOT
ATOM      1  C   UNL     1       2.308   8.003  18.071  0.00  0.00    +0.000 C 
ATOM      2  O   UNL     1       3.138   8.662  17.460  0.00  0.00    +0.000 OA
ATOM      3  N   UNL     1       2.538   6.718  18.516  0.00  0.00    +0.000 N 
ATOM      4  C   UNL     1       2.195   6.308  19.856  0.00  0.00    +0.000 C 
ATOM      5  C   UNL     1       1.729   4.861  19.847  0.00  0.00    +0.000 C 
ATOM      6  C   UNL     1       2.597   3.966  18.986  0.00  0.00    +0.000 A 
ATOM      7  C   UNL     1       2.428   2.588  19.083  0.00  0.00    +0.000 A 
ATOM      8  F   UNL     1       1.517   2.085  19.929  0.00  0.00    +0.000 F 
ATOM      9  C   UNL     1       3.178   1.718  18.310  0.00  0.00    +0.000 A 
ATOM     10  C   UNL     1       4.149   2.217  17.431  0.00  0.00    +0.000 A 
ATOM     11  C   UNL     1       4.380   3.600  17.288  0.00  0.00    +0.000 A 
ATOM     12  C   UNL     1       3.542   4.487  18.055  0.00  0.00    +0.000 A 
ATOM     13  C   UNL     1       3.632   5.999  17.911  0.00  0.00    +0.000 C 
ENDROOT
BRANCH  11  14
ATOM     14  C   UNL     1       5.486   4.088  16.388  0.00  0.00    +0.000 A 
ATOM     15  C   UNL     1       5.743   3.389  15.187  0.00  0.00    +0.000 A 
ATOM     16  C   UNL     1       6.451   3.945  14.118  0.00  0.00    +0.000 A 
ATOM     17  C   UNL     1       7.165   5.111  14.335  0.00  0.00    +0.000 A 
ATOM     18  C   UNL     1       7.110   5.726  15.583  0.00  0.00    +0.000 A 
ATOM     19  C   UNL     1       6.251   5.265  16.603  0.00  0.00    +0.000 A 
BRANCH  16  20
ATOM     20  C   UNL     1       6.389   3.314  12.747  0.00  0.00    +0.000 C 
BRANCH  20  21
ATOM     21  C   UNL     1       5.017   3.255  12.114  0.00  0.00    +0.000 C 
ATOM     22  O   UNL     1       4.135   4.048  12.375  0.00  0.00    +0.000 OA
BRANCH  21  23
ATOM     23  O   UNL     1       4.817   2.203  11.288  0.00  0.00    +0.000 OA
ATOM     24  H   UNL     1       5.616   1.679  11.096  0.00  0.00    +0.000 HD
ENDBRANCH  21  23
ENDBRANCH  20  21
ENDBRANCH  16  20
BRANCH  19  25
ATOM     25  O   UNL     1       6.144   5.920  17.816  0.00  0.00    +0.000 OA
BRANCH  25  26
ATOM     26  C   UNL     1       7.355   6.488  18.334  0.00  0.00    +0.000 C 
ATOM     27  C   UNL     1       7.897   5.676  19.496  0.00  0.00    +0.000 C 
ENDBRANCH  25  26
ENDBRANCH  19  25
ENDBRANCH  11  14
BRANCH   1  28
ATOM     28  O   UNL     1       1.040   8.406  18.335  0.00  0.00    +0.000 OA
BRANCH  28  29
ATOM     29  C   UNL     1       0.706   9.749  17.971  0.00  0.00    +0.000 C 
BRANCH  29  30
ATOM     30  C   UNL     1      -0.693  10.255  18.349  0.00  0.00    +0.000 C 
BRANCH  30  32
ATOM     31  C   UNL     1      -3.080   9.745  17.618  0.00  0.00    +0.000 C 
ATOM     32  C   UNL     1      -1.643   9.966  17.182  0.00  0.00    +0.000 C 
ENDBRANCH  30  32
ENDBRANCH  29  30
ENDBRANCH  28  29
ENDBRANCH   1  28
TORSDOF 10
ENDMDL
MODEL 8
REMARK VINA RESULT:      -6.4      5.137     11.837
REMARK  Name = 
REMARK  12 active torsions:
REMARK  status: ('A' for Active; 'I' for Inactive)
REMARK    1  A    between atoms: C_1  and  C_2
REMARK    2  A    between atoms: C_2  and  C_3
REMARK    3  A    between atoms: C_3  and  C_4
REMARK    4  A    between atoms: C_4  and  O_5
REMARK    5  A    between atoms: O_5  and  C_6
REMARK    6  A    between atoms: C_16  and  C_17
REMARK    7  A    between atoms: C_19  and  C_20
REMARK    8  A    between atoms: C_20  and  C_21
REMARK    9  A    between atoms: C_21  and  O_23
REMARK   10  A    between atoms: C_26  and  O_27
REMARK   11  A    between atoms: O_27  and  C_28
REMARK   12  A    between atoms: C_28  and  C_29
REMARK                            x       y       z     vdW  Elec       q    Type
REMARK                         _______ _______ _______ _____ _____    ______ ____
ROOT
ATOM      1  C   UNL     1       0.363   9.532  20.462  0.00  0.00    +0.000 C 
ATOM      2  O   UNL     1       0.697  10.087  21.500  0.00  0.00    +0.000 OA
ATOM      3  N   UNL     1      -0.492  10.101  19.541  0.00  0.00    +0.000 N 
ATOM      4  C   UNL     1      -0.197  10.090  18.128  0.00  0.00    +0.000 C 
ATOM      5  C   UNL     1      -1.486   9.944  17.336  0.00  0.00    +0.000 C 
ATOM      6  C   UNL     1      -2.606  10.817  17.863  0.00  0.00    +0.000 A 
ATOM      7  C   UNL     1      -3.754  10.961  17.090  0.00  0.00    +0.000 A 
ATOM      8  F   UNL     1      -3.844  10.336  15.906  0.00  0.00    +0.000 F 
ATOM      9  C   UNL     1      -4.820  11.731  17.525  0.00  0.00    +0.000 A 
ATOM     10  C   UNL     1      -4.744  12.408  18.750  0.00  0.00    +0.000 A 
ATOM     11  C   UNL     1      -3.609  12.315  19.581  0.00  0.00    +0.000 A 
ATOM     12  C   UNL     1      -2.541  11.456  19.136  0.00  0.00    +0.000 A 
ATOM     13  C   UNL     1      -1.310  11.199  19.992  0.00  0.00    +0.000 C 
ENDROOT
BRANCH  11  14
ATOM     14  C   UNL     1      -3.541  13.120  20.852  0.00  0.00    +0.000 A 
ATOM     15  C   UNL     1      -4.414  12.791  21.913  0.00  0.00    +0.000 A 
ATOM     16  C   UNL     1      -4.193  13.189  23.234  0.00  0.00    +0.000 A 
ATOM     17  C   UNL     1      -3.245  14.167  23.478  0.00  0.00    +0.000 A 
ATOM     18  C   UNL     1      -2.501  14.680  22.419  0.00  0.00    +0.000 A 
ATOM     19  C   UNL     1      -2.596  14.147  21.116  0.00  0.00    +0.000 A 
BRANCH  16  20
ATOM     20  C   UNL     1      -4.936  12.524  24.370  0.00  0.00    +0.000 C 
BRANCH  20  21
ATOM     21  C   UNL     1      -6.444  12.606  24.303  0.00  0.00    +0.000 C 
ATOM     22  O   UNL     1      -7.147  11.647  24.053  0.00  0.00    +0.000 OA
BRANCH  21  23
ATOM     23  O   UNL     1      -6.952  13.848  24.468  0.00  0.00    +0.000 OA
ATOM     24  H   UNL     1      -6.411  14.564  24.089  0.00  0.00    +0.000 HD
ENDBRANCH  21  23
ENDBRANCH  20  21
ENDBRANCH  16  20
BRANCH  19  25
ATOM     25  O   UNL     1      -1.803  14.608  20.081  0.00  0.00    +0.000 OA
BRANCH  25  26
ATOM     26  C   UNL     1      -0.504  15.090  20.449  0.00  0.00    +0.000 C 
ATOM     27  C   UNL     1       0.260  15.606  19.243  0.00  0.00    +0.000 C 
ENDBRANCH  25  26
ENDBRANCH  19  25
ENDBRANCH  11  14
BRANCH   1  28
ATOM     28  O   UNL     1       0.720   8.274  20.105  0.00  0.00    +0.000 OA
BRANCH  28  29
ATOM     29  C   UNL     1       2.098   8.069  19.774  0.00  0.00    +0.000 C 
BRANCH  29  30
ATOM     30  C   UNL     1       2.408   7.415  18.421  0.00  0.00    +0.000 C 
BRANCH  30  32
ATOM     31  C   UNL     1       2.003   4.935  17.996  0.00  0.00    +0.000 C 
ATOM     32  C   UNL     1       2.873   5.977  18.675  0.00  0.00    +0.000 C 
ENDBRANCH  30  32
ENDBRANCH  29  30
ENDBRANCH  28  29
ENDBRANCH   1  28
TORSDOF 10
ENDMDL
MODEL 9
REMARK VINA RESULT:      -6.4      5.168     11.479
REMARK  Name = 
REMARK  12 active torsions:
REMARK  status: ('A' for Active; 'I' for Inactive)
REMARK    1  A    between atoms: C_1  and  C_2
REMARK    2  A    between atoms: C_2  and  C_3
REMARK    3  A    between atoms: C_3  and  C_4
REMARK    4  A    between atoms: C_4  and  O_5
REMARK    5  A    between atoms: O_5  and  C_6
REMARK    6  A    between atoms: C_16  and  C_17
REMARK    7  A    between atoms: C_19  and  C_20
REMARK    8  A    between atoms: C_20  and  C_21
REMARK    9  A    between atoms: C_21  and  O_23
REMARK   10  A    between atoms: C_26  and  O_27
REMARK   11  A    between atoms: O_27  and  C_28
REMARK   12  A    between atoms: C_28  and  C_29
REMARK                            x       y       z     vdW  Elec       q    Type
REMARK                         _______ _______ _______ _____ _____    ______ ____
ROOT
ATOM      1  C   UNL     1       1.032   8.926  21.383  0.00  0.00    +0.000 C 
ATOM      2  O   UNL     1       1.258   9.466  22.458  0.00  0.00    +0.000 OA
ATOM      3  N   UNL     1       0.405   9.563  20.333  0.00  0.00    +0.000 N 
ATOM      4  C   UNL     1       0.916   9.485  18.986  0.00  0.00    +0.000 C 
ATOM      5  C   UNL     1      -0.238   9.463  17.998  0.00  0.00    +0.000 C 
ATOM      6  C   UNL     1      -1.322  10.468  18.333  0.00  0.00    +0.000 A 
ATOM      7  C   UNL     1      -2.309  10.719  17.385  0.00  0.00    +0.000 A 
ATOM      8  F   UNL     1      -2.280  10.080  16.206  0.00  0.00    +0.000 F 
ATOM      9  C   UNL     1      -3.335  11.613  17.638  0.00  0.00    +0.000 A 
ATOM     10  C   UNL     1      -3.379  12.307  18.854  0.00  0.00    +0.000 A 
ATOM     11  C   UNL     1      -2.408  12.110  19.858  0.00  0.00    +0.000 A 
ATOM     12  C   UNL     1      -1.387  11.127  19.596  0.00  0.00    +0.000 A 
ATOM     13  C   UNL     1      -0.345  10.756  20.640  0.00  0.00    +0.000 C 
ENDROOT
BRANCH  11  14
ATOM     14  C   UNL     1      -2.452  12.934  21.118  0.00  0.00    +0.000 A 
ATOM     15  C   UNL     1      -3.451  12.656  22.077  0.00  0.00    +0.000 A 
ATOM     16  C   UNL     1      -3.364  13.068  23.410  0.00  0.00    +0.000 A 
ATOM     17  C   UNL     1      -2.412  14.014  23.747  0.00  0.00    +0.000 A 
ATOM     18  C   UNL     1      -1.533  14.480  22.773  0.00  0.00    +0.000 A 
ATOM     19  C   UNL     1      -1.503  13.928  21.474  0.00  0.00    +0.000 A 
BRANCH  16  20
ATOM     20  C   UNL     1      -4.255  12.451  24.463  0.00  0.00    +0.000 C 
BRANCH  20  21
ATOM     21  C   UNL     1      -5.735  12.719  24.308  0.00  0.00    +0.000 C 
ATOM     22  O   UNL     1      -6.543  11.843  24.071  0.00  0.00    +0.000 OA
BRANCH  21  23
ATOM     23  O   UNL     1      -6.086  14.022  24.376  0.00  0.00    +0.000 OA
ATOM     24  H   UNL     1      -5.874  14.544  23.581  0.00  0.00    +0.000 HD
ENDBRANCH  21  23
ENDBRANCH  20  21
ENDBRANCH  16  20
BRANCH  19  25
ATOM     25  O   UNL     1      -0.581  14.342  20.529  0.00  0.00    +0.000 OA
BRANCH  25  26
ATOM     26  C   UNL     1      -0.242  15.735  20.548  0.00  0.00    +0.000 C 
ATOM     27  C   UNL     1      -1.109  16.531  19.590  0.00  0.00    +0.000 C 
ENDBRANCH  25  26
ENDBRANCH  19  25
ENDBRANCH  11  14
BRANCH   1  28
ATOM     28  O   UNL     1       1.297   7.627  21.097  0.00  0.00    +0.000 OA
BRANCH  28  29
ATOM     29  C   UNL     1       2.259   7.383  20.066  0.00  0.00    +0.000 C 
BRANCH  29  30
ATOM     30  C   UNL     1       2.387   5.944  19.548  0.00  0.00    +0.000 C 
BRANCH  30  32
ATOM     31  C   UNL     1       1.046   3.819  19.974  0.00  0.00    +0.000 C 
ATOM     32  C   UNL     1       1.774   5.000  20.588  0.00  0.00    +0.000 C 
ENDBRANCH  30  32
ENDBRANCH  29  30
ENDBRANCH  28  29
ENDBRANCH   1  28
TORSDOF 10
ENDMDL
