MODEL 1
REMARK VINA RESULT:      -8.0      0.000      0.000
REMARK  Name = 
REMARK  6 active torsions:
REMARK  status: ('A' for Active; 'I' for Inactive)
REMARK    1  A    between atoms: C_1  and  C_2
REMARK    2  A    between atoms: N_4  and  C_5
REMARK    3  A    between atoms: C_5  and  C_6
REMARK    4  A    between atoms: C_5  and  C_7
REMARK    5  A    between atoms: C_10  and  C_11
REMARK    6  A    between atoms: C_11  and  N_12
REMARK                            x       y       z     vdW  Elec       q    Type
REMARK                         _______ _______ _______ _____ _____    ______ ____
ROOT
ATOM      1  C   UNL     1       5.860   3.809  13.071  0.00  0.00    +0.000 A 
ATOM      2  C   UNL     1       4.843   4.069  14.006  0.00  0.00    +0.000 A 
ATOM      3  C   UNL     1       5.121   4.747  15.195  0.00  0.00    +0.000 A 
ATOM      4  C   UNL     1       6.421   5.196  15.468  0.00  0.00    +0.000 A 
ATOM      5  C   UNL     1       7.443   4.900  14.558  0.00  0.00    +0.000 A 
ATOM      6  C   UNL     1       7.166   4.211  13.381  0.00  0.00    +0.000 A 
ENDROOT
BRANCH   1   7
ATOM      7  C   UNL     1       5.526   3.110  11.764  0.00  0.00    +0.000 C 
ATOM      8  C   UNL     1       4.158   3.552  11.244  0.00  0.00    +0.000 C 
BRANCH   7  12
ATOM      9  C   UNL     1       6.205  -0.595  11.383  0.00  0.00    +0.000 C 
ATOM     10  C   UNL     1       6.345   0.876  11.101  0.00  0.00    +0.000 C 
ATOM     11  O   UNL     1       7.078   1.305  10.209  0.00  0.00    +0.000 OA
ATOM     12  N   UNL     1       5.586   1.667  11.925  0.00  0.00    +0.000 N 
ATOM     13  H   UNL     1       5.006   1.228  12.628  0.00  0.00    +0.000 HD
ENDBRANCH   7  12
ENDBRANCH   1   7
BRANCH   4  14
ATOM     14  C   UNL     1       6.697   6.137  16.614  0.00  0.00    +0.000 C 
BRANCH  14  15
ATOM     15  N   UNL     1       5.970   5.955  17.886  0.00  0.00    +0.000 NA
ATOM     16  C   UNL     1       6.284   4.572  18.317  0.00  0.00    +0.000 C 
ATOM     17  C   UNL     1       5.277   3.946  19.246  0.00  0.00    +0.000 C 
ATOM     18  C   UNL     1       3.962   3.948  18.534  0.00  0.00    +0.000 A 
ATOM     19  C   UNL     1       3.175   2.825  18.293  0.00  0.00    +0.000 A 
ATOM     20 CL   UNL     1       3.858   1.242  18.272  0.00  0.00    +0.000 Cl
ATOM     21  C   UNL     1       1.832   2.981  17.972  0.00  0.00    +0.000 A 
ATOM     22  C   UNL     1       1.286   4.266  17.905  0.00  0.00    +0.000 A 
ATOM     23  C   UNL     1       2.132   5.378  17.937  0.00  0.00    +0.000 A 
ATOM     24  C   UNL     1       3.511   5.208  18.128  0.00  0.00    +0.000 A 
ATOM     25  C   UNL     1       4.522   6.309  17.849  0.00  0.00    +0.000 C 
ENDBRANCH  14  15
ENDBRANCH   4  14
TORSDOF 4
ENDMDL
MODEL 2
REMARK VINA RESULT:      -7.7      1.490      1.939
REMARK  Name = 
REMARK  6 active torsions:
REMARK  status: ('A' for Active; 'I' for Inactive)
REMARK    1  A    between atoms: C_1  and  C_2
REMARK    2  A    between atoms: N_4  and  C_5
REMARK    3  A    between atoms: C_5  and  C_6
REMARK    4  A    between atoms: C_5  and  C_7
REMARK    5  A    between atoms: C_10  and  C_11
REMARK    6  A    between atoms: C_11  and  N_12
REMARK                            x       y       z     vdW  Elec       q    Type
REMARK                         _______ _______ _______ _____ _____    ______ ____
ROOT
ATOM      1  C   UNL     1       6.194   4.406  14.236  0.00  0.00    +0.000 A 
ATOM      2  C   UNL     1       4.929   4.380  14.848  0.00  0.00    +0.000 A 
ATOM      3  C   UNL     1       4.736   4.933  16.115  0.00  0.00    +0.000 A 
ATOM      4  C   UNL     1       5.802   5.542  16.793  0.00  0.00    +0.000 A 
ATOM      5  C   UNL     1       7.072   5.530  16.205  0.00  0.00    +0.000 A 
ATOM      6  C   UNL     1       7.265   4.964  14.948  0.00  0.00    +0.000 A 
ENDROOT
BRANCH   1   7
ATOM      7  C   UNL     1       6.372   3.839  12.838  0.00  0.00    +0.000 C 
ATOM      8  C   UNL     1       7.438   4.616  12.066  0.00  0.00    +0.000 C 
BRANCH   7  12
ATOM      9  C   UNL     1       3.407   2.992  10.640  0.00  0.00    +0.000 C 
ATOM     10  C   UNL     1       4.707   2.765  11.361  0.00  0.00    +0.000 C 
ATOM     11  O   UNL     1       5.337   1.711  11.261  0.00  0.00    +0.000 OA
ATOM     12  N   UNL     1       5.106   3.833  12.124  0.00  0.00    +0.000 N 
ATOM     13  H   UNL     1       4.529   4.664  12.142  0.00  0.00    +0.000 HD
ENDBRANCH   7  12
ENDBRANCH   1   7
BRANCH   4  14
ATOM     14  C   UNL     1       5.569   6.358  18.041  0.00  0.00    +0.000 C 
BRANCH  14  15
ATOM     15  N   UNL     1       5.057   5.690  19.253  0.00  0.00    +0.000 NA
ATOM     16  C   UNL     1       5.639   4.328  19.220  0.00  0.00    +0.000 C 
ATOM     17  C   UNL     1       4.876   3.286  19.995  0.00  0.00    +0.000 C 
ATOM     18  C   UNL     1       3.493   3.240  19.427  0.00  0.00    +0.000 A 
ATOM     19  C   UNL     1       2.868   2.102  18.924  0.00  0.00    +0.000 A 
ATOM     20 CL   UNL     1       3.782   0.749  18.370  0.00  0.00    +0.000 Cl
ATOM     21  C   UNL     1       1.486   2.086  18.775  0.00  0.00    +0.000 A 
ATOM     22  C   UNL     1       0.741   3.209  19.144  0.00  0.00    +0.000 A 
ATOM     23  C   UNL     1       1.398   4.406  19.441  0.00  0.00    +0.000 A 
ATOM     24  C   UNL     1       2.800   4.454  19.458  0.00  0.00    +0.000 A 
ATOM     25  C   UNL     1       3.579   5.760  19.443  0.00  0.00    +0.000 C 
ENDBRANCH  14  15
ENDBRANCH   4  14
TORSDOF 4
ENDMDL
MODEL 3
REMARK VINA RESULT:      -7.6      5.026      8.630
REMARK  Name = 
REMARK  6 active torsions:
REMARK  status: ('A' for Active; 'I' for Inactive)
REMARK    1  A    between atoms: C_1  and  C_2
REMARK    2  A    between atoms: N_4  and  C_5
REMARK    3  A    between atoms: C_5  and  C_6
REMARK    4  A    between atoms: C_5  and  C_7
REMARK    5  A    between atoms: C_10  and  C_11
REMARK    6  A    between atoms: C_11  and  N_12
REMARK                            x       y       z     vdW  Elec       q    Type
REMARK                         _______ _______ _______ _____ _____    ______ ____
ROOT
ATOM      1  C   UNL     1       1.470   8.784  19.664  0.00  0.00    +0.000 A 
ATOM      2  C   UNL     1       2.013   8.364  18.438  0.00  0.00    +0.000 A 
ATOM      3  C   UNL     1       2.409   7.038  18.248  0.00  0.00    +0.000 A 
ATOM      4  C   UNL     1       2.254   6.098  19.277  0.00  0.00    +0.000 A 
ATOM      5  C   UNL     1       1.754   6.525  20.513  0.00  0.00    +0.000 A 
ATOM      6  C   UNL     1       1.375   7.849  20.705  0.00  0.00    +0.000 A 
ENDROOT
BRANCH   1   7
ATOM      7  C   UNL     1       1.004  10.221  19.834  0.00  0.00    +0.000 C 
ATOM      8  C   UNL     1       0.786  10.552  21.310  0.00  0.00    +0.000 C 
BRANCH   7  12
ATOM      9  C   UNL     1      -1.834  11.759  17.855  0.00  0.00    +0.000 C 
ATOM     10  C   UNL     1      -0.505  11.702  18.558  0.00  0.00    +0.000 C 
ATOM     11  O   UNL     1       0.223  12.691  18.662  0.00  0.00    +0.000 OA
ATOM     12  N   UNL     1      -0.201  10.463  19.058  0.00  0.00    +0.000 N 
ATOM     13  H   UNL     1      -0.863   9.708  18.932  0.00  0.00    +0.000 HD
ENDBRANCH   7  12
ENDBRANCH   1   7
BRANCH   4  14
ATOM     14  C   UNL     1       2.440   4.623  19.020  0.00  0.00    +0.000 C 
BRANCH  14  15
ATOM     15  N   UNL     1       3.806   4.064  18.986  0.00  0.00    +0.000 NA
ATOM     16  C   UNL     1       4.678   5.141  19.510  0.00  0.00    +0.000 C 
ATOM     17  C   UNL     1       6.120   5.064  19.082  0.00  0.00    +0.000 C 
ATOM     18  C   UNL     1       6.137   5.108  17.587  0.00  0.00    +0.000 A 
ATOM     19  C   UNL     1       6.840   6.032  16.817  0.00  0.00    +0.000 A 
ATOM     20 CL   UNL     1       7.309   7.561  17.460  0.00  0.00    +0.000 Cl
ATOM     21  C   UNL     1       7.089   5.761  15.477  0.00  0.00    +0.000 A 
ATOM     22  C   UNL     1       6.642   4.559  14.922  0.00  0.00    +0.000 A 
ATOM     23  C   UNL     1       5.761   3.751  15.647  0.00  0.00    +0.000 A 
ATOM     24  C   UNL     1       5.402   4.099  16.957  0.00  0.00    +0.000 A 
ATOM     25  C   UNL     1       4.220   3.473  17.681  0.00  0.00    +0.000 C 
ENDBRANCH  14  15
ENDBRANCH   4  14
TORSDOF 4
ENDMDL
MODEL 4
REMARK VINA RESULT:      -7.5      5.103      8.790
REMARK  Name = 
REMARK  6 active torsions:
REMARK  status: ('A' for Active; 'I' for Inactive)
REMARK    1  A    between atoms: C_1  and  C_2
REMARK    2  A    between atoms: N_4  and  C_5
REMARK    3  A    between atoms: C_5  and  C_6
REMARK    4  A    between atoms: C_5  and  C_7
REMARK    5  A    between atoms: C_10  and  C_11
REMARK    6  A    between atoms: C_11  and  N_12
REMARK                            x       y       z     vdW  Elec       q    Type
REMARK                         _______ _______ _______ _____ _____    ______ ____
ROOT
ATOM      1  C   UNL     1       1.452   8.677  20.113  0.00  0.00    +0.000 A 
ATOM      2  C   UNL     1       1.925   8.506  18.801  0.00  0.00    +0.000 A 
ATOM      3  C   UNL     1       2.299   7.243  18.335  0.00  0.00    +0.000 A 
ATOM      4  C   UNL     1       2.192   6.120  19.168  0.00  0.00    +0.000 A 
ATOM      5  C   UNL     1       1.763   6.296  20.488  0.00  0.00    +0.000 A 
ATOM      6  C   UNL     1       1.405   7.557  20.955  0.00  0.00    +0.000 A 
ENDROOT
BRANCH   1   7
ATOM      7  C   UNL     1       1.008  10.052  20.585  0.00  0.00    +0.000 C 
ATOM      8  C   UNL     1      -0.442  10.020  21.067  0.00  0.00    +0.000 C 
BRANCH   7  12
ATOM      9  C   UNL     1       1.624  13.207  18.584  0.00  0.00    +0.000 C 
ATOM     10  C   UNL     1       1.573  12.326  19.802  0.00  0.00    +0.000 C 
ATOM     11  O   UNL     1       1.855  12.745  20.926  0.00  0.00    +0.000 OA
ATOM     12  N   UNL     1       1.189  11.037  19.532  0.00  0.00    +0.000 N 
ATOM     13  H   UNL     1       0.970  10.781  18.578  0.00  0.00    +0.000 HD
ENDBRANCH   7  12
ENDBRANCH   1   7
BRANCH   4  14
ATOM     14  C   UNL     1       2.351   4.724  18.619  0.00  0.00    +0.000 C 
BRANCH  14  15
ATOM     15  N   UNL     1       3.679   4.080  18.662  0.00  0.00    +0.000 NA
ATOM     16  C   UNL     1       4.581   5.093  19.260  0.00  0.00    +0.000 C 
ATOM     17  C   UNL     1       6.040   4.930  18.923  0.00  0.00    +0.000 C 
ATOM     18  C   UNL     1       6.156   4.993  17.433  0.00  0.00    +0.000 A 
ATOM     19  C   UNL     1       6.964   5.880  16.726  0.00  0.00    +0.000 A 
ATOM     20 CL   UNL     1       7.485   7.368  17.425  0.00  0.00    +0.000 Cl
ATOM     21  C   UNL     1       7.283   5.612  15.400  0.00  0.00    +0.000 A 
ATOM     22  C   UNL     1       6.797   4.449  14.797  0.00  0.00    +0.000 A 
ATOM     23  C   UNL     1       5.823   3.689  15.449  0.00  0.00    +0.000 A 
ATOM     24  C   UNL     1       5.402   4.041  16.740  0.00  0.00    +0.000 A 
ATOM     25  C   UNL     1       4.139   3.482  17.376  0.00  0.00    +0.000 C 
ENDBRANCH  14  15
ENDBRANCH   4  14
TORSDOF 4
ENDMDL
MODEL 5
REMARK VINA RESULT:      -7.5      6.539      8.624
REMARK  Name = 
REMARK  6 active torsions:
REMARK  status: ('A' for Active; 'I' for Inactive)
REMARK    1  A    between atoms: C_1  and  C_2
REMARK    2  A    between atoms: N_4  and  C_5
REMARK    3  A    between atoms: C_5  and  C_6
REMARK    4  A    between atoms: C_5  and  C_7
REMARK    5  A    between atoms: C_10  and  C_11
REMARK    6  A    between atoms: C_11  and  N_12
REMARK                            x       y       z     vdW  Elec       q    Type
REMARK                         _______ _______ _______ _____ _____    ______ ____
ROOT
ATOM      1  C   UNL     1       3.317   6.652  18.292  0.00  0.00    +0.000 A 
ATOM      2  C   UNL     1       2.750   6.495  19.569  0.00  0.00    +0.000 A 
ATOM      3  C   UNL     1       1.905   7.471  20.102  0.00  0.00    +0.000 A 
ATOM      4  C   UNL     1       1.593   8.619  19.360  0.00  0.00    +0.000 A 
ATOM      5  C   UNL     1       2.190   8.797  18.106  0.00  0.00    +0.000 A 
ATOM      6  C   UNL     1       3.044   7.831  17.585  0.00  0.00    +0.000 A 
ENDROOT
BRANCH   1   7
ATOM      7  C   UNL     1       4.197   5.557  17.714  0.00  0.00    +0.000 C 
ATOM      8  C   UNL     1       4.862   6.020  16.418  0.00  0.00    +0.000 C 
BRANCH   7  12
ATOM      9  C   UNL     1       2.824   2.029  17.802  0.00  0.00    +0.000 C 
ATOM     10  C   UNL     1       3.669   3.198  18.227  0.00  0.00    +0.000 C 
ATOM     11  O   UNL     1       4.493   3.114  19.139  0.00  0.00    +0.000 OA
ATOM     12  N   UNL     1       3.430   4.340  17.506  0.00  0.00    +0.000 N 
ATOM     13  H   UNL     1       2.739   4.317  16.768  0.00  0.00    +0.000 HD
ENDBRANCH   7  12
ENDBRANCH   1   7
BRANCH   4  14
ATOM     14  C   UNL     1       0.499   9.560  19.802  0.00  0.00    +0.000 C 
BRANCH  14  15
ATOM     15  N   UNL     1       0.002  10.580  18.858  0.00  0.00    +0.000 NA
ATOM     16  C   UNL     1      -0.272  11.776  19.689  0.00  0.00    +0.000 C 
ATOM     17  C   UNL     1      -1.275  12.741  19.112  0.00  0.00    +0.000 C 
ATOM     18  C   UNL     1      -2.549  11.983  18.912  0.00  0.00    +0.000 A 
ATOM     19  C   UNL     1      -3.786  12.335  19.445  0.00  0.00    +0.000 A 
ATOM     20 CL   UNL     1      -3.906  13.339  20.842  0.00  0.00    +0.000 Cl
ATOM     21  C   UNL     1      -4.947  11.796  18.904  0.00  0.00    +0.000 A 
ATOM     22  C   UNL     1      -4.857  10.916  17.822  0.00  0.00    +0.000 A 
ATOM     23  C   UNL     1      -3.610  10.414  17.443  0.00  0.00    +0.000 A 
ATOM     24  C   UNL     1      -2.445  10.860  18.086  0.00  0.00    +0.000 A 
ATOM     25  C   UNL     1      -1.112  10.138  17.970  0.00  0.00    +0.000 C 
ENDBRANCH  14  15
ENDBRANCH   4  14
TORSDOF 4
ENDMDL
MODEL 6
REMARK VINA RESULT:      -7.5      3.753      4.883
REMARK  Name = 
REMARK  6 active torsions:
REMARK  status: ('A' for Active; 'I' for Inactive)
REMARK    1  A    between atoms: C_1  and  C_2
REMARK    2  A    between atoms: N_4  and  C_5
REMARK    3  A    between atoms: C_5  and  C_6
REMARK    4  A    between atoms: C_5  and  C_7
REMARK    5  A    between atoms: C_10  and  C_11
REMARK    6  A    between atoms: C_11  and  N_12
REMARK                            x       y       z     vdW  Elec       q    Type
REMARK                         _______ _______ _______ _____ _____    ______ ____
ROOT
ATOM      1  C   UNL     1       5.676   4.585  14.977  0.00  0.00    +0.000 A 
ATOM      2  C   UNL     1       5.128   3.821  16.021  0.00  0.00    +0.000 A 
ATOM      3  C   UNL     1       4.719   4.425  17.212  0.00  0.00    +0.000 A 
ATOM      4  C   UNL     1       4.834   5.813  17.378  0.00  0.00    +0.000 A 
ATOM      5  C   UNL     1       5.420   6.570  16.357  0.00  0.00    +0.000 A 
ATOM      6  C   UNL     1       5.841   5.963  15.178  0.00  0.00    +0.000 A 
ENDROOT
BRANCH   1   7
ATOM      7  C   UNL     1       6.072   3.913  13.673  0.00  0.00    +0.000 C 
ATOM      8  C   UNL     1       7.309   4.580  13.071  0.00  0.00    +0.000 C 
BRANCH   7  12
ATOM      9  C   UNL     1       3.668   3.211  10.834  0.00  0.00    +0.000 C 
ATOM     10  C   UNL     1       4.840   2.978  11.747  0.00  0.00    +0.000 C 
ATOM     11  O   UNL     1       5.604   2.023  11.601  0.00  0.00    +0.000 OA
ATOM     12  N   UNL     1       4.962   3.921  12.736  0.00  0.00    +0.000 N 
ATOM     13  H   UNL     1       4.291   4.677  12.777  0.00  0.00    +0.000 HD
ENDBRANCH   7  12
ENDBRANCH   1   7
BRANCH   4  14
ATOM     14  C   UNL     1       4.179   6.516  18.541  0.00  0.00    +0.000 C 
BRANCH  14  15
ATOM     15  N   UNL     1       2.731   6.799  18.489  0.00  0.00    +0.000 NA
ATOM     16  C   UNL     1       2.601   7.995  17.626  0.00  0.00    +0.000 C 
ATOM     17  C   UNL     1       1.352   8.809  17.842  0.00  0.00    +0.000 C 
ATOM     18  C   UNL     1       1.350   9.239  19.274  0.00  0.00    +0.000 A 
ATOM     19  C   UNL     1       1.266  10.556  19.718  0.00  0.00    +0.000 A 
ATOM     20 CL   UNL     1       1.722  11.874  18.704  0.00  0.00    +0.000 Cl
ATOM     21  C   UNL     1       0.898  10.816  21.033  0.00  0.00    +0.000 A 
ATOM     22  C   UNL     1       0.605   9.752  21.889  0.00  0.00    +0.000 A 
ATOM     23  C   UNL     1       0.900   8.445  21.491  0.00  0.00    +0.000 A 
ATOM     24  C   UNL     1       1.402   8.197  20.205  0.00  0.00    +0.000 A 
ATOM     25  C   UNL     1       2.050   6.878  19.814  0.00  0.00    +0.000 C 
ENDBRANCH  14  15
ENDBRANCH   4  14
TORSDOF 4
ENDMDL
MODEL 7
REMARK VINA RESULT:      -7.5      1.254      1.913
REMARK  Name = 
REMARK  6 active torsions:
REMARK  status: ('A' for Active; 'I' for Inactive)
REMARK    1  A    between atoms: C_1  and  C_2
REMARK    2  A    between atoms: N_4  and  C_5
REMARK    3  A    between atoms: C_5  and  C_6
REMARK    4  A    between atoms: C_5  and  C_7
REMARK    5  A    between atoms: C_10  and  C_11
REMARK    6  A    between atoms: C_11  and  N_12
REMARK                            x       y       z     vdW  Elec       q    Type
REMARK                         _______ _______ _______ _____ _____    ______ ____
ROOT
ATOM      1  C   UNL     1       5.830   3.629  13.191  0.00  0.00    +0.000 A 
ATOM      2  C   UNL     1       4.912   3.697  14.254  0.00  0.00    +0.000 A 
ATOM      3  C   UNL     1       5.199   4.441  15.400  0.00  0.00    +0.000 A 
ATOM      4  C   UNL     1       6.405   5.149  15.501  0.00  0.00    +0.000 A 
ATOM      5  C   UNL     1       7.338   5.049  14.463  0.00  0.00    +0.000 A 
ATOM      6  C   UNL     1       7.056   4.294  13.328  0.00  0.00    +0.000 A 
ENDROOT
BRANCH   1   7
ATOM      7  C   UNL     1       5.477   2.851  11.934  0.00  0.00    +0.000 C 
ATOM      8  C   UNL     1       6.730   2.254  11.294  0.00  0.00    +0.000 C 
BRANCH   7  12
ATOM      9  C   UNL     1       2.953   4.348   9.542  0.00  0.00    +0.000 C 
ATOM     10  C   UNL     1       3.487   3.395  10.576  0.00  0.00    +0.000 C 
ATOM     11  O   UNL     1       2.826   2.442  10.992  0.00  0.00    +0.000 OA
ATOM     12  N   UNL     1       4.758   3.694  10.995  0.00  0.00    +0.000 N 
ATOM     13  H   UNL     1       5.230   4.494  10.593  0.00  0.00    +0.000 HD
ENDBRANCH   7  12
ENDBRANCH   1   7
BRANCH   4  14
ATOM     14  C   UNL     1       6.632   6.150  16.608  0.00  0.00    +0.000 C 
BRANCH  14  15
ATOM     15  N   UNL     1       5.888   6.004  17.874  0.00  0.00    +0.000 NA
ATOM     16  C   UNL     1       6.230   4.650  18.370  0.00  0.00    +0.000 C 
ATOM     17  C   UNL     1       5.223   4.038  19.308  0.00  0.00    +0.000 C 
ATOM     18  C   UNL     1       3.921   3.974  18.576  0.00  0.00    +0.000 A 
ATOM     19  C   UNL     1       3.168   2.820  18.372  0.00  0.00    +0.000 A 
ATOM     20 CL   UNL     1       3.892   1.257  18.430  0.00  0.00    +0.000 Cl
ATOM     21  C   UNL     1       1.827   2.927  18.022  0.00  0.00    +0.000 A 
ATOM     22  C   UNL     1       1.249   4.192  17.890  0.00  0.00    +0.000 A 
ATOM     23  C   UNL     1       2.065   5.327  17.888  0.00  0.00    +0.000 A 
ATOM     24  C   UNL     1       3.445   5.203  18.108  0.00  0.00    +0.000 A 
ATOM     25  C   UNL     1       4.432   6.317  17.798  0.00  0.00    +0.000 C 
ENDBRANCH  14  15
ENDBRANCH   4  14
TORSDOF 4
ENDMDL
MODEL 8
REMARK VINA RESULT:      -7.4      5.753      8.154
REMARK  Name = 
REMARK  6 active torsions:
REMARK  status: ('A' for Active; 'I' for Inactive)
REMARK    1  A    between atoms: C_1  and  C_2
REMARK    2  A    between atoms: N_4  and  C_5
REMARK    3  A    between atoms: C_5  and  C_6
REMARK    4  A    between atoms: C_5  and  C_7
REMARK    5  A    between atoms: C_10  and  C_11
REMARK    6  A    between atoms: C_11  and  N_12
REMARK                            x       y       z     vdW  Elec       q    Type
REMARK                         _______ _______ _______ _____ _____    ______ ____
ROOT
ATOM      1  C   UNL     1       3.238   5.410  18.999  0.00  0.00    +0.000 A 
ATOM      2  C   UNL     1       3.303   6.525  18.145  0.00  0.00    +0.000 A 
ATOM      3  C   UNL     1       2.595   7.693  18.438  0.00  0.00    +0.000 A 
ATOM      4  C   UNL     1       1.820   7.778  19.603  0.00  0.00    +0.000 A 
ATOM      5  C   UNL     1       1.720   6.654  20.432  0.00  0.00    +0.000 A 
ATOM      6  C   UNL     1       2.413   5.487  20.130  0.00  0.00    +0.000 A 
ENDROOT
BRANCH   1   7
ATOM      7  C   UNL     1       4.052   4.166  18.684  0.00  0.00    +0.000 C 
ATOM      8  C   UNL     1       3.751   3.051  19.685  0.00  0.00    +0.000 C 
BRANCH   7  12
ATOM      9  C   UNL     1       7.672   4.672  17.699  0.00  0.00    +0.000 C 
ATOM     10  C   UNL     1       6.209   4.389  17.500  0.00  0.00    +0.000 C 
ATOM     11  O   UNL     1       5.740   4.105  16.397  0.00  0.00    +0.000 OA
ATOM     12  N   UNL     1       5.471   4.477  18.653  0.00  0.00    +0.000 N 
ATOM     13  H   UNL     1       5.941   4.709  19.518  0.00  0.00    +0.000 HD
ENDBRANCH   7  12
ENDBRANCH   1   7
BRANCH   4  14
ATOM     14  C   UNL     1       1.252   9.096  20.067  0.00  0.00    +0.000 C 
BRANCH  14  15
ATOM     15  N   UNL     1       0.935  10.135  19.068  0.00  0.00    +0.000 NA
ATOM     16  C   UNL     1       0.511  11.315  19.858  0.00  0.00    +0.000 C 
ATOM     17  C   UNL     1      -0.370  12.293  19.126  0.00  0.00    +0.000 C 
ATOM     18  C   UNL     1      -1.584  11.543  18.679  0.00  0.00    +0.000 A 
ATOM     19  C   UNL     1      -2.899  11.887  18.983  0.00  0.00    +0.000 A 
ATOM     20 CL   UNL     1      -3.276  12.863  20.353  0.00  0.00    +0.000 Cl
ATOM     21  C   UNL     1      -3.939  11.361  18.226  0.00  0.00    +0.000 A 
ATOM     22  C   UNL     1      -3.651  10.502  17.162  0.00  0.00    +0.000 A 
ATOM     23  C   UNL     1      -2.354  10.004  17.010  0.00  0.00    +0.000 A 
ATOM     24  C   UNL     1      -1.329  10.435  17.865  0.00  0.00    +0.000 A 
ATOM     25  C   UNL     1       0.004   9.713  17.983  0.00  0.00    +0.000 C 
ENDBRANCH  14  15
ENDBRANCH   4  14
TORSDOF 4
ENDMDL
MODEL 9
REMARK VINA RESULT:      -7.4      4.975      8.575
REMARK  Name = 
REMARK  6 active torsions:
REMARK  status: ('A' for Active; 'I' for Inactive)
REMARK    1  A    between atoms: C_1  and  C_2
REMARK    2  A    between atoms: N_4  and  C_5
REMARK    3  A    between atoms: C_5  and  C_6
REMARK    4  A    between atoms: C_5  and  C_7
REMARK    5  A    between atoms: C_10  and  C_11
REMARK    6  A    between atoms: C_11  and  N_12
REMARK                            x       y       z     vdW  Elec       q    Type
REMARK                         _______ _______ _______ _____ _____    ______ ____
ROOT
ATOM      1  C   UNL     1       1.602   8.598  19.095  0.00  0.00    +0.000 A 
ATOM      2  C   UNL     1       2.183   7.905  18.019  0.00  0.00    +0.000 A 
ATOM      3  C   UNL     1       2.577   6.572  18.156  0.00  0.00    +0.000 A 
ATOM      4  C   UNL     1       2.381   5.896  19.369  0.00  0.00    +0.000 A 
ATOM      5  C   UNL     1       1.842   6.597  20.454  0.00  0.00    +0.000 A 
ATOM      6  C   UNL     1       1.464   7.930  20.319  0.00  0.00    +0.000 A 
ENDROOT
BRANCH   1   7
ATOM      7  C   UNL     1       1.139  10.033  18.909  0.00  0.00    +0.000 C 
ATOM      8  C   UNL     1       2.209  10.863  18.198  0.00  0.00    +0.000 C 
BRANCH   7  12
ATOM      9  C   UNL     1      -0.425  12.057  21.701  0.00  0.00    +0.000 C 
ATOM     10  C   UNL     1      -0.271  11.496  20.314  0.00  0.00    +0.000 C 
ATOM     11  O   UNL     1      -1.030  11.807  19.394  0.00  0.00    +0.000 OA
ATOM     12  N   UNL     1       0.779  10.624  20.187  0.00  0.00    +0.000 N 
ATOM     13  H   UNL     1       1.356  10.432  20.996  0.00  0.00    +0.000 HD
ENDBRANCH   7  12
ENDBRANCH   1   7
BRANCH   4  14
ATOM     14  C   UNL     1       2.566   4.402  19.469  0.00  0.00    +0.000 C 
BRANCH  14  15
ATOM     15  N   UNL     1       3.890   3.820  19.177  0.00  0.00    +0.000 NA
ATOM     16  C   UNL     1       4.869   4.824  19.655  0.00  0.00    +0.000 C 
ATOM     17  C   UNL     1       6.227   4.755  19.006  0.00  0.00    +0.000 C 
ATOM     18  C   UNL     1       6.020   4.938  17.536  0.00  0.00    +0.000 A 
ATOM     19  C   UNL     1       6.633   5.913  16.753  0.00  0.00    +0.000 A 
ATOM     20 CL   UNL     1       7.247   7.365  17.450  0.00  0.00    +0.000 Cl
ATOM     21  C   UNL     1       6.669   5.763  15.372  0.00  0.00    +0.000 A 
ATOM     22  C   UNL     1       6.100   4.628  14.788  0.00  0.00    +0.000 A 
ATOM     23  C   UNL     1       5.310   3.776  15.564  0.00  0.00    +0.000 A 
ATOM     24  C   UNL     1       5.164   4.007  16.939  0.00  0.00    +0.000 A 
ATOM     25  C   UNL     1       4.082   3.344  17.777  0.00  0.00    +0.000 C 
ENDBRANCH  14  15
ENDBRANCH   4  14
TORSDOF 4
ENDMDL
