MODEL 1
REMARK VINA RESULT:      -5.8      0.000      0.000
REMARK  Name = 
REMARK  4 active torsions:
REMARK  status: ('A' for Active; 'I' for Inactive)
REMARK    1  A    between atoms: C_1  and  C_2
REMARK    2  A    between atoms: C_9  and  C_10
REMARK    3  A    between atoms: C_10  and  C_11
REMARK    4  A    between atoms: C_11  and  O_12
REMARK                            x       y       z     vdW  Elec       q    Type
REMARK                         _______ _______ _______ _____ _____    ______ ____
ROOT
ATOM      1  C   UNL     1       1.535   4.386  17.675  0.00  0.00    +0.000 C 
ATOM      2  C   UNL     1       2.884   4.013  18.224  0.00  0.00    +0.000 A 
ATOM      3  N   UNL     1       3.959   4.633  17.633  0.00  0.00    +0.000 N 
ATOM      4  C   UNL     1       5.262   4.423  17.978  0.00  0.00    +0.000 A 
ATOM      5  O   UNL     1       6.186   4.991  17.405  0.00  0.00    +0.000 OA
ATOM      6  N   UNL     1       5.464   3.539  18.992  0.00  0.00    +0.000 N 
ATOM      7  C   UNL     1       4.487   2.816  19.609  0.00  0.00    +0.000 A 
ATOM      8  O   UNL     1       4.756   1.956  20.440  0.00  0.00    +0.000 OA
ATOM      9  C   UNL     1       3.079   3.120  19.217  0.00  0.00    +0.000 A 
ATOM     10  H   UNL     1       3.822   5.293  16.875  0.00  0.00    +0.000 HD
ATOM     11  H   UNL     1       6.421   3.338  19.241  0.00  0.00    +0.000 HD
ENDROOT
BRANCH   9  12
ATOM     12  C   UNL     1       1.998   2.344  19.935  0.00  0.00    +0.000 C 
BRANCH  12  13
ATOM     13  C   UNL     1       1.453   3.020  21.197  0.00  0.00    +0.000 C 
BRANCH  13  14
ATOM     14  O   UNL     1       2.416   2.982  22.245  0.00  0.00    +0.000 OA
ATOM     15  H   UNL     1       2.020   3.434  23.010  0.00  0.00    +0.000 HD
ENDBRANCH  13  14
ENDBRANCH  12  13
ENDBRANCH   9  12
TORSDOF 3
ENDMDL
MODEL 2
REMARK VINA RESULT:      -5.5      1.575      1.695
REMARK  Name = 
REMARK  4 active torsions:
REMARK  status: ('A' for Active; 'I' for Inactive)
REMARK    1  A    between atoms: C_1  and  C_2
REMARK    2  A    between atoms: C_9  and  C_10
REMARK    3  A    between atoms: C_10  and  C_11
REMARK    4  A    between atoms: C_11  and  O_12
REMARK                            x       y       z     vdW  Elec       q    Type
REMARK                         _______ _______ _______ _____ _____    ______ ____
ROOT
ATOM      1  C   UNL     1       3.033   6.811  18.083  0.00  0.00    +0.000 C 
ATOM      2  C   UNL     1       3.738   5.536  18.454  0.00  0.00    +0.000 A 
ATOM      3  N   UNL     1       5.109   5.569  18.374  0.00  0.00    +0.000 N 
ATOM      4  C   UNL     1       5.928   4.514  18.656  0.00  0.00    +0.000 A 
ATOM      5  O   UNL     1       7.147   4.593  18.552  0.00  0.00    +0.000 OA
ATOM      6  N   UNL     1       5.300   3.375  19.054  0.00  0.00    +0.000 N 
ATOM      7  C   UNL     1       3.949   3.201  19.107  0.00  0.00    +0.000 A 
ATOM      8  O   UNL     1       3.454   2.111  19.369  0.00  0.00    +0.000 OA
ATOM      9  C   UNL     1       3.107   4.403  18.827  0.00  0.00    +0.000 A 
ATOM     10  H   UNL     1       5.590   6.411  18.078  0.00  0.00    +0.000 HD
ATOM     11  H   UNL     1       5.881   2.570  19.232  0.00  0.00    +0.000 HD
ENDROOT
BRANCH   9  12
ATOM     12  C   UNL     1       1.610   4.213  18.930  0.00  0.00    +0.000 C 
BRANCH  12  13
ATOM     13  C   UNL     1       1.055   4.257  20.356  0.00  0.00    +0.000 C 
BRANCH  13  14
ATOM     14  O   UNL     1       0.805   2.942  20.840  0.00  0.00    +0.000 OA
ATOM     15  H   UNL     1       1.073   2.928  21.776  0.00  0.00    +0.000 HD
ENDBRANCH  13  14
ENDBRANCH  12  13
ENDBRANCH   9  12
TORSDOF 3
ENDMDL
MODEL 3
REMARK VINA RESULT:      -5.4      1.712      3.582
REMARK  Name = 
REMARK  4 active torsions:
REMARK  status: ('A' for Active; 'I' for Inactive)
REMARK    1  A    between atoms: C_1  and  C_2
REMARK    2  A    between atoms: C_9  and  C_10
REMARK    3  A    between atoms: C_10  and  C_11
REMARK    4  A    between atoms: C_11  and  O_12
REMARK                            x       y       z     vdW  Elec       q    Type
REMARK                         _______ _______ _______ _____ _____    ______ ____
ROOT
ATOM      1  C   UNL     1       0.996   3.592  20.251  0.00  0.00    +0.000 C 
ATOM      2  C   UNL     1       2.434   3.422  19.847  0.00  0.00    +0.000 A 
ATOM      3  N   UNL     1       3.176   2.571  20.630  0.00  0.00    +0.000 N 
ATOM      4  C   UNL     1       4.497   2.292  20.437  0.00  0.00    +0.000 A 
ATOM      5  O   UNL     1       5.117   1.536  21.178  0.00  0.00    +0.000 OA
ATOM      6  N   UNL     1       5.078   2.912  19.375  0.00  0.00    +0.000 N 
ATOM      7  C   UNL     1       4.465   3.825  18.569  0.00  0.00    +0.000 A 
ATOM      8  O   UNL     1       5.083   4.426  17.698  0.00  0.00    +0.000 OA
ATOM      9  C   UNL     1       3.009   4.057  18.804  0.00  0.00    +0.000 A 
ATOM     10  H   UNL     1       2.756   2.102  21.426  0.00  0.00    +0.000 HD
ATOM     11  H   UNL     1       6.063   2.753  19.233  0.00  0.00    +0.000 HD
ENDROOT
BRANCH   9  12
ATOM     12  C   UNL     1       2.326   5.039  17.879  0.00  0.00    +0.000 C 
BRANCH  12  13
ATOM     13  C   UNL     1       2.479   6.510  18.277  0.00  0.00    +0.000 C 
BRANCH  13  14
ATOM     14  O   UNL     1       3.579   7.105  17.596  0.00  0.00    +0.000 OA
ATOM     15  H   UNL     1       3.848   6.485  16.896  0.00  0.00    +0.000 HD
ENDBRANCH  13  14
ENDBRANCH  12  13
ENDBRANCH   9  12
TORSDOF 3
ENDMDL
MODEL 4
REMARK VINA RESULT:      -5.3      1.780      2.007
REMARK  Name = 
REMARK  4 active torsions:
REMARK  status: ('A' for Active; 'I' for Inactive)
REMARK    1  A    between atoms: C_1  and  C_2
REMARK    2  A    between atoms: C_9  and  C_10
REMARK    3  A    between atoms: C_10  and  C_11
REMARK    4  A    between atoms: C_11  and  O_12
REMARK                            x       y       z     vdW  Elec       q    Type
REMARK                         _______ _______ _______ _____ _____    ______ ____
ROOT
ATOM      1  C   UNL     1       2.372   6.486  18.276  0.00  0.00    +0.000 C 
ATOM      2  C   UNL     1       3.298   5.327  18.517  0.00  0.00    +0.000 A 
ATOM      3  N   UNL     1       4.550   5.652  18.982  0.00  0.00    +0.000 N 
ATOM      4  C   UNL     1       5.536   4.748  19.251  0.00  0.00    +0.000 A 
ATOM      5  O   UNL     1       6.643   5.094  19.648  0.00  0.00    +0.000 OA
ATOM      6  N   UNL     1       5.209   3.444  19.043  0.00  0.00    +0.000 N 
ATOM      7  C   UNL     1       4.027   3.005  18.524  0.00  0.00    +0.000 A 
ATOM      8  O   UNL     1       3.844   1.822  18.261  0.00  0.00    +0.000 OA
ATOM      9  C   UNL     1       2.973   4.037  18.289  0.00  0.00    +0.000 A 
ATOM     10  H   UNL     1       4.807   6.620  19.140  0.00  0.00    +0.000 HD
ATOM     11  H   UNL     1       5.933   2.760  19.198  0.00  0.00    +0.000 HD
ENDROOT
BRANCH   9  12
ATOM     12  C   UNL     1       1.650   3.537  17.754  0.00  0.00    +0.000 C 
BRANCH  12  13
ATOM     13  C   UNL     1       0.781   2.801  18.777  0.00  0.00    +0.000 C 
BRANCH  13  14
ATOM     14  O   UNL     1       0.573   3.605  19.933  0.00  0.00    +0.000 OA
ATOM     15  H   UNL     1      -0.093   3.151  20.478  0.00  0.00    +0.000 HD
ENDBRANCH  13  14
ENDBRANCH  12  13
ENDBRANCH   9  12
TORSDOF 3
ENDMDL
MODEL 5
REMARK VINA RESULT:      -5.3      3.246      4.545
REMARK  Name = 
REMARK  4 active torsions:
REMARK  status: ('A' for Active; 'I' for Inactive)
REMARK    1  A    between atoms: C_1  and  C_2
REMARK    2  A    between atoms: C_9  and  C_10
REMARK    3  A    between atoms: C_10  and  C_11
REMARK    4  A    between atoms: C_11  and  O_12
REMARK                            x       y       z     vdW  Elec       q    Type
REMARK                         _______ _______ _______ _____ _____    ______ ____
ROOT
ATOM      1  C   UNL     1       5.219   6.521  16.015  0.00  0.00    +0.000 C 
ATOM      2  C   UNL     1       6.295   6.647  17.058  0.00  0.00    +0.000 A 
ATOM      3  N   UNL     1       6.942   7.859  17.102  0.00  0.00    +0.000 N 
ATOM      4  C   UNL     1       7.952   8.168  17.965  0.00  0.00    +0.000 A 
ATOM      5  O   UNL     1       8.507   9.262  17.951  0.00  0.00    +0.000 OA
ATOM      6  N   UNL     1       8.303   7.182  18.834  0.00  0.00    +0.000 N 
ATOM      7  C   UNL     1       7.782   5.922  18.842  0.00  0.00    +0.000 A 
ATOM      8  O   UNL     1       8.225   5.052  19.583  0.00  0.00    +0.000 OA
ATOM      9  C   UNL     1       6.652   5.657  17.903  0.00  0.00    +0.000 A 
ATOM     10  H   UNL     1       6.691   8.602  16.459  0.00  0.00    +0.000 HD
ATOM     11  H   UNL     1       9.073   7.373  19.457  0.00  0.00    +0.000 HD
ENDROOT
BRANCH   9  12
ATOM     12  C   UNL     1       6.051   4.270  17.948  0.00  0.00    +0.000 C 
BRANCH  12  13
ATOM     13  C   UNL     1       4.995   4.063  19.037  0.00  0.00    +0.000 C 
BRANCH  13  14
ATOM     14  O   UNL     1       5.202   2.827  19.712  0.00  0.00    +0.000 OA
ATOM     15  H   UNL     1       5.619   2.222  19.074  0.00  0.00    +0.000 HD
ENDBRANCH  13  14
ENDBRANCH  12  13
ENDBRANCH   9  12
TORSDOF 3
ENDMDL
MODEL 6
REMARK VINA RESULT:      -5.2      2.008      3.838
REMARK  Name = 
REMARK  4 active torsions:
REMARK  status: ('A' for Active; 'I' for Inactive)
REMARK    1  A    between atoms: C_1  and  C_2
REMARK    2  A    between atoms: C_9  and  C_10
REMARK    3  A    between atoms: C_10  and  C_11
REMARK    4  A    between atoms: C_11  and  O_12
REMARK                            x       y       z     vdW  Elec       q    Type
REMARK                         _______ _______ _______ _____ _____    ______ ____
ROOT
ATOM      1  C   UNL     1       2.563   6.380  18.174  0.00  0.00    +0.000 C 
ATOM      2  C   UNL     1       2.762   4.945  18.575  0.00  0.00    +0.000 A 
ATOM      3  N   UNL     1       1.659   4.134  18.455  0.00  0.00    +0.000 N 
ATOM      4  C   UNL     1       1.631   2.809  18.778  0.00  0.00    +0.000 A 
ATOM      5  O   UNL     1       0.613   2.134  18.667  0.00  0.00    +0.000 OA
ATOM      6  N   UNL     1       2.804   2.292  19.233  0.00  0.00    +0.000 N 
ATOM      7  C   UNL     1       3.942   3.008  19.457  0.00  0.00    +0.000 A 
ATOM      8  O   UNL     1       4.929   2.496  19.973  0.00  0.00    +0.000 OA
ATOM      9  C   UNL     1       3.923   4.443  19.046  0.00  0.00    +0.000 A 
ATOM     10  H   UNL     1       0.778   4.507  18.118  0.00  0.00    +0.000 HD
ATOM     11  H   UNL     1       2.799   1.324  19.514  0.00  0.00    +0.000 HD
ENDROOT
BRANCH   9  12
ATOM     12  C   UNL     1       5.203   5.220  19.257  0.00  0.00    +0.000 C 
BRANCH  12  13
ATOM     13  C   UNL     1       6.179   5.183  18.077  0.00  0.00    +0.000 C 
BRANCH  13  14
ATOM     14  O   UNL     1       7.047   4.060  18.176  0.00  0.00    +0.000 OA
ATOM     15  H   UNL     1       6.956   3.557  17.348  0.00  0.00    +0.000 HD
ENDBRANCH  13  14
ENDBRANCH  12  13
ENDBRANCH   9  12
TORSDOF 3
ENDMDL
MODEL 7
REMARK VINA RESULT:      -5.2      2.047      2.157
REMARK  Name = 
REMARK  4 active torsions:
REMARK  status: ('A' for Active; 'I' for Inactive)
REMARK    1  A    between atoms: C_1  and  C_2
REMARK    2  A    between atoms: C_9  and  C_10
REMARK    3  A    between atoms: C_10  and  C_11
REMARK    4  A    between atoms: C_11  and  O_12
REMARK                            x       y       z     vdW  Elec       q    Type
REMARK                         _______ _______ _______ _____ _____    ______ ____
ROOT
ATOM      1  C   UNL     1       1.917   5.764  20.437  0.00  0.00    +0.000 C 
ATOM      2  C   UNL     1       3.037   4.865  19.994  0.00  0.00    +0.000 A 
ATOM      3  N   UNL     1       4.234   5.489  19.735  0.00  0.00    +0.000 N 
ATOM      4  C   UNL     1       5.365   4.854  19.313  0.00  0.00    +0.000 A 
ATOM      5  O   UNL     1       6.404   5.462  19.079  0.00  0.00    +0.000 OA
ATOM      6  N   UNL     1       5.259   3.506  19.164  0.00  0.00    +0.000 N 
ATOM      7  C   UNL     1       4.112   2.787  19.325  0.00  0.00    +0.000 A 
ATOM      8  O   UNL     1       4.066   1.590  19.067  0.00  0.00    +0.000 OA
ATOM      9  C   UNL     1       2.919   3.531  19.828  0.00  0.00    +0.000 A 
ATOM     10  H   UNL     1       4.327   6.494  19.841  0.00  0.00    +0.000 HD
ATOM     11  H   UNL     1       6.070   3.018  18.816  0.00  0.00    +0.000 HD
ENDROOT
BRANCH   9  12
ATOM     12  C   UNL     1       1.662   2.719  20.046  0.00  0.00    +0.000 C 
BRANCH  12  13
ATOM     13  C   UNL     1       0.869   2.411  18.773  0.00  0.00    +0.000 C 
BRANCH  13  14
ATOM     14  O   UNL     1       1.046   3.441  17.807  0.00  0.00    +0.000 OA
ATOM     15  H   UNL     1       1.486   3.036  17.039  0.00  0.00    +0.000 HD
ENDBRANCH  13  14
ENDBRANCH  12  13
ENDBRANCH   9  12
TORSDOF 3
ENDMDL
MODEL 8
REMARK VINA RESULT:      -5.2      1.821      2.547
REMARK  Name = 
REMARK  4 active torsions:
REMARK  status: ('A' for Active; 'I' for Inactive)
REMARK    1  A    between atoms: C_1  and  C_2
REMARK    2  A    between atoms: C_9  and  C_10
REMARK    3  A    between atoms: C_10  and  C_11
REMARK    4  A    between atoms: C_11  and  O_12
REMARK                            x       y       z     vdW  Elec       q    Type
REMARK                         _______ _______ _______ _____ _____    ______ ____
ROOT
ATOM      1  C   UNL     1       3.564   1.781  18.948  0.00  0.00    +0.000 C 
ATOM      2  C   UNL     1       4.005   3.217  18.883  0.00  0.00    +0.000 A 
ATOM      3  N   UNL     1       5.363   3.422  18.830  0.00  0.00    +0.000 N 
ATOM      4  C   UNL     1       5.962   4.646  18.778  0.00  0.00    +0.000 A 
ATOM      5  O   UNL     1       7.181   4.772  18.749  0.00  0.00    +0.000 OA
ATOM      6  N   UNL     1       5.116   5.712  18.767  0.00  0.00    +0.000 N 
ATOM      7  C   UNL     1       3.760   5.638  18.882  0.00  0.00    +0.000 A 
ATOM      8  O   UNL     1       3.070   6.647  18.975  0.00  0.00    +0.000 OA
ATOM      9  C   UNL     1       3.161   4.271  18.893  0.00  0.00    +0.000 A 
ATOM     10  H   UNL     1       6.004   2.636  18.839  0.00  0.00    +0.000 HD
ATOM     11  H   UNL     1       5.535   6.629  18.767  0.00  0.00    +0.000 HD
ENDROOT
BRANCH   9  12
ATOM     12  C   UNL     1       1.653   4.197  18.978  0.00  0.00    +0.000 C 
BRANCH  12  13
ATOM     13  C   UNL     1       1.088   4.238  20.400  0.00  0.00    +0.000 C 
BRANCH  13  14
ATOM     14  O   UNL     1       0.686   2.938  20.821  0.00  0.00    +0.000 OA
ATOM     15  H   UNL     1       0.417   2.452  20.022  0.00  0.00    +0.000 HD
ENDBRANCH  13  14
ENDBRANCH  12  13
ENDBRANCH   9  12
TORSDOF 3
ENDMDL
MODEL 9
REMARK VINA RESULT:      -5.2      2.041      2.667
REMARK  Name = 
REMARK  4 active torsions:
REMARK  status: ('A' for Active; 'I' for Inactive)
REMARK    1  A    between atoms: C_1  and  C_2
REMARK    2  A    between atoms: C_9  and  C_10
REMARK    3  A    between atoms: C_10  and  C_11
REMARK    4  A    between atoms: C_11  and  O_12
REMARK                            x       y       z     vdW  Elec       q    Type
REMARK                         _______ _______ _______ _____ _____    ______ ____
ROOT
ATOM      1  C   UNL     1       3.810   7.188  17.448  0.00  0.00    +0.000 C 
ATOM      2  C   UNL     1       4.509   5.932  17.887  0.00  0.00    +0.000 A 
ATOM      3  N   UNL     1       5.848   5.859  17.584  0.00  0.00    +0.000 N 
ATOM      4  C   UNL     1       6.655   4.801  17.886  0.00  0.00    +0.000 A 
ATOM      5  O   UNL     1       7.841   4.780  17.577  0.00  0.00    +0.000 OA
ATOM      6  N   UNL     1       6.053   3.775  18.545  0.00  0.00    +0.000 N 
ATOM      7  C   UNL     1       4.724   3.704  18.841  0.00  0.00    +0.000 A 
ATOM      8  O   UNL     1       4.233   2.698  19.339  0.00  0.00    +0.000 OA
ATOM      9  C   UNL     1       3.901   4.908  18.523  0.00  0.00    +0.000 A 
ATOM     10  H   UNL     1       6.308   6.617  17.092  0.00  0.00    +0.000 HD
ATOM     11  H   UNL     1       6.619   2.965  18.746  0.00  0.00    +0.000 HD
ENDROOT
BRANCH   9  12
ATOM     12  C   UNL     1       2.437   4.839  18.893  0.00  0.00    +0.000 C 
BRANCH  12  13
ATOM     13  C   UNL     1       1.515   4.345  17.774  0.00  0.00    +0.000 C 
BRANCH  13  14
ATOM     14  O   UNL     1       2.080   3.216  17.117  0.00  0.00    +0.000 OA
ATOM     15  H   UNL     1       2.467   3.536  16.284  0.00  0.00    +0.000 HD
ENDBRANCH  13  14
ENDBRANCH  12  13
ENDBRANCH   9  12
TORSDOF 3
ENDMDL
