MODEL 1
REMARK VINA RESULT:      -7.5      0.000      0.000
REMARK  Name = 
REMARK  7 active torsions:
REMARK  status: ('A' for Active; 'I' for Inactive)
REMARK    1  A    between atoms: O_1  and  C_2
REMARK    2  A    between atoms: C_2  and  C_3
REMARK    3  A    between atoms: C_3  and  N_4
REMARK    4  A    between atoms: N_7  and  C_8
REMARK    5  A    between atoms: C_8  and  C_9
REMARK    6  A    between atoms: C_9  and  C_10
REMARK    7  A    between atoms: C_10  and  C_11
REMARK                            x       y       z     vdW  Elec       q    Type
REMARK                         _______ _______ _______ _____ _____    ______ ____
ROOT
ATOM      1  C   UNL     1       2.727   7.207  19.052  0.00  0.00    +0.000 C 
ENDROOT
BRANCH   1   2
ATOM      2  C   UNL     1       2.887   5.826  18.481  0.00  0.00    +0.000 A 
ATOM      3  C   UNL     1       2.186   4.730  18.983  0.00  0.00    +0.000 A 
ATOM      4  C   UNL     1       2.431   3.420  18.527  0.00  0.00    +0.000 A 
ATOM      5  C   UNL     1       3.377   3.154  17.550  0.00  0.00    +0.000 A 
ATOM      6  C   UNL     1       4.070   4.239  17.038  0.00  0.00    +0.000 A 
ATOM      7  C   UNL     1       3.828   5.552  17.485  0.00  0.00    +0.000 A 
ATOM      8  C   UNL     1       4.756   6.516  16.805  0.00  0.00    +0.000 C 
ATOM      9  C   UNL     1       5.291   5.681  15.635  0.00  0.00    +0.000 C 
ATOM     10  C   UNL     1       5.193   4.208  16.049  0.00  0.00    +0.000 C 
ATOM     11  C   UNL     1       1.542   2.433  19.220  0.00  0.00    +0.000 C 
ATOM     12  C   UNL     1       1.077   3.244  20.435  0.00  0.00    +0.000 C 
ATOM     13  C   UNL     1       1.090   4.717  20.011  0.00  0.00    +0.000 C 
ENDBRANCH   1   2
BRANCH   1  14
ATOM     14  C   UNL     1       1.895   8.071  18.097  0.00  0.00    +0.000 C 
BRANCH  14  15
ATOM     15  C   UNL     1       1.825   9.537  18.531  0.00  0.00    +0.000 C 
BRANCH  15  19
ATOM     16  N   UNL     1       0.796  11.494  21.580  0.00  0.00    +0.000 NA
ATOM     17  C   UNL     1       0.898  10.024  21.480  0.00  0.00    +0.000 C 
ATOM     18  C   UNL     1       0.114   9.420  20.295  0.00  0.00    +0.000 C 
ATOM     19  N   UNL     1       0.492   9.973  18.977  0.00  0.00    +0.000 NA
ATOM     20  C   UNL     1       0.424  11.451  19.048  0.00  0.00    +0.000 C 
ATOM     21  C   UNL     1       1.157  12.077  20.264  0.00  0.00    +0.000 C 
BRANCH  16  22
ATOM     22  C   UNL     1      -0.552  11.946  21.984  0.00  0.00    +0.000 C 
BRANCH  22  23
ATOM     23  C   UNL     1      -0.663  13.450  22.250  0.00  0.00    +0.000 C 
BRANCH  23  24
ATOM     24  O   UNL     1      -0.727  13.684  23.656  0.00  0.00    +0.000 OA
ATOM     25  H   UNL     1      -0.145  13.026  24.076  0.00  0.00    +0.000 HD
ENDBRANCH  23  24
ENDBRANCH  22  23
ENDBRANCH  16  22
ENDBRANCH  15  19
ENDBRANCH  14  15
ENDBRANCH   1  14
TORSDOF 7
ENDMDL
MODEL 2
REMARK VINA RESULT:      -7.3      0.752      3.145
REMARK  Name = 
REMARK  7 active torsions:
REMARK  status: ('A' for Active; 'I' for Inactive)
REMARK    1  A    between atoms: O_1  and  C_2
REMARK    2  A    between atoms: C_2  and  C_3
REMARK    3  A    between atoms: C_3  and  N_4
REMARK    4  A    between atoms: N_7  and  C_8
REMARK    5  A    between atoms: C_8  and  C_9
REMARK    6  A    between atoms: C_9  and  C_10
REMARK    7  A    between atoms: C_10  and  C_11
REMARK                            x       y       z     vdW  Elec       q    Type
REMARK                         _______ _______ _______ _____ _____    ______ ____
ROOT
ATOM      1  C   UNL     1       2.836   7.341  18.872  0.00  0.00    +0.000 C 
ENDROOT
BRANCH   1   2
ATOM      2  C   UNL     1       3.092   5.927  18.433  0.00  0.00    +0.000 A 
ATOM      3  C   UNL     1       4.006   5.617  17.426  0.00  0.00    +0.000 A 
ATOM      4  C   UNL     1       4.152   4.305  16.934  0.00  0.00    +0.000 A 
ATOM      5  C   UNL     1       3.399   3.253  17.431  0.00  0.00    +0.000 A 
ATOM      6  C   UNL     1       2.496   3.550  18.439  0.00  0.00    +0.000 A 
ATOM      7  C   UNL     1       2.347   4.858  18.940  0.00  0.00    +0.000 A 
ATOM      8  C   UNL     1       1.266   4.901  19.979  0.00  0.00    +0.000 C 
ATOM      9  C   UNL     1       1.073   3.416  20.308  0.00  0.00    +0.000 C 
ATOM     10  C   UNL     1       1.513   2.618  19.076  0.00  0.00    +0.000 C 
ATOM     11  C   UNL     1       5.201   4.243  15.867  0.00  0.00    +0.000 C 
ATOM     12  C   UNL     1       5.329   5.721  15.480  0.00  0.00    +0.000 C 
ATOM     13  C   UNL     1       4.971   6.533  16.730  0.00  0.00    +0.000 C 
ENDBRANCH   1   2
BRANCH   1  14
ATOM     14  C   UNL     1       1.985   8.065  17.823  0.00  0.00    +0.000 C 
BRANCH  14  15
ATOM     15  C   UNL     1       1.626   9.495  18.234  0.00  0.00    +0.000 C 
BRANCH  15  19
ATOM     16  N   UNL     1       0.315  12.126  20.588  0.00  0.00    +0.000 NA
ATOM     17  C   UNL     1       1.001  10.875  20.971  0.00  0.00    +0.000 C 
ATOM     18  C   UNL     1       0.380   9.605  20.352  0.00  0.00    +0.000 C 
ATOM     19  N   UNL     1       0.307   9.627  18.876  0.00  0.00    +0.000 NA
ATOM     20  C   UNL     1      -0.354  10.883  18.453  0.00  0.00    +0.000 C 
ATOM     21  C   UNL     1       0.217  12.169  19.109  0.00  0.00    +0.000 C 
BRANCH  16  22
ATOM     22  C   UNL     1      -1.028  12.249  21.191  0.00  0.00    +0.000 C 
BRANCH  22  23
ATOM     23  C   UNL     1      -1.024  12.602  22.682  0.00  0.00    +0.000 C 
BRANCH  23  24
ATOM     24  O   UNL     1      -1.230  11.420  23.454  0.00  0.00    +0.000 OA
ATOM     25  H   UNL     1      -1.250  11.695  24.387  0.00  0.00    +0.000 HD
ENDBRANCH  23  24
ENDBRANCH  22  23
ENDBRANCH  16  22
ENDBRANCH  15  19
ENDBRANCH  14  15
ENDBRANCH   1  14
TORSDOF 7
ENDMDL
MODEL 3
REMARK VINA RESULT:      -7.3      0.568      3.094
REMARK  Name = 
REMARK  7 active torsions:
REMARK  status: ('A' for Active; 'I' for Inactive)
REMARK    1  A    between atoms: O_1  and  C_2
REMARK    2  A    between atoms: C_2  and  C_3
REMARK    3  A    between atoms: C_3  and  N_4
REMARK    4  A    between atoms: N_7  and  C_8
REMARK    5  A    between atoms: C_8  and  C_9
REMARK    6  A    between atoms: C_9  and  C_10
REMARK    7  A    between atoms: C_10  and  C_11
REMARK                            x       y       z     vdW  Elec       q    Type
REMARK                         _______ _______ _______ _____ _____    ______ ____
ROOT
ATOM      1  C   UNL     1       2.615   7.102  19.261  0.00  0.00    +0.000 C 
ENDROOT
BRANCH   1   2
ATOM      2  C   UNL     1       2.923   5.751  18.679  0.00  0.00    +0.000 A 
ATOM      3  C   UNL     1       3.874   5.576  17.673  0.00  0.00    +0.000 A 
ATOM      4  C   UNL     1       4.070   4.329  17.047  0.00  0.00    +0.000 A 
ATOM      5  C   UNL     1       3.334   3.211  17.404  0.00  0.00    +0.000 A 
ATOM      6  C   UNL     1       2.395   3.374  18.410  0.00  0.00    +0.000 A 
ATOM      7  C   UNL     1       2.196   4.615  19.045  0.00  0.00    +0.000 A 
ATOM      8  C   UNL     1       1.085   4.517  20.049  0.00  0.00    +0.000 C 
ATOM      9  C   UNL     1       0.925   3.001  20.209  0.00  0.00    +0.000 C 
ATOM     10  C   UNL     1       1.422   2.354  18.912  0.00  0.00    +0.000 C 
ATOM     11  C   UNL     1       5.150   4.411  16.012  0.00  0.00    +0.000 C 
ATOM     12  C   UNL     1       5.246   5.925  15.792  0.00  0.00    +0.000 C 
ATOM     13  C   UNL     1       4.831   6.587  17.110  0.00  0.00    +0.000 C 
ENDBRANCH   1   2
BRANCH   1  14
ATOM     14  C   UNL     1       1.737   7.898  18.290  0.00  0.00    +0.000 C 
BRANCH  14  15
ATOM     15  C   UNL     1       1.876   9.412  18.467  0.00  0.00    +0.000 C 
BRANCH  15  19
ATOM     16  N   UNL     1       1.082  11.754  21.307  0.00  0.00    +0.000 NA
ATOM     17  C   UNL     1       0.936  10.284  21.321  0.00  0.00    +0.000 C 
ATOM     18  C   UNL     1       0.106   9.724  20.147  0.00  0.00    +0.000 C 
ATOM     19  N   UNL     1       0.620  10.099  18.812  0.00  0.00    +0.000 NA
ATOM     20  C   UNL     1       0.802  11.568  18.770  0.00  0.00    +0.000 C 
ATOM     21  C   UNL     1       1.585  12.160  19.972  0.00  0.00    +0.000 C 
BRANCH  16  22
ATOM     22  C   UNL     1      -0.183  12.455  21.609  0.00  0.00    +0.000 C 
BRANCH  22  23
ATOM     23  C   UNL     1      -0.108  13.980  21.491  0.00  0.00    +0.000 C 
BRANCH  23  24
ATOM     24  O   UNL     1       0.757  14.495  22.503  0.00  0.00    +0.000 OA
ATOM     25  H   UNL     1       1.646  14.145  22.316  0.00  0.00    +0.000 HD
ENDBRANCH  23  24
ENDBRANCH  22  23
ENDBRANCH  16  22
ENDBRANCH  15  19
ENDBRANCH  14  15
ENDBRANCH   1  14
TORSDOF 7
ENDMDL
MODEL 4
REMARK VINA RESULT:      -7.2      1.520      3.599
REMARK  Name = 
REMARK  7 active torsions:
REMARK  status: ('A' for Active; 'I' for Inactive)
REMARK    1  A    between atoms: O_1  and  C_2
REMARK    2  A    between atoms: C_2  and  C_3
REMARK    3  A    between atoms: C_3  and  N_4
REMARK    4  A    between atoms: N_7  and  C_8
REMARK    5  A    between atoms: C_8  and  C_9
REMARK    6  A    between atoms: C_9  and  C_10
REMARK    7  A    between atoms: C_10  and  C_11
REMARK                            x       y       z     vdW  Elec       q    Type
REMARK                         _______ _______ _______ _____ _____    ______ ____
ROOT
ATOM      1  C   UNL     1       2.523   7.438  19.001  0.00  0.00    +0.000 C 
ENDROOT
BRANCH   1   2
ATOM      2  C   UNL     1       2.891   6.048  18.563  0.00  0.00    +0.000 A 
ATOM      3  C   UNL     1       3.844   5.812  17.573  0.00  0.00    +0.000 A 
ATOM      4  C   UNL     1       4.096   4.516  17.080  0.00  0.00    +0.000 A 
ATOM      5  C   UNL     1       3.414   3.409  17.559  0.00  0.00    +0.000 A 
ATOM      6  C   UNL     1       2.473   3.634  18.551  0.00  0.00    +0.000 A 
ATOM      7  C   UNL     1       2.219   4.926  19.053  0.00  0.00    +0.000 A 
ATOM      8  C   UNL     1       1.118   4.883  20.072  0.00  0.00    +0.000 C 
ATOM      9  C   UNL     1       1.029   3.387  20.393  0.00  0.00    +0.000 C 
ATOM     10  C   UNL     1       1.551   2.629  19.167  0.00  0.00    +0.000 C 
ATOM     11  C   UNL     1       5.166   4.536  16.032  0.00  0.00    +0.000 C 
ATOM     12  C   UNL     1       5.192   6.022  15.652  0.00  0.00    +0.000 C 
ATOM     13  C   UNL     1       4.751   6.800  16.898  0.00  0.00    +0.000 C 
ENDBRANCH   1   2
BRANCH   1  14
ATOM     14  C   UNL     1       1.786   8.161  17.870  0.00  0.00    +0.000 C 
BRANCH  14  15
ATOM     15  C   UNL     1       1.746   9.679  18.062  0.00  0.00    +0.000 C 
BRANCH  15  19
ATOM     16  N   UNL     1      -0.845  12.342  18.680  0.00  0.00    +0.000 NA
ATOM     17  C   UNL     1       0.620  12.527  18.704  0.00  0.00    +0.000 C 
ATOM     18  C   UNL     1       1.362  11.537  19.628  0.00  0.00    +0.000 C 
ATOM     19  N   UNL     1       1.108  10.115  19.315  0.00  0.00    +0.000 NA
ATOM     20  C   UNL     1      -0.356   9.897  19.258  0.00  0.00    +0.000 C 
ATOM     21  C   UNL     1      -1.130  10.917  18.381  0.00  0.00    +0.000 C 
BRANCH  16  22
ATOM     22  C   UNL     1      -1.491  12.735  19.949  0.00  0.00    +0.000 C 
BRANCH  22  23
ATOM     23  C   UNL     1      -2.995  12.448  20.011  0.00  0.00    +0.000 C 
BRANCH  23  24
ATOM     24  O   UNL     1      -3.721  13.660  19.811  0.00  0.00    +0.000 OA
ATOM     25  H   UNL     1      -3.182  14.375  20.194  0.00  0.00    +0.000 HD
ENDBRANCH  23  24
ENDBRANCH  22  23
ENDBRANCH  16  22
ENDBRANCH  15  19
ENDBRANCH  14  15
ENDBRANCH   1  14
TORSDOF 7
ENDMDL
MODEL 5
REMARK VINA RESULT:      -7.2      1.097      3.268
REMARK  Name = 
REMARK  7 active torsions:
REMARK  status: ('A' for Active; 'I' for Inactive)
REMARK    1  A    between atoms: O_1  and  C_2
REMARK    2  A    between atoms: C_2  and  C_3
REMARK    3  A    between atoms: C_3  and  N_4
REMARK    4  A    between atoms: N_7  and  C_8
REMARK    5  A    between atoms: C_8  and  C_9
REMARK    6  A    between atoms: C_9  and  C_10
REMARK    7  A    between atoms: C_10  and  C_11
REMARK                            x       y       z     vdW  Elec       q    Type
REMARK                         _______ _______ _______ _____ _____    ______ ____
ROOT
ATOM      1  C   UNL     1       2.585   7.261  19.056  0.00  0.00    +0.000 C 
ENDROOT
BRANCH   1   2
ATOM      2  C   UNL     1       2.930   5.892  18.541  0.00  0.00    +0.000 A 
ATOM      3  C   UNL     1       3.893   5.693  17.552  0.00  0.00    +0.000 A 
ATOM      4  C   UNL     1       4.124   4.424  16.986  0.00  0.00    +0.000 A 
ATOM      5  C   UNL     1       3.411   3.306  17.389  0.00  0.00    +0.000 A 
ATOM      6  C   UNL     1       2.460   3.493  18.379  0.00  0.00    +0.000 A 
ATOM      7  C   UNL     1       2.226   4.758  18.953  0.00  0.00    +0.000 A 
ATOM      8  C   UNL     1       1.108   4.680  19.952  0.00  0.00    +0.000 C 
ATOM      9  C   UNL     1       0.983   3.169  20.182  0.00  0.00    +0.000 C 
ATOM     10  C   UNL     1       1.507   2.474  18.920  0.00  0.00    +0.000 C 
ATOM     11  C   UNL     1       5.211   4.483  15.957  0.00  0.00    +0.000 C 
ATOM     12  C   UNL     1       5.274   5.987  15.667  0.00  0.00    +0.000 C 
ATOM     13  C   UNL     1       4.831   6.700  16.950  0.00  0.00    +0.000 C 
ENDBRANCH   1   2
BRANCH   1  14
ATOM     14  C   UNL     1       1.912   8.079  17.949  0.00  0.00    +0.000 C 
BRANCH  14  15
ATOM     15  C   UNL     1       1.586   9.510  18.381  0.00  0.00    +0.000 C 
BRANCH  15  19
ATOM     16  N   UNL     1       0.122  12.482  20.172  0.00  0.00    +0.000 NA
ATOM     17  C   UNL     1       1.018  11.465  20.758  0.00  0.00    +0.000 C 
ATOM     18  C   UNL     1       0.539  10.013  20.550  0.00  0.00    +0.000 C 
ATOM     19  N   UNL     1       0.328   9.644  19.134  0.00  0.00    +0.000 NA
ATOM     20  C   UNL     1      -0.550  10.659  18.506  0.00  0.00    +0.000 C 
ATOM     21  C   UNL     1      -0.119  12.129  18.751  0.00  0.00    +0.000 C 
BRANCH  16  22
ATOM     22  C   UNL     1      -1.163  12.594  20.893  0.00  0.00    +0.000 C 
BRANCH  22  23
ATOM     23  C   UNL     1      -1.616  14.032  21.164  0.00  0.00    +0.000 C 
BRANCH  23  24
ATOM     24  O   UNL     1      -2.472  14.470  20.110  0.00  0.00    +0.000 OA
ATOM     25  H   UNL     1      -2.996  15.210  20.465  0.00  0.00    +0.000 HD
ENDBRANCH  23  24
ENDBRANCH  22  23
ENDBRANCH  16  22
ENDBRANCH  15  19
ENDBRANCH  14  15
ENDBRANCH   1  14
TORSDOF 7
ENDMDL
MODEL 6
REMARK VINA RESULT:      -7.2      1.561      1.661
REMARK  Name = 
REMARK  7 active torsions:
REMARK  status: ('A' for Active; 'I' for Inactive)
REMARK    1  A    between atoms: O_1  and  C_2
REMARK    2  A    between atoms: C_2  and  C_3
REMARK    3  A    between atoms: C_3  and  N_4
REMARK    4  A    between atoms: N_7  and  C_8
REMARK    5  A    between atoms: C_8  and  C_9
REMARK    6  A    between atoms: C_9  and  C_10
REMARK    7  A    between atoms: C_10  and  C_11
REMARK                            x       y       z     vdW  Elec       q    Type
REMARK                         _______ _______ _______ _____ _____    ______ ____
ROOT
ATOM      1  C   UNL     1       2.880   6.947  19.210  0.00  0.00    +0.000 C 
ENDROOT
BRANCH   1   2
ATOM      2  C   UNL     1       2.957   5.625  18.500  0.00  0.00    +0.000 A 
ATOM      3  C   UNL     1       2.189   4.528  18.890  0.00  0.00    +0.000 A 
ATOM      4  C   UNL     1       2.355   3.259  18.301  0.00  0.00    +0.000 A 
ATOM      5  C   UNL     1       3.285   3.037  17.299  0.00  0.00    +0.000 A 
ATOM      6  C   UNL     1       4.045   4.125  16.898  0.00  0.00    +0.000 A 
ATOM      7  C   UNL     1       3.882   5.398  17.478  0.00  0.00    +0.000 A 
ATOM      8  C   UNL     1       4.869   6.367  16.897  0.00  0.00    +0.000 C 
ATOM      9  C   UNL     1       5.356   5.626  15.647  0.00  0.00    +0.000 C 
ATOM     10  C   UNL     1       5.166   4.127  15.907  0.00  0.00    +0.000 C 
ATOM     11  C   UNL     1       1.405   2.262  18.892  0.00  0.00    +0.000 C 
ATOM     12  C   UNL     1       0.987   2.971  20.186  0.00  0.00    +0.000 C 
ATOM     13  C   UNL     1       1.091   4.477  19.914  0.00  0.00    +0.000 C 
ENDBRANCH   1   2
BRANCH   1  14
ATOM     14  C   UNL     1       2.037   7.929  18.390  0.00  0.00    +0.000 C 
BRANCH  14  15
ATOM     15  C   UNL     1       1.595   9.152  19.197  0.00  0.00    +0.000 C 
BRANCH  15  19
ATOM     16  N   UNL     1      -0.733  11.957  20.143  0.00  0.00    +0.000 NA
ATOM     17  C   UNL     1      -1.129  10.629  19.632  0.00  0.00    +0.000 C 
ATOM     18  C   UNL     1      -0.431  10.231  18.314  0.00  0.00    +0.000 C 
ATOM     19  N   UNL     1       1.045  10.249  18.384  0.00  0.00    +0.000 NA
ATOM     20  C   UNL     1       1.478  11.561  18.917  0.00  0.00    +0.000 C 
ATOM     21  C   UNL     1       0.748  12.008  20.211  0.00  0.00    +0.000 C 
BRANCH  16  22
ATOM     22  C   UNL     1      -1.243  13.065  19.309  0.00  0.00    +0.000 C 
BRANCH  22  23
ATOM     23  C   UNL     1      -0.715  14.449  19.700  0.00  0.00    +0.000 C 
BRANCH  23  24
ATOM     24  O   UNL     1      -0.538  15.241  18.527  0.00  0.00    +0.000 OA
ATOM     25  H   UNL     1      -0.136  16.080  18.814  0.00  0.00    +0.000 HD
ENDBRANCH  23  24
ENDBRANCH  22  23
ENDBRANCH  16  22
ENDBRANCH  15  19
ENDBRANCH  14  15
ENDBRANCH   1  14
TORSDOF 7
ENDMDL
MODEL 7
REMARK VINA RESULT:      -7.2      1.225      1.349
REMARK  Name = 
REMARK  7 active torsions:
REMARK  status: ('A' for Active; 'I' for Inactive)
REMARK    1  A    between atoms: O_1  and  C_2
REMARK    2  A    between atoms: C_2  and  C_3
REMARK    3  A    between atoms: C_3  and  N_4
REMARK    4  A    between atoms: N_7  and  C_8
REMARK    5  A    between atoms: C_8  and  C_9
REMARK    6  A    between atoms: C_9  and  C_10
REMARK    7  A    between atoms: C_10  and  C_11
REMARK                            x       y       z     vdW  Elec       q    Type
REMARK                         _______ _______ _______ _____ _____    ______ ____
ROOT
ATOM      1  C   UNL     1       2.599   7.217  19.034  0.00  0.00    +0.000 C 
ENDROOT
BRANCH   1   2
ATOM      2  C   UNL     1       2.842   5.853  18.454  0.00  0.00    +0.000 A 
ATOM      3  C   UNL     1       2.190   4.717  18.933  0.00  0.00    +0.000 A 
ATOM      4  C   UNL     1       2.511   3.426  18.470  0.00  0.00    +0.000 A 
ATOM      5  C   UNL     1       3.488   3.219  17.509  0.00  0.00    +0.000 A 
ATOM      6  C   UNL     1       4.133   4.344  17.019  0.00  0.00    +0.000 A 
ATOM      7  C   UNL     1       3.815   5.638  17.474  0.00  0.00    +0.000 A 
ATOM      8  C   UNL     1       4.703   6.655  16.820  0.00  0.00    +0.000 C 
ATOM      9  C   UNL     1       5.303   5.862  15.654  0.00  0.00    +0.000 C 
ATOM     10  C   UNL     1       5.274   4.381  16.052  0.00  0.00    +0.000 C 
ATOM     11  C   UNL     1       1.663   2.387  19.137  0.00  0.00    +0.000 C 
ATOM     12  C   UNL     1       1.133   3.160  20.350  0.00  0.00    +0.000 C 
ATOM     13  C   UNL     1       1.077   4.636  19.939  0.00  0.00    +0.000 C 
ENDBRANCH   1   2
BRANCH   1  14
ATOM     14  C   UNL     1       1.916   8.111  17.994  0.00  0.00    +0.000 C 
BRANCH  14  15
ATOM     15  C   UNL     1       1.612   9.515  18.523  0.00  0.00    +0.000 C 
BRANCH  15  19
ATOM     16  N   UNL     1      -0.081  12.489  20.095  0.00  0.00    +0.000 NA
ATOM     17  C   UNL     1       1.040  11.717  20.670  0.00  0.00    +0.000 C 
ATOM     18  C   UNL     1       0.785  10.196  20.737  0.00  0.00    +0.000 C 
ATOM     19  N   UNL     1       0.457   9.582  19.433  0.00  0.00    +0.000 NA
ATOM     20  C   UNL     1      -0.650  10.347  18.814  0.00  0.00    +0.000 C 
ATOM     21  C   UNL     1      -0.441  11.885  18.789  0.00  0.00    +0.000 C 
BRANCH  16  22
ATOM     22  C   UNL     1      -1.262  12.526  20.982  0.00  0.00    +0.000 C 
BRANCH  22  23
ATOM     23  C   UNL     1      -2.451  13.313  20.422  0.00  0.00    +0.000 C 
BRANCH  23  24
ATOM     24  O   UNL     1      -3.659  12.595  20.670  0.00  0.00    +0.000 OA
ATOM     25  H   UNL     1      -3.846  12.077  19.867  0.00  0.00    +0.000 HD
ENDBRANCH  23  24
ENDBRANCH  22  23
ENDBRANCH  16  22
ENDBRANCH  15  19
ENDBRANCH  14  15
ENDBRANCH   1  14
TORSDOF 7
ENDMDL
MODEL 8
REMARK VINA RESULT:      -7.1      1.789      1.959
REMARK  Name = 
REMARK  7 active torsions:
REMARK  status: ('A' for Active; 'I' for Inactive)
REMARK    1  A    between atoms: O_1  and  C_2
REMARK    2  A    between atoms: C_2  and  C_3
REMARK    3  A    between atoms: C_3  and  N_4
REMARK    4  A    between atoms: N_7  and  C_8
REMARK    5  A    between atoms: C_8  and  C_9
REMARK    6  A    between atoms: C_9  and  C_10
REMARK    7  A    between atoms: C_10  and  C_11
REMARK                            x       y       z     vdW  Elec       q    Type
REMARK                         _______ _______ _______ _____ _____    ______ ____
ROOT
ATOM      1  C   UNL     1       2.752   6.924  19.197  0.00  0.00    +0.000 C 
ENDROOT
BRANCH   1   2
ATOM      2  C   UNL     1       2.887   5.600  18.499  0.00  0.00    +0.000 A 
ATOM      3  C   UNL     1       2.168   4.474  18.900  0.00  0.00    +0.000 A 
ATOM      4  C   UNL     1       2.390   3.208  18.323  0.00  0.00    +0.000 A 
ATOM      5  C   UNL     1       3.329   3.018  17.322  0.00  0.00    +0.000 A 
ATOM      6  C   UNL     1       4.040   4.134  16.910  0.00  0.00    +0.000 A 
ATOM      7  C   UNL     1       3.822   5.404  17.479  0.00  0.00    +0.000 A 
ATOM      8  C   UNL     1       4.764   6.411  16.888  0.00  0.00    +0.000 C 
ATOM      9  C   UNL     1       5.283   5.681  15.644  0.00  0.00    +0.000 C 
ATOM     10  C   UNL     1       5.160   4.177  15.919  0.00  0.00    +0.000 C 
ATOM     11  C   UNL     1       1.486   2.176  18.924  0.00  0.00    +0.000 C 
ATOM     12  C   UNL     1       1.037   2.877  20.211  0.00  0.00    +0.000 C 
ATOM     13  C   UNL     1       1.075   4.383  19.925  0.00  0.00    +0.000 C 
ENDBRANCH   1   2
BRANCH   1  14
ATOM     14  C   UNL     1       2.097   7.942  18.258  0.00  0.00    +0.000 C 
BRANCH  14  15
ATOM     15  C   UNL     1       2.095   9.362  18.829  0.00  0.00    +0.000 C 
BRANCH  15  19
ATOM     16  N   UNL     1      -0.711  11.535  20.088  0.00  0.00    +0.000 NA
ATOM     17  C   UNL     1      -0.837  10.154  19.579  0.00  0.00    +0.000 C 
ATOM     18  C   UNL     1      -0.208   9.939  18.186  0.00  0.00    +0.000 C 
ATOM     19  N   UNL     1       1.222  10.303  18.108  0.00  0.00    +0.000 NA
ATOM     20  C   UNL     1       1.391  11.677  18.634  0.00  0.00    +0.000 C 
ATOM     21  C   UNL     1       0.716  11.932  20.009  0.00  0.00    +0.000 C 
BRANCH  16  22
ATOM     22  C   UNL     1      -1.550  12.496  19.343  0.00  0.00    +0.000 C 
BRANCH  22  23
ATOM     23  C   UNL     1      -2.937  11.968  18.964  0.00  0.00    +0.000 C 
BRANCH  23  24
ATOM     24  O   UNL     1      -3.099  12.023  17.548  0.00  0.00    +0.000 OA
ATOM     25  H   UNL     1      -3.765  11.352  17.316  0.00  0.00    +0.000 HD
ENDBRANCH  23  24
ENDBRANCH  22  23
ENDBRANCH  16  22
ENDBRANCH  15  19
ENDBRANCH  14  15
ENDBRANCH   1  14
TORSDOF 7
ENDMDL
MODEL 9
REMARK VINA RESULT:      -7.1      1.217      1.353
REMARK  Name = 
REMARK  7 active torsions:
REMARK  status: ('A' for Active; 'I' for Inactive)
REMARK    1  A    between atoms: O_1  and  C_2
REMARK    2  A    between atoms: C_2  and  C_3
REMARK    3  A    between atoms: C_3  and  N_4
REMARK    4  A    between atoms: N_7  and  C_8
REMARK    5  A    between atoms: C_8  and  C_9
REMARK    6  A    between atoms: C_9  and  C_10
REMARK    7  A    between atoms: C_10  and  C_11
REMARK                            x       y       z     vdW  Elec       q    Type
REMARK                         _______ _______ _______ _____ _____    ______ ____
ROOT
ATOM      1  C   UNL     1       3.023   6.816  19.743  0.00  0.00    +0.000 C 
ENDROOT
BRANCH   1   2
ATOM      2  C   UNL     1       2.960   5.626  18.828  0.00  0.00    +0.000 A 
ATOM      3  C   UNL     1       2.123   4.539  19.083  0.00  0.00    +0.000 A 
ATOM      4  C   UNL     1       2.157   3.375  18.290  0.00  0.00    +0.000 A 
ATOM      5  C   UNL     1       3.019   3.252  17.212  0.00  0.00    +0.000 A 
ATOM      6  C   UNL     1       3.846   4.332  16.946  0.00  0.00    +0.000 A 
ATOM      7  C   UNL     1       3.815   5.501  17.730  0.00  0.00    +0.000 A 
ATOM      8  C   UNL     1       4.850   6.478  17.254  0.00  0.00    +0.000 C 
ATOM      9  C   UNL     1       5.216   5.918  15.875  0.00  0.00    +0.000 C 
ATOM     10  C   UNL     1       4.917   4.414  15.904  0.00  0.00    +0.000 C 
ATOM     11  C   UNL     1       1.158   2.367  18.770  0.00  0.00    +0.000 C 
ATOM     12  C   UNL     1       0.859   2.883  20.182  0.00  0.00    +0.000 C 
ATOM     13  C   UNL     1       1.074   4.401  20.148  0.00  0.00    +0.000 C 
ENDBRANCH   1   2
BRANCH   1  14
ATOM     14  C   UNL     1       1.830   7.740  19.479  0.00  0.00    +0.000 C 
BRANCH  14  15
ATOM     15  C   UNL     1       1.469   8.606  20.688  0.00  0.00    +0.000 C 
BRANCH  15  19
ATOM     16  N   UNL     1      -0.315  11.047  22.933  0.00  0.00    +0.000 NA
ATOM     17  C   UNL     1      -0.043   9.626  23.230  0.00  0.00    +0.000 C 
ATOM     18  C   UNL     1      -0.522   8.653  22.132  0.00  0.00    +0.000 C 
ATOM     19  N   UNL     1       0.037   8.933  20.793  0.00  0.00    +0.000 NA
ATOM     20  C   UNL     1      -0.196  10.359  20.471  0.00  0.00    +0.000 C 
ATOM     21  C   UNL     1       0.226  11.353  21.586  0.00  0.00    +0.000 C 
BRANCH  16  22
ATOM     22  C   UNL     1      -1.754  11.377  22.992  0.00  0.00    +0.000 C 
BRANCH  22  23
ATOM     23  C   UNL     1      -2.086  12.830  22.639  0.00  0.00    +0.000 C 
BRANCH  23  24
ATOM     24  O   UNL     1      -2.993  13.361  23.605  0.00  0.00    +0.000 OA
ATOM     25  H   UNL     1      -3.890  13.193  23.268  0.00  0.00    +0.000 HD
ENDBRANCH  23  24
ENDBRANCH  22  23
ENDBRANCH  16  22
ENDBRANCH  15  19
ENDBRANCH  14  15
ENDBRANCH   1  14
TORSDOF 7
ENDMDL
