MODEL 1
REMARK VINA RESULT:      -9.5      0.000      0.000
REMARK  Name = 
REMARK  8 active torsions:
REMARK  status: ('A' for Active; 'I' for Inactive)
REMARK    1  A    between atoms: C_1  and  C_2
REMARK    2  A    between atoms: C_2  and  C_4
REMARK    3  A    between atoms: C_7  and  C_8
REMARK    4  A    between atoms: C_12  and  C_13
REMARK    5  A    between atoms: C_21  and  C_22
REMARK    6  A    between atoms: C_22  and  C_23
REMARK    7  A    between atoms: C_22  and  C_24
REMARK    8  A    between atoms: C_22  and  C_25
REMARK                            x       y       z     vdW  Elec       q    Type
REMARK                         _______ _______ _______ _____ _____    ______ ____
ROOT
ATOM      1  C   UNL     1       3.192   5.561  18.583  0.00  0.00    +0.000 A 
ATOM      2  C   UNL     1       2.807   4.459  19.347  0.00  0.00    +0.000 A 
ATOM      3  C   UNL     1       1.928   4.616  20.452  0.00  0.00    +0.000 A 
ATOM      4  C   UNL     1       1.396   5.872  20.852  0.00  0.00    +0.000 A 
ATOM      5  C   UNL     1       1.703   7.048  20.159  0.00  0.00    +0.000 A 
ATOM      6  C   UNL     1       2.606   6.814  18.998  0.00  0.00    +0.000 A 
ENDROOT
BRANCH   5   7
ATOM      7  C   UNL     1       1.374   8.526  20.694  0.00  0.00    +0.000 A 
ATOM      8  C   UNL     1       1.009   8.348  21.984  0.00  0.00    +0.000 A 
ATOM      9  C   UNL     1       0.271   9.398  22.670  0.00  0.00    +0.000 A 
ATOM     10  O   UNL     1       0.535   9.811  23.785  0.00  0.00    +0.000 OA
ATOM     11  O   UNL     1      -0.859   9.628  21.941  0.00  0.00    +0.000 OA
ATOM     12  C   UNL     1      -0.375  10.361  20.851  0.00  0.00    +0.000 A 
ATOM     13  C   UNL     1      -1.073  11.571  20.724  0.00  0.00    +0.000 A 
ATOM     14  C   UNL     1      -0.491  12.631  20.062  0.00  0.00    +0.000 A 
ATOM     15  C   UNL     1       0.816  12.547  19.549  0.00  0.00    +0.000 A 
ATOM     16  C   UNL     1       1.458  11.189  19.578  0.00  0.00    +0.000 A 
ATOM     17  C   UNL     1       0.845  10.005  20.205  0.00  0.00    +0.000 A 
BRANCH  15  18
ATOM     18  C   UNL     1       1.386  14.003  19.175  0.00  0.00    +0.000 C 
ATOM     19  C   UNL     1       2.002  14.700  20.447  0.00  0.00    +0.000 C 
ATOM     20  C   UNL     1       2.483  14.082  18.100  0.00  0.00    +0.000 C 
ATOM     21  C   UNL     1       0.261  15.005  18.719  0.00  0.00    +0.000 C 
ENDBRANCH  15  18
ENDBRANCH   5   7
BRANCH   1  25
ATOM     22  C   UNL     1       5.955   4.960  15.144  0.00  0.00    +0.000 A 
ATOM     23  C   UNL     1       5.483   3.882  15.901  0.00  0.00    +0.000 A 
ATOM     24  C   UNL     1       4.617   4.092  16.993  0.00  0.00    +0.000 A 
ATOM     25  C   UNL     1       4.159   5.372  17.409  0.00  0.00    +0.000 A 
ATOM     26  C   UNL     1       4.720   6.436  16.679  0.00  0.00    +0.000 A 
ATOM     27  C   UNL     1       5.597   6.230  15.576  0.00  0.00    +0.000 A 
BRANCH  22  29
ATOM     28  C   UNL     1       6.482   3.821  12.836  0.00  0.00    +0.000 C 
ATOM     29  C   UNL     1       6.837   4.806  13.928  0.00  0.00    +0.000 C 
ATOM     30  O   UNL     1       7.842   5.513  13.821  0.00  0.00    +0.000 OA
ENDBRANCH  22  29
ENDBRANCH   1  25
TORSDOF 4
ENDMDL
MODEL 2
REMARK VINA RESULT:      -9.5      0.109      1.175
REMARK  Name = 
REMARK  8 active torsions:
REMARK  status: ('A' for Active; 'I' for Inactive)
REMARK    1  A    between atoms: C_1  and  C_2
REMARK    2  A    between atoms: C_2  and  C_4
REMARK    3  A    between atoms: C_7  and  C_8
REMARK    4  A    between atoms: C_12  and  C_13
REMARK    5  A    between atoms: C_21  and  C_22
REMARK    6  A    between atoms: C_22  and  C_23
REMARK    7  A    between atoms: C_22  and  C_24
REMARK    8  A    between atoms: C_22  and  C_25
REMARK                            x       y       z     vdW  Elec       q    Type
REMARK                         _______ _______ _______ _____ _____    ______ ____
ROOT
ATOM      1  C   UNL     1       3.131   5.579  18.585  0.00  0.00    +0.000 A 
ATOM      2  C   UNL     1       2.788   4.481  19.374  0.00  0.00    +0.000 A 
ATOM      3  C   UNL     1       1.946   4.638  20.507  0.00  0.00    +0.000 A 
ATOM      4  C   UNL     1       1.410   5.891  20.911  0.00  0.00    +0.000 A 
ATOM      5  C   UNL     1       1.677   7.063  20.195  0.00  0.00    +0.000 A 
ATOM      6  C   UNL     1       2.542   6.828  19.006  0.00  0.00    +0.000 A 
ENDROOT
BRANCH   5   7
ATOM      7  C   UNL     1       1.346   8.543  20.725  0.00  0.00    +0.000 A 
ATOM      8  C   UNL     1       0.980   8.368  22.015  0.00  0.00    +0.000 A 
ATOM      9  C   UNL     1       0.241   9.421  22.698  0.00  0.00    +0.000 A 
ATOM     10  O   UNL     1       0.504   9.837  23.811  0.00  0.00    +0.000 OA
ATOM     11  O   UNL     1      -0.888   9.647  21.967  0.00  0.00    +0.000 OA
ATOM     12  C   UNL     1      -0.405  10.377  20.875  0.00  0.00    +0.000 A 
ATOM     13  C   UNL     1      -1.104  11.586  20.743  0.00  0.00    +0.000 A 
ATOM     14  C   UNL     1      -0.523  12.644  20.078  0.00  0.00    +0.000 A 
ATOM     15  C   UNL     1       0.784  12.559  19.567  0.00  0.00    +0.000 A 
ATOM     16  C   UNL     1       1.428  11.202  19.600  0.00  0.00    +0.000 A 
ATOM     17  C   UNL     1       0.816  10.019  20.231  0.00  0.00    +0.000 A 
BRANCH  15  18
ATOM     18  C   UNL     1       1.353  14.014  19.188  0.00  0.00    +0.000 C 
ATOM     19  C   UNL     1       2.444  13.905  18.056  0.00  0.00    +0.000 C 
ATOM     20  C   UNL     1       0.347  15.061  18.678  0.00  0.00    +0.000 C 
ATOM     21  C   UNL     1       2.126  14.701  20.375  0.00  0.00    +0.000 C 
ENDBRANCH  15  18
ENDBRANCH   5   7
BRANCH   1  25
ATOM     22  C   UNL     1       5.879   5.075  15.118  0.00  0.00    +0.000 A 
ATOM     23  C   UNL     1       5.482   6.342  15.560  0.00  0.00    +0.000 A 
ATOM     24  C   UNL     1       4.603   6.482  16.652  0.00  0.00    +0.000 A 
ATOM     25  C   UNL     1       4.060   5.389  17.381  0.00  0.00    +0.000 A 
ATOM     26  C   UNL     1       4.413   4.132  16.857  0.00  0.00    +0.000 A 
ATOM     27  C   UNL     1       5.299   3.983  15.752  0.00  0.00    +0.000 A 
BRANCH  22  29
ATOM     28  C   UNL     1       6.560   3.858  12.893  0.00  0.00    +0.000 C 
ATOM     29  C   UNL     1       6.861   4.850  13.994  0.00  0.00    +0.000 C 
ATOM     30  O   UNL     1       7.906   5.504  13.969  0.00  0.00    +0.000 OA
ENDBRANCH  22  29
ENDBRANCH   1  25
TORSDOF 4
ENDMDL
MODEL 3
REMARK VINA RESULT:      -9.3      1.008      1.518
REMARK  Name = 
REMARK  8 active torsions:
REMARK  status: ('A' for Active; 'I' for Inactive)
REMARK    1  A    between atoms: C_1  and  C_2
REMARK    2  A    between atoms: C_2  and  C_4
REMARK    3  A    between atoms: C_7  and  C_8
REMARK    4  A    between atoms: C_12  and  C_13
REMARK    5  A    between atoms: C_21  and  C_22
REMARK    6  A    between atoms: C_22  and  C_23
REMARK    7  A    between atoms: C_22  and  C_24
REMARK    8  A    between atoms: C_22  and  C_25
REMARK                            x       y       z     vdW  Elec       q    Type
REMARK                         _______ _______ _______ _____ _____    ______ ____
ROOT
ATOM      1  C   UNL     1       2.835   6.342  18.844  0.00  0.00    +0.000 A 
ATOM      2  C   UNL     1       2.441   5.381  19.775  0.00  0.00    +0.000 A 
ATOM      3  C   UNL     1       1.591   5.727  20.858  0.00  0.00    +0.000 A 
ATOM      4  C   UNL     1       1.097   7.043  21.070  0.00  0.00    +0.000 A 
ATOM      5  C   UNL     1       1.417   8.091  20.200  0.00  0.00    +0.000 A 
ATOM      6  C   UNL     1       2.288   7.659  19.073  0.00  0.00    +0.000 A 
ENDROOT
BRANCH   5   7
ATOM      7  C   UNL     1       1.134   9.642  20.508  0.00  0.00    +0.000 A 
ATOM      8  C   UNL     1       0.344   9.632  21.607  0.00  0.00    +0.000 A 
ATOM      9  C   UNL     1      -0.428  10.820  21.942  0.00  0.00    +0.000 A 
ATOM     10  O   UNL     1      -0.492  11.309  23.056  0.00  0.00    +0.000 OA
ATOM     11  O   UNL     1      -1.213  11.099  20.862  0.00  0.00    +0.000 OA
ATOM     12  C   UNL     1      -0.302  11.664  19.961  0.00  0.00    +0.000 A 
ATOM     13  C   UNL     1      -0.748  12.925  19.537  0.00  0.00    +0.000 A 
ATOM     14  C   UNL     1       0.157  13.844  19.054  0.00  0.00    +0.000 A 
ATOM     15  C   UNL     1       1.536  13.568  19.019  0.00  0.00    +0.000 A 
ATOM     16  C   UNL     1       1.942  12.157  19.340  0.00  0.00    +0.000 A 
ATOM     17  C   UNL     1       1.001  11.114  19.788  0.00  0.00    +0.000 A 
BRANCH  15  18
ATOM     18  C   UNL     1       2.390  14.908  18.780  0.00  0.00    +0.000 C 
ATOM     19  C   UNL     1       3.197  15.290  20.078  0.00  0.00    +0.000 C 
ATOM     20  C   UNL     1       3.430  14.896  17.646  0.00  0.00    +0.000 C 
ATOM     21  C   UNL     1       1.488  16.174  18.525  0.00  0.00    +0.000 C 
ENDBRANCH  15  18
ENDBRANCH   5   7
BRANCH   1  25
ATOM     22  C   UNL     1       5.610   5.251  15.537  0.00  0.00    +0.000 A 
ATOM     23  C   UNL     1       5.305   6.586  15.828  0.00  0.00    +0.000 A 
ATOM     24  C   UNL     1       4.417   6.912  16.871  0.00  0.00    +0.000 A 
ATOM     25  C   UNL     1       3.772   5.950  17.696  0.00  0.00    +0.000 A 
ATOM     26  C   UNL     1       4.035   4.620  17.322  0.00  0.00    +0.000 A 
ATOM     27  C   UNL     1       4.931   4.283  16.267  0.00  0.00    +0.000 A 
BRANCH  22  29
ATOM     28  C   UNL     1       6.210   3.809  13.425  0.00  0.00    +0.000 C 
ATOM     29  C   UNL     1       6.595   4.829  14.474  0.00  0.00    +0.000 C 
ATOM     30  O   UNL     1       7.715   5.343  14.455  0.00  0.00    +0.000 OA
ENDBRANCH  22  29
ENDBRANCH   1  25
TORSDOF 4
ENDMDL
MODEL 4
REMARK VINA RESULT:      -9.0      1.087      1.600
REMARK  Name = 
REMARK  8 active torsions:
REMARK  status: ('A' for Active; 'I' for Inactive)
REMARK    1  A    between atoms: C_1  and  C_2
REMARK    2  A    between atoms: C_2  and  C_4
REMARK    3  A    between atoms: C_7  and  C_8
REMARK    4  A    between atoms: C_12  and  C_13
REMARK    5  A    between atoms: C_21  and  C_22
REMARK    6  A    between atoms: C_22  and  C_23
REMARK    7  A    between atoms: C_22  and  C_24
REMARK    8  A    between atoms: C_22  and  C_25
REMARK                            x       y       z     vdW  Elec       q    Type
REMARK                         _______ _______ _______ _____ _____    ______ ____
ROOT
ATOM      1  C   UNL     1       2.796   6.491  18.946  0.00  0.00    +0.000 A 
ATOM      2  C   UNL     1       2.328   5.538  19.851  0.00  0.00    +0.000 A 
ATOM      3  C   UNL     1       1.430   5.905  20.889  0.00  0.00    +0.000 A 
ATOM      4  C   UNL     1       0.960   7.233  21.079  0.00  0.00    +0.000 A 
ATOM      5  C   UNL     1       1.354   8.274  20.231  0.00  0.00    +0.000 A 
ATOM      6  C   UNL     1       2.272   7.822  19.150  0.00  0.00    +0.000 A 
ENDROOT
BRANCH   5   7
ATOM      7  C   UNL     1       1.096   9.831  20.528  0.00  0.00    +0.000 A 
ATOM      8  C   UNL     1       0.285   9.841  21.612  0.00  0.00    +0.000 A 
ATOM      9  C   UNL     1      -0.470  11.044  21.929  0.00  0.00    +0.000 A 
ATOM     10  O   UNL     1      -0.545  11.538  23.040  0.00  0.00    +0.000 OA
ATOM     11  O   UNL     1      -1.229  11.335  20.833  0.00  0.00    +0.000 OA
ATOM     12  C   UNL     1      -0.291  11.878  19.948  0.00  0.00    +0.000 A 
ATOM     13  C   UNL     1      -0.705  13.146  19.511  0.00  0.00    +0.000 A 
ATOM     14  C   UNL     1       0.227  14.046  19.042  0.00  0.00    +0.000 A 
ATOM     15  C   UNL     1       1.601  13.743  19.034  0.00  0.00    +0.000 A 
ATOM     16  C   UNL     1       1.974  12.325  19.367  0.00  0.00    +0.000 A 
ATOM     17  C   UNL     1       1.005  11.303  19.801  0.00  0.00    +0.000 A 
BRANCH  15  18
ATOM     18  C   UNL     1       2.485  15.066  18.806  0.00  0.00    +0.000 C 
ATOM     19  C   UNL     1       1.559  16.304  18.497  0.00  0.00    +0.000 C 
ATOM     20  C   UNL     1       3.395  15.521  19.960  0.00  0.00    +0.000 C 
ATOM     21  C   UNL     1       3.410  14.975  17.536  0.00  0.00    +0.000 C 
ENDBRANCH  15  18
ENDBRANCH   5   7
BRANCH   1  25
ATOM     22  C   UNL     1       5.605   5.257  15.720  0.00  0.00    +0.000 A 
ATOM     23  C   UNL     1       4.737   4.341  16.326  0.00  0.00    +0.000 A 
ATOM     24  C   UNL     1       3.863   4.747  17.353  0.00  0.00    +0.000 A 
ATOM     25  C   UNL     1       3.783   6.077  17.849  0.00  0.00    +0.000 A 
ATOM     26  C   UNL     1       4.727   6.950  17.277  0.00  0.00    +0.000 A 
ATOM     27  C   UNL     1       5.615   6.545  16.240  0.00  0.00    +0.000 A 
BRANCH  22  29
ATOM     28  C   UNL     1       6.154   3.825  13.587  0.00  0.00    +0.000 C 
ATOM     29  C   UNL     1       6.527   4.907  14.577  0.00  0.00    +0.000 C 
ATOM     30  O   UNL     1       7.581   5.531  14.442  0.00  0.00    +0.000 OA
ENDBRANCH  22  29
ENDBRANCH   1  25
TORSDOF 4
ENDMDL
MODEL 5
REMARK VINA RESULT:      -8.5      2.099      9.606
REMARK  Name = 
REMARK  8 active torsions:
REMARK  status: ('A' for Active; 'I' for Inactive)
REMARK    1  A    between atoms: C_1  and  C_2
REMARK    2  A    between atoms: C_2  and  C_4
REMARK    3  A    between atoms: C_7  and  C_8
REMARK    4  A    between atoms: C_12  and  C_13
REMARK    5  A    between atoms: C_21  and  C_22
REMARK    6  A    between atoms: C_22  and  C_23
REMARK    7  A    between atoms: C_22  and  C_24
REMARK    8  A    between atoms: C_22  and  C_25
REMARK                            x       y       z     vdW  Elec       q    Type
REMARK                         _______ _______ _______ _____ _____    ______ ____
ROOT
ATOM      1  C   UNL     1       2.292   6.311  19.845  0.00  0.00    +0.000 A 
ATOM      2  C   UNL     1       1.687   5.221  20.472  0.00  0.00    +0.000 A 
ATOM      3  C   UNL     1       2.214   3.911  20.314  0.00  0.00    +0.000 A 
ATOM      4  C   UNL     1       3.361   3.623  19.526  0.00  0.00    +0.000 A 
ATOM      5  C   UNL     1       4.057   4.634  18.855  0.00  0.00    +0.000 A 
ATOM      6  C   UNL     1       3.472   5.984  19.080  0.00  0.00    +0.000 A 
ENDROOT
BRANCH   5   7
ATOM      7  C   UNL     1       5.181   4.372  17.738  0.00  0.00    +0.000 A 
ATOM      8  C   UNL     1       6.349   4.395  18.419  0.00  0.00    +0.000 A 
ATOM      9  C   UNL     1       7.597   4.585  17.692  0.00  0.00    +0.000 A 
ATOM     10  O   UNL     1       8.599   3.914  17.857  0.00  0.00    +0.000 OA
ATOM     11  O   UNL     1       7.482   5.762  17.012  0.00  0.00    +0.000 OA
ATOM     12  C   UNL     1       6.644   5.418  15.945  0.00  0.00    +0.000 A 
ATOM     13  C   UNL     1       7.243   5.756  14.722  0.00  0.00    +0.000 A 
ATOM     14  C   UNL     1       6.854   5.110  13.568  0.00  0.00    +0.000 A 
ATOM     15  C   UNL     1       5.899   4.077  13.592  0.00  0.00    +0.000 A 
ATOM     16  C   UNL     1       5.182   3.860  14.895  0.00  0.00    +0.000 A 
ATOM     17  C   UNL     1       5.508   4.580  16.140  0.00  0.00    +0.000 A 
BRANCH  15  18
ATOM     18  C   UNL     1       5.905   3.251  12.213  0.00  0.00    +0.000 C 
ATOM     19  C   UNL     1       6.919   3.889  11.190  0.00  0.00    +0.000 C 
ATOM     20  C   UNL     1       6.283   1.761  12.279  0.00  0.00    +0.000 C 
ATOM     21  C   UNL     1       4.529   3.314  11.452  0.00  0.00    +0.000 C 
ENDBRANCH  15  18
ENDBRANCH   5   7
BRANCH   1  25
ATOM     22  C   UNL     1       0.509  10.370  20.261  0.00  0.00    +0.000 A 
ATOM     23  C   UNL     1       1.137   9.963  19.078  0.00  0.00    +0.000 A 
ATOM     24  C   UNL     1       1.705   8.678  18.968  0.00  0.00    +0.000 A 
ATOM     25  C   UNL     1       1.692   7.711  20.010  0.00  0.00    +0.000 A 
ATOM     26  C   UNL     1       1.128   8.183  21.210  0.00  0.00    +0.000 A 
ATOM     27  C   UNL     1       0.554   9.482  21.328  0.00  0.00    +0.000 A 
BRANCH  22  29
ATOM     28  C   UNL     1      -0.350  12.313  21.805  0.00  0.00    +0.000 C 
ATOM     29  C   UNL     1      -0.171  11.707  20.431  0.00  0.00    +0.000 C 
ATOM     30  O   UNL     1      -0.559  12.315  19.432  0.00  0.00    +0.000 OA
ENDBRANCH  22  29
ENDBRANCH   1  25
TORSDOF 4
ENDMDL
MODEL 6
REMARK VINA RESULT:      -8.5      1.853      9.558
REMARK  Name = 
REMARK  8 active torsions:
REMARK  status: ('A' for Active; 'I' for Inactive)
REMARK    1  A    between atoms: C_1  and  C_2
REMARK    2  A    between atoms: C_2  and  C_4
REMARK    3  A    between atoms: C_7  and  C_8
REMARK    4  A    between atoms: C_12  and  C_13
REMARK    5  A    between atoms: C_21  and  C_22
REMARK    6  A    between atoms: C_22  and  C_23
REMARK    7  A    between atoms: C_22  and  C_24
REMARK    8  A    between atoms: C_22  and  C_25
REMARK                            x       y       z     vdW  Elec       q    Type
REMARK                         _______ _______ _______ _____ _____    ______ ____
ROOT
ATOM      1  C   UNL     1       2.342   6.637  19.701  0.00  0.00    +0.000 A 
ATOM      2  C   UNL     1       1.763   5.604  20.439  0.00  0.00    +0.000 A 
ATOM      3  C   UNL     1       2.302   4.290  20.391  0.00  0.00    +0.000 A 
ATOM      4  C   UNL     1       3.435   3.942  19.606  0.00  0.00    +0.000 A 
ATOM      5  C   UNL     1       4.105   4.893  18.829  0.00  0.00    +0.000 A 
ATOM      6  C   UNL     1       3.509   6.253  18.943  0.00  0.00    +0.000 A 
ENDROOT
BRANCH   5   7
ATOM      7  C   UNL     1       5.207   4.539  17.716  0.00  0.00    +0.000 A 
ATOM      8  C   UNL     1       6.378   4.518  18.392  0.00  0.00    +0.000 A 
ATOM      9  C   UNL     1       7.631   4.620  17.656  0.00  0.00    +0.000 A 
ATOM     10  O   UNL     1       8.596   3.901  17.835  0.00  0.00    +0.000 OA
ATOM     11  O   UNL     1       7.576   5.783  16.944  0.00  0.00    +0.000 OA
ATOM     12  C   UNL     1       6.715   5.455  15.890  0.00  0.00    +0.000 A 
ATOM     13  C   UNL     1       7.325   5.726  14.655  0.00  0.00    +0.000 A 
ATOM     14  C   UNL     1       6.896   5.070  13.521  0.00  0.00    +0.000 A 
ATOM     15  C   UNL     1       5.887   4.092  13.578  0.00  0.00    +0.000 A 
ATOM     16  C   UNL     1       5.166   3.951  14.889  0.00  0.00    +0.000 A 
ATOM     17  C   UNL     1       5.537   4.685  16.111  0.00  0.00    +0.000 A 
BRANCH  15  18
ATOM     18  C   UNL     1       5.841   3.229  12.222  0.00  0.00    +0.000 C 
ATOM     19  C   UNL     1       6.896   3.771  11.185  0.00  0.00    +0.000 C 
ATOM     20  C   UNL     1       6.120   1.720  12.331  0.00  0.00    +0.000 C 
ATOM     21  C   UNL     1       4.473   3.362  11.455  0.00  0.00    +0.000 C 
ENDBRANCH  15  18
ENDBRANCH   5   7
BRANCH   1  25
ATOM     22  C   UNL     1       0.601  10.730  19.906  0.00  0.00    +0.000 A 
ATOM     23  C   UNL     1       0.559   9.860  21.002  0.00  0.00    +0.000 A 
ATOM     24  C   UNL     1       1.106   8.565  20.916  0.00  0.00    +0.000 A 
ATOM     25  C   UNL     1       1.729   8.041  19.750  0.00  0.00    +0.000 A 
ATOM     26  C   UNL     1       1.678   8.910  18.645  0.00  0.00    +0.000 A 
ATOM     27  C   UNL     1       1.126  10.221  18.725  0.00  0.00    +0.000 A 
BRANCH  22  29
ATOM     28  C   UNL     1      -0.821  12.672  18.854  0.00  0.00    +0.000 C 
ATOM     29  C   UNL     1       0.089  12.150  19.944  0.00  0.00    +0.000 C 
ATOM     30  O   UNL     1       0.402  12.877  20.889  0.00  0.00    +0.000 OA
ENDBRANCH  22  29
ENDBRANCH   1  25
TORSDOF 4
ENDMDL
MODEL 7
REMARK VINA RESULT:      -8.4      2.153      3.319
REMARK  Name = 
REMARK  8 active torsions:
REMARK  status: ('A' for Active; 'I' for Inactive)
REMARK    1  A    between atoms: C_1  and  C_2
REMARK    2  A    between atoms: C_2  and  C_4
REMARK    3  A    between atoms: C_7  and  C_8
REMARK    4  A    between atoms: C_12  and  C_13
REMARK    5  A    between atoms: C_21  and  C_22
REMARK    6  A    between atoms: C_22  and  C_23
REMARK    7  A    between atoms: C_22  and  C_24
REMARK    8  A    between atoms: C_22  and  C_25
REMARK                            x       y       z     vdW  Elec       q    Type
REMARK                         _______ _______ _______ _____ _____    ______ ____
ROOT
ATOM      1  C   UNL     1       2.854   6.842  18.687  0.00  0.00    +0.000 A 
ATOM      2  C   UNL     1       2.602   6.080  19.828  0.00  0.00    +0.000 A 
ATOM      3  C   UNL     1       1.727   6.558  20.839  0.00  0.00    +0.000 A 
ATOM      4  C   UNL     1       1.067   7.815  20.767  0.00  0.00    +0.000 A 
ATOM      5  C   UNL     1       1.235   8.665  19.669  0.00  0.00    +0.000 A 
ATOM      6  C   UNL     1       2.141   8.097  18.633  0.00  0.00    +0.000 A 
ENDROOT
BRANCH   5   7
ATOM      7  C   UNL     1       0.754  10.197  19.628  0.00  0.00    +0.000 A 
ATOM      8  C   UNL     1       1.632  10.807  18.799  0.00  0.00    +0.000 A 
ATOM      9  C   UNL     1       1.753  12.258  18.828  0.00  0.00    +0.000 A 
ATOM     10  O   UNL     1       1.771  12.967  17.838  0.00  0.00    +0.000 OA
ATOM     11  O   UNL     1       2.073  12.602  20.108  0.00  0.00    +0.000 OA
ATOM     12  C   UNL     1       0.852  12.459  20.777  0.00  0.00    +0.000 A 
ATOM     13  C   UNL     1       0.517  13.646  21.447  0.00  0.00    +0.000 A 
ATOM     14  C   UNL     1      -0.799  13.908  21.759  0.00  0.00    +0.000 A 
ATOM     15  C   UNL     1      -1.832  13.033  21.377  0.00  0.00    +0.000 A 
ATOM     16  C   UNL     1      -1.408  11.712  20.800  0.00  0.00    +0.000 A 
ATOM     17  C   UNL     1      -0.007  11.352  20.518  0.00  0.00    +0.000 A 
BRANCH  15  18
ATOM     18  C   UNL     1      -3.270  13.737  21.518  0.00  0.00    +0.000 C 
ATOM     19  C   UNL     1      -4.253  13.217  20.402  0.00  0.00    +0.000 C 
ATOM     20  C   UNL     1      -4.027  13.547  22.844  0.00  0.00    +0.000 C 
ATOM     21  C   UNL     1      -3.221  15.290  21.267  0.00  0.00    +0.000 C 
ENDBRANCH  15  18
ENDBRANCH   5   7
BRANCH   1  25
ATOM     22  C   UNL     1       5.605   5.270  15.558  0.00  0.00    +0.000 A 
ATOM     23  C   UNL     1       4.871   4.413  16.386  0.00  0.00    +0.000 A 
ATOM     24  C   UNL     1       4.013   4.928  17.378  0.00  0.00    +0.000 A 
ATOM     25  C   UNL     1       3.820   6.316  17.620  0.00  0.00    +0.000 A 
ATOM     26  C   UNL     1       4.636   7.145  16.828  0.00  0.00    +0.000 A 
ATOM     27  C   UNL     1       5.507   6.630  15.824  0.00  0.00    +0.000 A 
BRANCH  22  29
ATOM     28  C   UNL     1       6.006   3.763  13.445  0.00  0.00    +0.000 C 
ATOM     29  C   UNL     1       6.498   4.792  14.439  0.00  0.00    +0.000 C 
ATOM     30  O   UNL     1       7.629   5.269  14.326  0.00  0.00    +0.000 OA
ENDBRANCH  22  29
ENDBRANCH   1  25
TORSDOF 4
ENDMDL
MODEL 8
REMARK VINA RESULT:      -8.2      2.202      3.397
REMARK  Name = 
REMARK  8 active torsions:
REMARK  status: ('A' for Active; 'I' for Inactive)
REMARK    1  A    between atoms: C_1  and  C_2
REMARK    2  A    between atoms: C_2  and  C_4
REMARK    3  A    between atoms: C_7  and  C_8
REMARK    4  A    between atoms: C_12  and  C_13
REMARK    5  A    between atoms: C_21  and  C_22
REMARK    6  A    between atoms: C_22  and  C_23
REMARK    7  A    between atoms: C_22  and  C_24
REMARK    8  A    between atoms: C_22  and  C_25
REMARK                            x       y       z     vdW  Elec       q    Type
REMARK                         _______ _______ _______ _____ _____    ______ ____
ROOT
ATOM      1  C   UNL     1       2.783   6.708  18.862  0.00  0.00    +0.000 A 
ATOM      2  C   UNL     1       2.558   5.909  19.983  0.00  0.00    +0.000 A 
ATOM      3  C   UNL     1       1.706   6.354  21.029  0.00  0.00    +0.000 A 
ATOM      4  C   UNL     1       1.043   7.611  21.012  0.00  0.00    +0.000 A 
ATOM      5  C   UNL     1       1.184   8.496  19.938  0.00  0.00    +0.000 A 
ATOM      6  C   UNL     1       2.067   7.962  18.864  0.00  0.00    +0.000 A 
ENDROOT
BRANCH   5   7
ATOM      7  C   UNL     1       0.701  10.027  19.957  0.00  0.00    +0.000 A 
ATOM      8  C   UNL     1       1.247  10.570  18.844  0.00  0.00    +0.000 A 
ATOM      9  C   UNL     1       1.355  12.018  18.734  0.00  0.00    +0.000 A 
ATOM     10  O   UNL     1       1.034  12.659  17.750  0.00  0.00    +0.000 OA
ATOM     11  O   UNL     1       2.079  12.443  19.808  0.00  0.00    +0.000 OA
ATOM     12  C   UNL     1       1.152  12.360  20.854  0.00  0.00    +0.000 A 
ATOM     13  C   UNL     1       1.047  13.593  21.516  0.00  0.00    +0.000 A 
ATOM     14  C   UNL     1      -0.093  13.891  22.230  0.00  0.00    +0.000 A 
ATOM     15  C   UNL     1      -1.185  13.005  22.273  0.00  0.00    +0.000 A 
ATOM     16  C   UNL     1      -0.963  11.643  21.678  0.00  0.00    +0.000 A 
ATOM     17  C   UNL     1       0.268  11.248  20.970  0.00  0.00    +0.000 A 
BRANCH  15  18
ATOM     18  C   UNL     1      -2.501  13.735  22.838  0.00  0.00    +0.000 C 
ATOM     19  C   UNL     1      -2.167  14.542  24.149  0.00  0.00    +0.000 C 
ATOM     20  C   UNL     1      -3.209  14.741  21.913  0.00  0.00    +0.000 C 
ATOM     21  C   UNL     1      -3.612  12.722  23.305  0.00  0.00    +0.000 C 
ENDBRANCH  15  18
ENDBRANCH   5   7
BRANCH   1  25
ATOM     22  C   UNL     1       5.571   5.334  15.674  0.00  0.00    +0.000 A 
ATOM     23  C   UNL     1       5.268   6.689  15.848  0.00  0.00    +0.000 A 
ATOM     24  C   UNL     1       4.376   7.104  16.855  0.00  0.00    +0.000 A 
ATOM     25  C   UNL     1       3.725   6.218  17.756  0.00  0.00    +0.000 A 
ATOM     26  C   UNL     1       3.986   4.860  17.498  0.00  0.00    +0.000 A 
ATOM     27  C   UNL     1       4.887   4.433  16.480  0.00  0.00    +0.000 A 
BRANCH  22  29
ATOM     28  C   UNL     1       6.128   3.851  13.578  0.00  0.00    +0.000 C 
ATOM     29  C   UNL     1       6.561   4.821  14.656  0.00  0.00    +0.000 C 
ATOM     30  O   UNL     1       7.726   5.220  14.696  0.00  0.00    +0.000 OA
ENDBRANCH  22  29
ENDBRANCH   1  25
TORSDOF 4
ENDMDL
MODEL 9
REMARK VINA RESULT:      -8.2      1.444      2.577
REMARK  Name = 
REMARK  8 active torsions:
REMARK  status: ('A' for Active; 'I' for Inactive)
REMARK    1  A    between atoms: C_1  and  C_2
REMARK    2  A    between atoms: C_2  and  C_4
REMARK    3  A    between atoms: C_7  and  C_8
REMARK    4  A    between atoms: C_12  and  C_13
REMARK    5  A    between atoms: C_21  and  C_22
REMARK    6  A    between atoms: C_22  and  C_23
REMARK    7  A    between atoms: C_22  and  C_24
REMARK    8  A    between atoms: C_22  and  C_25
REMARK                            x       y       z     vdW  Elec       q    Type
REMARK                         _______ _______ _______ _____ _____    ______ ____
ROOT
ATOM      1  C   UNL     1       2.629   6.866  18.960  0.00  0.00    +0.000 A 
ATOM      2  C   UNL     1       2.287   6.027  20.021  0.00  0.00    +0.000 A 
ATOM      3  C   UNL     1       1.432   6.484  21.059  0.00  0.00    +0.000 A 
ATOM      4  C   UNL     1       0.882   7.794  21.094  0.00  0.00    +0.000 A 
ATOM      5  C   UNL     1       1.146   8.724  20.083  0.00  0.00    +0.000 A 
ATOM      6  C   UNL     1       2.025   8.177  19.013  0.00  0.00    +0.000 A 
ENDROOT
BRANCH   5   7
ATOM      7  C   UNL     1       0.797  10.288  20.177  0.00  0.00    +0.000 A 
ATOM      8  C   UNL     1      -0.529  10.326  20.441  0.00  0.00    +0.000 A 
ATOM      9  C   UNL     1      -1.271  11.557  20.207  0.00  0.00    +0.000 A 
ATOM     10  O   UNL     1      -2.056  12.049  20.996  0.00  0.00    +0.000 OA
ATOM     11  O   UNL     1      -1.092  11.882  18.894  0.00  0.00    +0.000 OA
ATOM     12  C   UNL     1       0.212  12.391  18.879  0.00  0.00    +0.000 A 
ATOM     13  C   UNL     1       0.231  13.676  18.316  0.00  0.00    +0.000 A 
ATOM     14  C   UNL     1       1.261  14.540  18.618  0.00  0.00    +0.000 A 
ATOM     15  C   UNL     1       2.278  14.183  19.522  0.00  0.00    +0.000 A 
ATOM     16  C   UNL     1       2.294  12.750  19.976  0.00  0.00    +0.000 A 
ATOM     17  C   UNL     1       1.257  11.766  19.620  0.00  0.00    +0.000 A 
BRANCH  15  18
ATOM     18  C   UNL     1       3.122  15.471  19.982  0.00  0.00    +0.000 C 
ATOM     19  C   UNL     1       2.745  16.723  19.104  0.00  0.00    +0.000 C 
ATOM     20  C   UNL     1       2.967  15.938  21.440  0.00  0.00    +0.000 C 
ATOM     21  C   UNL     1       4.670  15.309  19.743  0.00  0.00    +0.000 C 
ENDBRANCH  15  18
ENDBRANCH   5   7
BRANCH   1  25
ATOM     22  C   UNL     1       5.424   5.437  15.802  0.00  0.00    +0.000 A 
ATOM     23  C   UNL     1       5.225   6.801  16.042  0.00  0.00    +0.000 A 
ATOM     24  C   UNL     1       4.329   7.235  17.038  0.00  0.00    +0.000 A 
ATOM     25  C   UNL     1       3.572   6.359  17.863  0.00  0.00    +0.000 A 
ATOM     26  C   UNL     1       3.733   5.000  17.538  0.00  0.00    +0.000 A 
ATOM     27  C   UNL     1       4.636   4.554  16.531  0.00  0.00    +0.000 A 
BRANCH  22  29
ATOM     28  C   UNL     1       5.971   3.903  13.741  0.00  0.00    +0.000 C 
ATOM     29  C   UNL     1       6.409   4.898  14.793  0.00  0.00    +0.000 C 
ATOM     30  O   UNL     1       7.575   5.298  14.819  0.00  0.00    +0.000 OA
ENDBRANCH  22  29
ENDBRANCH   1  25
TORSDOF 4
ENDMDL
