MODEL 1
REMARK VINA RESULT:      -5.7      0.000      0.000
REMARK  Name = 
REMARK  6 active torsions:
REMARK  status: ('A' for Active; 'I' for Inactive)
REMARK    1  A    between atoms: N_4  and  C_5
REMARK    2  A    between atoms: N_7  and  C_8
REMARK    3  A    between atoms: C_8  and  C_9
REMARK    4  A    between atoms: C_9  and  O_10
REMARK    5  A    between atoms: C_9  and  C_11
REMARK    6  A    between atoms: C_11  and  O_12
REMARK                            x       y       z     vdW  Elec       q    Type
REMARK                         _______ _______ _______ _____ _____    ______ ____
ROOT
ATOM      1  C   UNL     1       6.812   4.611  18.207  0.00  0.00    +0.000 C 
ATOM      2  O   UNL     1       7.121   5.340  19.146  0.00  0.00    +0.000 OA
ATOM      3  N   UNL     1       5.735   3.768  18.251  0.00  0.00    +0.000 N 
ATOM      4  H   UNL     1       5.444   3.467  17.331  0.00  0.00    +0.000 HD
ENDROOT
BRANCH   1   8
ATOM      5  N   UNL     1       7.679   5.386  14.868  0.00  0.00    +0.000 N 
ATOM      6  C   UNL     1       7.102   5.399  16.092  0.00  0.00    +0.000 C 
ATOM      7  N   UNL     1       6.208   6.416  16.150  0.00  0.00    +0.000 N 
ATOM      8  N   UNL     1       7.441   4.548  16.999  0.00  0.00    +0.000 NA
ATOM      9  H   UNL     1       7.883   6.317  14.524  0.00  0.00    +0.000 HD
ATOM     10  H   UNL     1       8.503   4.792  14.844  0.00  0.00    +0.000 HD
ATOM     11  H   UNL     1       5.635   6.485  15.317  0.00  0.00    +0.000 HD
ATOM     12  H   UNL     1       5.612   6.348  16.979  0.00  0.00    +0.000 HD
ENDBRANCH   1   8
BRANCH   3  13
ATOM     13  C   UNL     1       4.822   3.833  19.377  0.00  0.00    +0.000 C 
BRANCH  13  14
ATOM     14  C   UNL     1       4.232   2.483  19.796  0.00  0.00    +0.000 C 
BRANCH  14  15
ATOM     15  O   UNL     1       5.263   1.580  20.230  0.00  0.00    +0.000 OA
ATOM     16  H   UNL     1       5.386   0.922  19.522  0.00  0.00    +0.000 HD
ENDBRANCH  14  15
BRANCH  14  17
ATOM     17  C   UNL     1       3.438   1.804  18.680  0.00  0.00    +0.000 C 
BRANCH  17  18
ATOM     18  O   UNL     1       4.078   0.582  18.311  0.00  0.00    +0.000 OA
ATOM     19  H   UNL     1       4.308   0.138  19.152  0.00  0.00    +0.000 HD
ENDBRANCH  17  18
ENDBRANCH  14  17
ENDBRANCH  13  14
ENDBRANCH   3  13
TORSDOF 6
ENDMDL
MODEL 2
REMARK VINA RESULT:      -5.6      1.558      2.012
REMARK  Name = 
REMARK  6 active torsions:
REMARK  status: ('A' for Active; 'I' for Inactive)
REMARK    1  A    between atoms: N_4  and  C_5
REMARK    2  A    between atoms: N_7  and  C_8
REMARK    3  A    between atoms: C_8  and  C_9
REMARK    4  A    between atoms: C_9  and  O_10
REMARK    5  A    between atoms: C_9  and  C_11
REMARK    6  A    between atoms: C_11  and  O_12
REMARK                            x       y       z     vdW  Elec       q    Type
REMARK                         _______ _______ _______ _____ _____    ______ ____
ROOT
ATOM      1  C   UNL     1       5.344   4.301  19.022  0.00  0.00    +0.000 C 
ATOM      2  O   UNL     1       4.498   5.183  19.142  0.00  0.00    +0.000 OA
ATOM      3  N   UNL     1       5.132   3.015  19.438  0.00  0.00    +0.000 N 
ATOM      4  H   UNL     1       5.779   2.362  19.015  0.00  0.00    +0.000 HD
ENDROOT
BRANCH   1   8
ATOM      5  N   UNL     1       7.821   4.617  16.519  0.00  0.00    +0.000 N 
ATOM      6  C   UNL     1       6.635   4.491  17.157  0.00  0.00    +0.000 C 
ATOM      7  N   UNL     1       5.638   4.466  16.239  0.00  0.00    +0.000 N 
ATOM      8  N   UNL     1       6.571   4.439  18.443  0.00  0.00    +0.000 NA
ATOM      9  H   UNL     1       7.776   5.261  15.738  0.00  0.00    +0.000 HD
ATOM     10  H   UNL     1       8.572   4.860  17.158  0.00  0.00    +0.000 HD
ATOM     11  H   UNL     1       5.851   3.877  15.442  0.00  0.00    +0.000 HD
ATOM     12  H   UNL     1       4.748   4.179  16.657  0.00  0.00    +0.000 HD
ENDBRANCH   1   8
BRANCH   3  13
ATOM     13  C   UNL     1       3.814   2.620  19.900  0.00  0.00    +0.000 C 
BRANCH  13  14
ATOM     14  C   UNL     1       3.060   1.689  18.946  0.00  0.00    +0.000 C 
BRANCH  14  15
ATOM     15  O   UNL     1       3.967   0.833  18.232  0.00  0.00    +0.000 OA
ATOM     16  H   UNL     1       4.743   0.694  18.805  0.00  0.00    +0.000 HD
ENDBRANCH  14  15
BRANCH  14  17
ATOM     17  C   UNL     1       2.204   2.441  17.927  0.00  0.00    +0.000 C 
BRANCH  17  18
ATOM     18  O   UNL     1       3.041   3.264  17.114  0.00  0.00    +0.000 OA
ATOM     19  H   UNL     1       3.447   3.914  17.723  0.00  0.00    +0.000 HD
ENDBRANCH  17  18
ENDBRANCH  14  17
ENDBRANCH  13  14
ENDBRANCH   3  13
TORSDOF 6
ENDMDL
MODEL 3
REMARK VINA RESULT:      -5.6      1.056      1.379
REMARK  Name = 
REMARK  6 active torsions:
REMARK  status: ('A' for Active; 'I' for Inactive)
REMARK    1  A    between atoms: N_4  and  C_5
REMARK    2  A    between atoms: N_7  and  C_8
REMARK    3  A    between atoms: C_8  and  C_9
REMARK    4  A    between atoms: C_9  and  O_10
REMARK    5  A    between atoms: C_9  and  C_11
REMARK    6  A    between atoms: C_11  and  O_12
REMARK                            x       y       z     vdW  Elec       q    Type
REMARK                         _______ _______ _______ _____ _____    ______ ____
ROOT
ATOM      1  C   UNL     1       5.672   5.128  18.739  0.00  0.00    +0.000 C 
ATOM      2  O   UNL     1       6.338   5.110  19.771  0.00  0.00    +0.000 OA
ATOM      3  N   UNL     1       4.445   4.528  18.643  0.00  0.00    +0.000 N 
ATOM      4  H   UNL     1       3.910   4.872  17.856  0.00  0.00    +0.000 HD
ENDROOT
BRANCH   1   8
ATOM      5  N   UNL     1       7.448   5.915  15.785  0.00  0.00    +0.000 N 
ATOM      6  C   UNL     1       7.052   5.334  16.941  0.00  0.00    +0.000 C 
ATOM      7  N   UNL     1       7.887   4.307  17.231  0.00  0.00    +0.000 N 
ATOM      8  N   UNL     1       6.010   5.752  17.575  0.00  0.00    +0.000 NA
ATOM      9  H   UNL     1       7.750   5.238  15.093  0.00  0.00    +0.000 HD
ATOM     10  H   UNL     1       6.739   6.538  15.411  0.00  0.00    +0.000 HD
ATOM     11  H   UNL     1       8.863   4.541  17.089  0.00  0.00    +0.000 HD
ATOM     12  H   UNL     1       7.746   3.964  18.185  0.00  0.00    +0.000 HD
ENDBRANCH   1   8
BRANCH   3  13
ATOM     13  C   UNL     1       3.822   3.980  19.833  0.00  0.00    +0.000 C 
BRANCH  13  14
ATOM     14  C   UNL     1       3.814   2.449  19.898  0.00  0.00    +0.000 C 
BRANCH  14  15
ATOM     15  O   UNL     1       5.141   1.932  20.094  0.00  0.00    +0.000 OA
ATOM     16  H   UNL     1       5.501   2.362  20.891  0.00  0.00    +0.000 HD
ENDBRANCH  14  15
BRANCH  14  17
ATOM     17  C   UNL     1       3.225   1.800  18.645  0.00  0.00    +0.000 C 
BRANCH  17  18
ATOM     18  O   UNL     1       4.231   1.707  17.636  0.00  0.00    +0.000 OA
ATOM     19  H   UNL     1       4.260   0.765  17.375  0.00  0.00    +0.000 HD
ENDBRANCH  17  18
ENDBRANCH  14  17
ENDBRANCH  13  14
ENDBRANCH   3  13
TORSDOF 6
ENDMDL
MODEL 4
REMARK VINA RESULT:      -5.5      1.595      2.233
REMARK  Name = 
REMARK  6 active torsions:
REMARK  status: ('A' for Active; 'I' for Inactive)
REMARK    1  A    between atoms: N_4  and  C_5
REMARK    2  A    between atoms: N_7  and  C_8
REMARK    3  A    between atoms: C_8  and  C_9
REMARK    4  A    between atoms: C_9  and  O_10
REMARK    5  A    between atoms: C_9  and  C_11
REMARK    6  A    between atoms: C_11  and  O_12
REMARK                            x       y       z     vdW  Elec       q    Type
REMARK                         _______ _______ _______ _____ _____    ______ ____
ROOT
ATOM      1  C   UNL     1       4.946   4.937  16.871  0.00  0.00    +0.000 C 
ATOM      2  O   UNL     1       5.021   5.544  17.936  0.00  0.00    +0.000 OA
ATOM      3  N   UNL     1       4.107   3.871  16.688  0.00  0.00    +0.000 N 
ATOM      4  H   UNL     1       3.944   3.674  15.709  0.00  0.00    +0.000 HD
ENDROOT
BRANCH   1   8
ATOM      5  N   UNL     1       7.643   5.312  14.616  0.00  0.00    +0.000 N 
ATOM      6  C   UNL     1       6.904   5.033  15.715  0.00  0.00    +0.000 C 
ATOM      7  N   UNL     1       7.711   4.526  16.677  0.00  0.00    +0.000 N 
ATOM      8  N   UNL     1       5.629   5.231  15.728  0.00  0.00    +0.000 NA
ATOM      9  H   UNL     1       8.344   4.604  14.430  0.00  0.00    +0.000 HD
ATOM     10  H   UNL     1       7.062   5.484  13.801  0.00  0.00    +0.000 HD
ATOM     11  H   UNL     1       8.583   5.035  16.767  0.00  0.00    +0.000 HD
ATOM     12  H   UNL     1       7.237   4.482  17.583  0.00  0.00    +0.000 HD
ENDBRANCH   1   8
BRANCH   3  13
ATOM     13  C   UNL     1       3.151   3.526  17.725  0.00  0.00    +0.000 C 
BRANCH  13  14
ATOM     14  C   UNL     1       3.348   2.134  18.333  0.00  0.00    +0.000 C 
BRANCH  14  15
ATOM     15  O   UNL     1       2.086   1.491  18.574  0.00  0.00    +0.000 OA
ATOM     16  H   UNL     1       2.226   0.843  19.289  0.00  0.00    +0.000 HD
ENDBRANCH  14  15
BRANCH  14  17
ATOM     17  C   UNL     1       4.134   2.159  19.644  0.00  0.00    +0.000 C 
BRANCH  17  18
ATOM     18  O   UNL     1       5.307   2.958  19.485  0.00  0.00    +0.000 OA
ATOM     19  H   UNL     1       5.420   3.437  20.330  0.00  0.00    +0.000 HD
ENDBRANCH  17  18
ENDBRANCH  14  17
ENDBRANCH  13  14
ENDBRANCH   3  13
TORSDOF 6
ENDMDL
MODEL 5
REMARK VINA RESULT:      -5.5      2.003      2.466
REMARK  Name = 
REMARK  6 active torsions:
REMARK  status: ('A' for Active; 'I' for Inactive)
REMARK    1  A    between atoms: N_4  and  C_5
REMARK    2  A    between atoms: N_7  and  C_8
REMARK    3  A    between atoms: C_8  and  C_9
REMARK    4  A    between atoms: C_9  and  O_10
REMARK    5  A    between atoms: C_9  and  C_11
REMARK    6  A    between atoms: C_11  and  O_12
REMARK                            x       y       z     vdW  Elec       q    Type
REMARK                         _______ _______ _______ _____ _____    ______ ____
ROOT
ATOM      1  C   UNL     1       5.331   4.024  18.325  0.00  0.00    +0.000 C 
ATOM      2  O   UNL     1       5.767   4.224  19.456  0.00  0.00    +0.000 OA
ATOM      3  N   UNL     1       4.377   3.079  18.059  0.00  0.00    +0.000 N 
ATOM      4  H   UNL     1       3.922   3.233  17.169  0.00  0.00    +0.000 HD
ENDROOT
BRANCH   1   8
ATOM      5  N   UNL     1       7.352   5.472  15.811  0.00  0.00    +0.000 N 
ATOM      6  C   UNL     1       6.935   4.802  16.911  0.00  0.00    +0.000 C 
ATOM      7  N   UNL     1       8.012   4.288  17.552  0.00  0.00    +0.000 N 
ATOM      8  N   UNL     1       5.682   4.705  17.197  0.00  0.00    +0.000 NA
ATOM      9  H   UNL     1       8.105   4.995  15.328  0.00  0.00    +0.000 HD
ATOM     10  H   UNL     1       6.583   5.685  15.183  0.00  0.00    +0.000 HD
ATOM     11  H   UNL     1       8.781   4.945  17.619  0.00  0.00    +0.000 HD
ATOM     12  H   UNL     1       7.767   3.942  18.484  0.00  0.00    +0.000 HD
ENDBRANCH   1   8
BRANCH   3  13
ATOM     13  C   UNL     1       3.732   2.385  19.157  0.00  0.00    +0.000 C 
BRANCH  13  14
ATOM     14  C   UNL     1       2.226   2.637  19.271  0.00  0.00    +0.000 C 
BRANCH  14  15
ATOM     15  O   UNL     1       1.474   1.586  18.642  0.00  0.00    +0.000 OA
ATOM     16  H   UNL     1       1.954   1.336  17.831  0.00  0.00    +0.000 HD
ENDBRANCH  14  15
BRANCH  14  17
ATOM     17  C   UNL     1       1.794   3.970  18.658  0.00  0.00    +0.000 C 
BRANCH  17  18
ATOM     18  O   UNL     1       1.490   3.784  17.275  0.00  0.00    +0.000 OA
ATOM     19  H   UNL     1       0.809   4.452  17.060  0.00  0.00    +0.000 HD
ENDBRANCH  17  18
ENDBRANCH  14  17
ENDBRANCH  13  14
ENDBRANCH   3  13
TORSDOF 6
ENDMDL
MODEL 6
REMARK VINA RESULT:      -5.5      1.590      1.676
REMARK  Name = 
REMARK  6 active torsions:
REMARK  status: ('A' for Active; 'I' for Inactive)
REMARK    1  A    between atoms: N_4  and  C_5
REMARK    2  A    between atoms: N_7  and  C_8
REMARK    3  A    between atoms: C_8  and  C_9
REMARK    4  A    between atoms: C_9  and  O_10
REMARK    5  A    between atoms: C_9  and  C_11
REMARK    6  A    between atoms: C_11  and  O_12
REMARK                            x       y       z     vdW  Elec       q    Type
REMARK                         _______ _______ _______ _____ _____    ______ ____
ROOT
ATOM      1  C   UNL     1       5.057   4.586  16.745  0.00  0.00    +0.000 C 
ATOM      2  O   UNL     1       4.653   5.702  17.059  0.00  0.00    +0.000 OA
ATOM      3  N   UNL     1       5.302   3.604  17.667  0.00  0.00    +0.000 N 
ATOM      4  H   UNL     1       5.340   2.684  17.249  0.00  0.00    +0.000 HD
ENDROOT
BRANCH   1   8
ATOM      5  N   UNL     1       6.619   4.168  13.601  0.00  0.00    +0.000 N 
ATOM      6  C   UNL     1       6.339   4.563  14.864  0.00  0.00    +0.000 C 
ATOM      7  N   UNL     1       7.322   5.387  15.301  0.00  0.00    +0.000 N 
ATOM      8  N   UNL     1       5.285   4.141  15.477  0.00  0.00    +0.000 NA
ATOM      9  H   UNL     1       7.604   3.970  13.466  0.00  0.00    +0.000 HD
ATOM     10  H   UNL     1       6.039   3.387  13.309  0.00  0.00    +0.000 HD
ATOM     11  H   UNL     1       7.602   6.069  14.606  0.00  0.00    +0.000 HD
ATOM     12  H   UNL     1       7.059   5.860  16.170  0.00  0.00    +0.000 HD
ENDBRANCH   1   8
BRANCH   3  13
ATOM     13  C   UNL     1       4.932   3.818  19.054  0.00  0.00    +0.000 C 
BRANCH  13  14
ATOM     14  C   UNL     1       4.246   2.621  19.720  0.00  0.00    +0.000 C 
BRANCH  14  15
ATOM     15  O   UNL     1       5.213   1.710  20.270  0.00  0.00    +0.000 OA
ATOM     16  H   UNL     1       4.740   0.886  20.489  0.00  0.00    +0.000 HD
ENDBRANCH  14  15
BRANCH  14  17
ATOM     17  C   UNL     1       3.341   1.842  18.766  0.00  0.00    +0.000 C 
BRANCH  17  18
ATOM     18  O   UNL     1       4.049   0.716  18.246  0.00  0.00    +0.000 OA
ATOM     19  H   UNL     1       3.369   0.037  18.061  0.00  0.00    +0.000 HD
ENDBRANCH  17  18
ENDBRANCH  14  17
ENDBRANCH  13  14
ENDBRANCH   3  13
TORSDOF 6
ENDMDL
MODEL 7
REMARK VINA RESULT:      -5.4      2.009      2.314
REMARK  Name = 
REMARK  6 active torsions:
REMARK  status: ('A' for Active; 'I' for Inactive)
REMARK    1  A    between atoms: N_4  and  C_5
REMARK    2  A    between atoms: N_7  and  C_8
REMARK    3  A    between atoms: C_8  and  C_9
REMARK    4  A    between atoms: C_9  and  O_10
REMARK    5  A    between atoms: C_9  and  C_11
REMARK    6  A    between atoms: C_11  and  O_12
REMARK                            x       y       z     vdW  Elec       q    Type
REMARK                         _______ _______ _______ _____ _____    ______ ____
ROOT
ATOM      1  C   UNL     1       4.869   3.792  18.019  0.00  0.00    +0.000 C 
ATOM      2  O   UNL     1       3.864   3.514  17.370  0.00  0.00    +0.000 OA
ATOM      3  N   UNL     1       5.094   3.303  19.277  0.00  0.00    +0.000 N 
ATOM      4  H   UNL     1       6.065   3.376  19.550  0.00  0.00    +0.000 HD
ENDROOT
BRANCH   1   8
ATOM      5  N   UNL     1       7.508   5.011  16.006  0.00  0.00    +0.000 N 
ATOM      6  C   UNL     1       6.469   4.283  16.476  0.00  0.00    +0.000 C 
ATOM      7  N   UNL     1       6.171   3.308  15.585  0.00  0.00    +0.000 N 
ATOM      8  N   UNL     1       5.905   4.573  17.599  0.00  0.00    +0.000 NA
ATOM      9  H   UNL     1       7.446   5.178  15.008  0.00  0.00    +0.000 HD
ATOM     10  H   UNL     1       7.629   5.878  16.522  0.00  0.00    +0.000 HD
ATOM     11  H   UNL     1       6.993   2.842  15.220  0.00  0.00    +0.000 HD
ATOM     12  H   UNL     1       5.526   2.619  15.981  0.00  0.00    +0.000 HD
ENDBRANCH   1   8
BRANCH   3  13
ATOM     13  C   UNL     1       4.203   2.296  19.822  0.00  0.00    +0.000 C 
BRANCH  13  14
ATOM     14  C   UNL     1       2.959   2.858  20.517  0.00  0.00    +0.000 C 
BRANCH  14  15
ATOM     15  O   UNL     1       2.922   2.477  21.903  0.00  0.00    +0.000 OA
ATOM     16  H   UNL     1       2.116   1.945  22.033  0.00  0.00    +0.000 HD
ENDBRANCH  14  15
BRANCH  14  17
ATOM     17  C   UNL     1       1.652   2.411  19.861  0.00  0.00    +0.000 C 
BRANCH  17  18
ATOM     18  O   UNL     1       1.942   1.604  18.719  0.00  0.00    +0.000 OA
ATOM     19  H   UNL     1       1.495   2.039  17.965  0.00  0.00    +0.000 HD
ENDBRANCH  17  18
ENDBRANCH  14  17
ENDBRANCH  13  14
ENDBRANCH   3  13
TORSDOF 6
ENDMDL
MODEL 8
REMARK VINA RESULT:      -5.4      2.538      4.831
REMARK  Name = 
REMARK  6 active torsions:
REMARK  status: ('A' for Active; 'I' for Inactive)
REMARK    1  A    between atoms: N_4  and  C_5
REMARK    2  A    between atoms: N_7  and  C_8
REMARK    3  A    between atoms: C_8  and  C_9
REMARK    4  A    between atoms: C_9  and  O_10
REMARK    5  A    between atoms: C_9  and  C_11
REMARK    6  A    between atoms: C_11  and  O_12
REMARK                            x       y       z     vdW  Elec       q    Type
REMARK                         _______ _______ _______ _____ _____    ______ ____
ROOT
ATOM      1  C   UNL     1       3.847   4.873  17.972  0.00  0.00    +0.000 C 
ATOM      2  O   UNL     1       3.753   5.580  18.972  0.00  0.00    +0.000 OA
ATOM      3  N   UNL     1       4.558   5.251  16.865  0.00  0.00    +0.000 N 
ATOM      4  H   UNL     1       4.783   4.467  16.267  0.00  0.00    +0.000 HD
ENDROOT
BRANCH   1   8
ATOM      5  N   UNL     1       3.351   1.395  18.375  0.00  0.00    +0.000 N 
ATOM      6  C   UNL     1       3.827   2.657  18.490  0.00  0.00    +0.000 C 
ATOM      7  N   UNL     1       4.834   2.670  19.396  0.00  0.00    +0.000 N 
ATOM      8  N   UNL     1       3.312   3.628  17.816  0.00  0.00    +0.000 NA
ATOM      9  H   UNL     1       3.294   0.918  19.268  0.00  0.00    +0.000 HD
ATOM     10  H   UNL     1       2.463   1.368  17.882  0.00  0.00    +0.000 HD
ATOM     11  H   UNL     1       5.475   1.893  19.284  0.00  0.00    +0.000 HD
ATOM     12  H   UNL     1       5.350   3.554  19.374  0.00  0.00    +0.000 HD
ENDBRANCH   1   8
BRANCH   3  13
ATOM     13  C   UNL     1       5.364   6.456  16.910  0.00  0.00    +0.000 C 
BRANCH  13  14
ATOM     14  C   UNL     1       6.828   6.227  17.300  0.00  0.00    +0.000 C 
BRANCH  14  15
ATOM     15  O   UNL     1       7.703   7.092  16.557  0.00  0.00    +0.000 OA
ATOM     16  H   UNL     1       7.503   6.960  15.612  0.00  0.00    +0.000 HD
ENDBRANCH  14  15
BRANCH  14  17
ATOM     17  C   UNL     1       7.285   4.784  17.089  0.00  0.00    +0.000 C 
BRANCH  17  18
ATOM     18  O   UNL     1       7.212   4.073  18.326  0.00  0.00    +0.000 OA
ATOM     19  H   UNL     1       6.455   3.461  18.237  0.00  0.00    +0.000 HD
ENDBRANCH  17  18
ENDBRANCH  14  17
ENDBRANCH  13  14
ENDBRANCH   3  13
TORSDOF 6
ENDMDL
MODEL 9
REMARK VINA RESULT:      -5.3      1.702      1.987
REMARK  Name = 
REMARK  6 active torsions:
REMARK  status: ('A' for Active; 'I' for Inactive)
REMARK    1  A    between atoms: N_4  and  C_5
REMARK    2  A    between atoms: N_7  and  C_8
REMARK    3  A    between atoms: C_8  and  C_9
REMARK    4  A    between atoms: C_9  and  O_10
REMARK    5  A    between atoms: C_9  and  C_11
REMARK    6  A    between atoms: C_11  and  O_12
REMARK                            x       y       z     vdW  Elec       q    Type
REMARK                         _______ _______ _______ _____ _____    ______ ____
ROOT
ATOM      1  C   UNL     1       5.364   4.370  18.387  0.00  0.00    +0.000 C 
ATOM      2  O   UNL     1       5.482   5.103  19.365  0.00  0.00    +0.000 OA
ATOM      3  N   UNL     1       4.741   3.153  18.449  0.00  0.00    +0.000 N 
ATOM      4  H   UNL     1       4.468   2.814  17.536  0.00  0.00    +0.000 HD
ENDROOT
BRANCH   1   8
ATOM      5  N   UNL     1       7.530   4.861  15.636  0.00  0.00    +0.000 N 
ATOM      6  C   UNL     1       7.047   4.588  16.870  0.00  0.00    +0.000 C 
ATOM      7  N   UNL     1       8.074   4.248  17.684  0.00  0.00    +0.000 N 
ATOM      8  N   UNL     1       5.783   4.647  17.119  0.00  0.00    +0.000 NA
ATOM      9  H   UNL     1       8.265   4.221  15.357  0.00  0.00    +0.000 HD
ATOM     10  H   UNL     1       6.791   4.906  14.940  0.00  0.00    +0.000 HD
ATOM     11  H   UNL     1       8.880   4.854  17.577  0.00  0.00    +0.000 HD
ATOM     12  H   UNL     1       7.785   4.222  18.666  0.00  0.00    +0.000 HD
ENDBRANCH   1   8
BRANCH   3  13
ATOM     13  C   UNL     1       4.053   2.763  19.666  0.00  0.00    +0.000 C 
BRANCH  13  14
ATOM     14  C   UNL     1       2.572   3.152  19.710  0.00  0.00    +0.000 C 
BRANCH  14  15
ATOM     15  O   UNL     1       1.898   2.503  20.801  0.00  0.00    +0.000 OA
ATOM     16  H   UNL     1       2.208   2.925  21.623  0.00  0.00    +0.000 HD
ENDBRANCH  14  15
BRANCH  14  17
ATOM     17  C   UNL     1       1.826   2.820  18.418  0.00  0.00    +0.000 C 
BRANCH  17  18
ATOM     18  O   UNL     1       2.330   1.600  17.874  0.00  0.00    +0.000 OA
ATOM     19  H   UNL     1       2.259   0.939  18.592  0.00  0.00    +0.000 HD
ENDBRANCH  17  18
ENDBRANCH  14  17
ENDBRANCH  13  14
ENDBRANCH   3  13
TORSDOF 6
ENDMDL
