MODEL 1
REMARK VINA RESULT:      -8.0      0.000      0.000
REMARK  Name = 
REMARK  4 active torsions:
REMARK  status: ('A' for Active; 'I' for Inactive)
REMARK    1  A    between atoms: C_1  and  C_2
REMARK    2  A    between atoms: C_2  and  N_3
REMARK    3  A    between atoms: C_8  and  O_9
REMARK    4  A    between atoms: O_9  and  C_10
REMARK                            x       y       z     vdW  Elec       q    Type
REMARK                         _______ _______ _______ _____ _____    ______ ____
ROOT
ATOM      1  N   UNL     1       2.702   6.059  19.751  0.00  0.00    +0.000 N 
ATOM      2  C   UNL     1       2.281   7.356  19.514  0.00  0.00    +0.000 A 
ATOM      3  C   UNL     1       2.840   7.729  18.297  0.00  0.00    +0.000 A 
ATOM      4  C   UNL     1       3.640   6.675  17.801  0.00  0.00    +0.000 A 
ATOM      5  C   UNL     1       4.416   6.494  16.639  0.00  0.00    +0.000 A 
ATOM      6  C   UNL     1       5.105   5.297  16.428  0.00  0.00    +0.000 A 
ATOM      7  C   UNL     1       5.026   4.283  17.385  0.00  0.00    +0.000 A 
ATOM      8  C   UNL     1       4.262   4.438  18.545  0.00  0.00    +0.000 A 
ATOM      9  C   UNL     1       3.563   5.644  18.736  0.00  0.00    +0.000 A 
ATOM     10  C   UNL     1       2.567   9.064  17.688  0.00  0.00    +0.000 C 
ATOM     11  C   UNL     1       1.154   9.539  18.056  0.00  0.00    +0.000 C 
ATOM     12  C   UNL     1       0.838   9.359  19.533  0.00  0.00    +0.000 A 
ATOM     13  C   UNL     1      -0.029  10.272  20.157  0.00  0.00    +0.000 A 
ATOM     14  C   UNL     1      -0.352  10.122  21.503  0.00  0.00    +0.000 A 
ATOM     15  C   UNL     1       0.189   9.066  22.226  0.00  0.00    +0.000 A 
ATOM     16  C   UNL     1       1.049   8.149  21.610  0.00  0.00    +0.000 A 
ATOM     17  C   UNL     1       1.370   8.255  20.253  0.00  0.00    +0.000 A 
ENDROOT
BRANCH   1  19
ATOM     18  C   UNL     1       1.060   4.326  20.427  0.00  0.00    +0.000 C 
ATOM     19  C   UNL     1       2.269   5.162  20.813  0.00  0.00    +0.000 C 
ENDBRANCH   1  19
BRANCH   6  20
ATOM     20  O   UNL     1       5.809   5.239  15.257  0.00  0.00    +0.000 OA
ATOM     21  C   UNL     1       6.153   3.942  14.780  0.00  0.00    +0.000 C 
ENDBRANCH   6  20
TORSDOF 2
ENDMDL
MODEL 2
REMARK VINA RESULT:      -7.4      3.493      4.906
REMARK  Name = 
REMARK  4 active torsions:
REMARK  status: ('A' for Active; 'I' for Inactive)
REMARK    1  A    between atoms: C_1  and  C_2
REMARK    2  A    between atoms: C_2  and  N_3
REMARK    3  A    between atoms: C_8  and  O_9
REMARK    4  A    between atoms: O_9  and  C_10
REMARK                            x       y       z     vdW  Elec       q    Type
REMARK                         _______ _______ _______ _____ _____    ______ ____
ROOT
ATOM      1  N   UNL     1       5.246   5.148  17.925  0.00  0.00    +0.000 N 
ATOM      2  C   UNL     1       4.123   4.347  18.049  0.00  0.00    +0.000 A 
ATOM      3  C   UNL     1       4.001   3.662  16.844  0.00  0.00    +0.000 A 
ATOM      4  C   UNL     1       5.025   4.072  15.961  0.00  0.00    +0.000 A 
ATOM      5  C   UNL     1       5.387   3.718  14.647  0.00  0.00    +0.000 A 
ATOM      6  C   UNL     1       6.492   4.315  14.033  0.00  0.00    +0.000 A 
ATOM      7  C   UNL     1       7.228   5.276  14.730  0.00  0.00    +0.000 A 
ATOM      8  C   UNL     1       6.888   5.642  16.036  0.00  0.00    +0.000 A 
ATOM      9  C   UNL     1       5.783   5.022  16.645  0.00  0.00    +0.000 A 
ATOM     10  C   UNL     1       2.917   2.661  16.622  0.00  0.00    +0.000 C 
ATOM     11  C   UNL     1       2.564   1.955  17.940  0.00  0.00    +0.000 C 
ATOM     12  C   UNL     1       2.403   2.923  19.101  0.00  0.00    +0.000 A 
ATOM     13  C   UNL     1       1.490   2.610  20.122  0.00  0.00    +0.000 A 
ATOM     14  C   UNL     1       1.333   3.468  21.209  0.00  0.00    +0.000 A 
ATOM     15  C   UNL     1       2.084   4.636  21.276  0.00  0.00    +0.000 A 
ATOM     16  C   UNL     1       3.000   4.952  20.265  0.00  0.00    +0.000 A 
ATOM     17  C   UNL     1       3.201   4.097  19.176  0.00  0.00    +0.000 A 
ENDROOT
BRANCH   1  19
ATOM     18  C   UNL     1       7.199   5.334  19.443  0.00  0.00    +0.000 C 
ATOM     19  C   UNL     1       5.892   5.941  18.960  0.00  0.00    +0.000 C 
ENDBRANCH   1  19
BRANCH   6  20
ATOM     20  O   UNL     1       6.749   3.876  12.763  0.00  0.00    +0.000 OA
ATOM     21  C   UNL     1       5.699   3.178  12.102  0.00  0.00    +0.000 C 
ENDBRANCH   6  20
TORSDOF 2
ENDMDL
MODEL 3
REMARK VINA RESULT:      -6.9      4.239      8.494
REMARK  Name = 
REMARK  4 active torsions:
REMARK  status: ('A' for Active; 'I' for Inactive)
REMARK    1  A    between atoms: C_1  and  C_2
REMARK    2  A    between atoms: C_2  and  N_3
REMARK    3  A    between atoms: C_8  and  O_9
REMARK    4  A    between atoms: O_9  and  C_10
REMARK                            x       y       z     vdW  Elec       q    Type
REMARK                         _______ _______ _______ _____ _____    ______ ____
ROOT
ATOM      1  N   UNL     1      -0.962  11.237  19.552  0.00  0.00    +0.000 N 
ATOM      2  C   UNL     1      -0.051  10.335  20.075  0.00  0.00    +0.000 A 
ATOM      3  C   UNL     1      -0.204  10.387  21.456  0.00  0.00    +0.000 A 
ATOM      4  C   UNL     1      -1.181  11.351  21.789  0.00  0.00    +0.000 A 
ATOM      5  C   UNL     1      -1.737  11.809  22.999  0.00  0.00    +0.000 A 
ATOM      6  C   UNL     1      -2.723  12.799  22.996  0.00  0.00    +0.000 A 
ATOM      7  C   UNL     1      -3.147  13.339  21.780  0.00  0.00    +0.000 A 
ATOM      8  C   UNL     1      -2.612  12.900  20.565  0.00  0.00    +0.000 A 
ATOM      9  C   UNL     1      -1.630  11.893  20.585  0.00  0.00    +0.000 A 
ATOM     10  C   UNL     1       0.591   9.507  22.363  0.00  0.00    +0.000 C 
ATOM     11  C   UNL     1       0.890   8.165  21.678  0.00  0.00    +0.000 C 
ATOM     12  C   UNL     1       1.380   8.331  20.248  0.00  0.00    +0.000 A 
ATOM     13  C   UNL     1       2.285   7.390  19.728  0.00  0.00    +0.000 A 
ATOM     14  C   UNL     1       2.737   7.504  18.416  0.00  0.00    +0.000 A 
ATOM     15  C   UNL     1       2.289   8.555  17.624  0.00  0.00    +0.000 A 
ATOM     16  C   UNL     1       1.382   9.493  18.133  0.00  0.00    +0.000 A 
ATOM     17  C   UNL     1       0.888   9.390  19.436  0.00  0.00    +0.000 A 
ENDROOT
BRANCH   1  19
ATOM     18  C   UNL     1      -2.222  10.365  17.601  0.00  0.00    +0.000 C 
ATOM     19  C   UNL     1      -1.307  11.445  18.154  0.00  0.00    +0.000 C 
ENDBRANCH   1  19
BRANCH   6  20
ATOM     20  O   UNL     1      -3.192  13.146  24.232  0.00  0.00    +0.000 OA
ATOM     21  C   UNL     1      -4.376  12.491  24.676  0.00  0.00    +0.000 C 
ENDBRANCH   6  20
TORSDOF 2
ENDMDL
MODEL 4
REMARK VINA RESULT:      -6.8      2.556      4.869
REMARK  Name = 
REMARK  4 active torsions:
REMARK  status: ('A' for Active; 'I' for Inactive)
REMARK    1  A    between atoms: C_1  and  C_2
REMARK    2  A    between atoms: C_2  and  N_3
REMARK    3  A    between atoms: C_8  and  O_9
REMARK    4  A    between atoms: O_9  and  C_10
REMARK                            x       y       z     vdW  Elec       q    Type
REMARK                         _______ _______ _______ _____ _____    ______ ____
ROOT
ATOM      1  N   UNL     1       4.071   5.617  17.637  0.00  0.00    +0.000 N 
ATOM      2  C   UNL     1       3.574   4.403  18.081  0.00  0.00    +0.000 A 
ATOM      3  C   UNL     1       4.068   3.439  17.209  0.00  0.00    +0.000 A 
ATOM      4  C   UNL     1       4.837   4.062  16.201  0.00  0.00    +0.000 A 
ATOM      5  C   UNL     1       5.565   3.593  15.090  0.00  0.00    +0.000 A 
ATOM      6  C   UNL     1       6.248   4.488  14.262  0.00  0.00    +0.000 A 
ATOM      7  C   UNL     1       6.195   5.856  14.540  0.00  0.00    +0.000 A 
ATOM      8  C   UNL     1       5.481   6.346  15.637  0.00  0.00    +0.000 A 
ATOM      9  C   UNL     1       4.810   5.430  16.469  0.00  0.00    +0.000 A 
ATOM     10  C   UNL     1       3.774   1.989  17.402  0.00  0.00    +0.000 C 
ATOM     11  C   UNL     1       3.637   1.666  18.897  0.00  0.00    +0.000 C 
ATOM     12  C   UNL     1       2.763   2.667  19.637  0.00  0.00    +0.000 A 
ATOM     13  C   UNL     1       2.007   2.224  20.735  0.00  0.00    +0.000 A 
ATOM     14  C   UNL     1       1.212   3.121  21.445  0.00  0.00    +0.000 A 
ATOM     15  C   UNL     1       1.169   4.456  21.060  0.00  0.00    +0.000 A 
ATOM     16  C   UNL     1       1.926   4.906  19.970  0.00  0.00    +0.000 A 
ATOM     17  C   UNL     1       2.755   4.036  19.255  0.00  0.00    +0.000 A 
ENDROOT
BRANCH   1  19
ATOM     18  C   UNL     1       2.792   7.735  17.814  0.00  0.00    +0.000 C 
ATOM     19  C   UNL     1       3.976   6.913  18.293  0.00  0.00    +0.000 C 
ENDBRANCH   1  19
BRANCH   6  20
ATOM     20  O   UNL     1       6.929   3.908  13.228  0.00  0.00    +0.000 OA
ATOM     21  C   UNL     1       6.147   3.251  12.235  0.00  0.00    +0.000 C 
ENDBRANCH   6  20
TORSDOF 2
ENDMDL
MODEL 5
REMARK VINA RESULT:      -6.8      2.288      4.764
REMARK  Name = 
REMARK  4 active torsions:
REMARK  status: ('A' for Active; 'I' for Inactive)
REMARK    1  A    between atoms: C_1  and  C_2
REMARK    2  A    between atoms: C_2  and  N_3
REMARK    3  A    between atoms: C_8  and  O_9
REMARK    4  A    between atoms: O_9  and  C_10
REMARK                            x       y       z     vdW  Elec       q    Type
REMARK                         _______ _______ _______ _____ _____    ______ ____
ROOT
ATOM      1  N   UNL     1       0.800  10.296  19.230  0.00  0.00    +0.000 N 
ATOM      2  C   UNL     1       0.102  10.226  20.423  0.00  0.00    +0.000 A 
ATOM      3  C   UNL     1       0.434   9.003  20.996  0.00  0.00    +0.000 A 
ATOM      4  C   UNL     1       1.307   8.300  20.136  0.00  0.00    +0.000 A 
ATOM      5  C   UNL     1       1.956   7.051  20.203  0.00  0.00    +0.000 A 
ATOM      6  C   UNL     1       2.788   6.630  19.163  0.00  0.00    +0.000 A 
ATOM      7  C   UNL     1       2.963   7.453  18.049  0.00  0.00    +0.000 A 
ATOM      8  C   UNL     1       2.331   8.697  17.960  0.00  0.00    +0.000 A 
ATOM      9  C   UNL     1       1.508   9.113  19.022  0.00  0.00    +0.000 A 
ATOM     10  C   UNL     1      -0.102   8.593  22.328  0.00  0.00    +0.000 C 
ATOM     11  C   UNL     1      -0.306   9.825  23.223  0.00  0.00    +0.000 C 
ATOM     12  C   UNL     1      -1.005  10.967  22.502  0.00  0.00    +0.000 A 
ATOM     13  C   UNL     1      -1.836  11.826  23.240  0.00  0.00    +0.000 A 
ATOM     14  C   UNL     1      -2.475  12.892  22.612  0.00  0.00    +0.000 A 
ATOM     15  C   UNL     1      -2.289  13.100  21.251  0.00  0.00    +0.000 A 
ATOM     16  C   UNL     1      -1.457  12.251  20.509  0.00  0.00    +0.000 A 
ATOM     17  C   UNL     1      -0.779  11.190  21.116  0.00  0.00    +0.000 A 
ENDROOT
BRANCH   1  19
ATOM     18  C   UNL     1       1.926  12.467  18.812  0.00  0.00    +0.000 C 
ATOM     19  C   UNL     1       0.918  11.436  18.333  0.00  0.00    +0.000 C 
ENDBRANCH   1  19
BRANCH   6  20
ATOM     20  O   UNL     1       3.371   5.407  19.354  0.00  0.00    +0.000 OA
ATOM     21  C   UNL     1       4.782   5.336  19.177  0.00  0.00    +0.000 C 
ENDBRANCH   6  20
TORSDOF 2
ENDMDL
MODEL 6
REMARK VINA RESULT:      -6.8      2.437      6.596
REMARK  Name = 
REMARK  4 active torsions:
REMARK  status: ('A' for Active; 'I' for Inactive)
REMARK    1  A    between atoms: C_1  and  C_2
REMARK    2  A    between atoms: C_2  and  N_3
REMARK    3  A    between atoms: C_8  and  O_9
REMARK    4  A    between atoms: O_9  and  C_10
REMARK                            x       y       z     vdW  Elec       q    Type
REMARK                         _______ _______ _______ _____ _____    ______ ____
ROOT
ATOM      1  N   UNL     1       3.250   3.906  17.588  0.00  0.00    +0.000 N 
ATOM      2  C   UNL     1       4.157   4.781  17.014  0.00  0.00    +0.000 A 
ATOM      3  C   UNL     1       4.059   5.967  17.733  0.00  0.00    +0.000 A 
ATOM      4  C   UNL     1       3.062   5.838  18.725  0.00  0.00    +0.000 A 
ATOM      5  C   UNL     1       2.554   6.692  19.724  0.00  0.00    +0.000 A 
ATOM      6  C   UNL     1       1.541   6.254  20.582  0.00  0.00    +0.000 A 
ATOM      7  C   UNL     1       1.029   4.963  20.435  0.00  0.00    +0.000 A 
ATOM      8  C   UNL     1       1.518   4.096  19.452  0.00  0.00    +0.000 A 
ATOM      9  C   UNL     1       2.547   4.548  18.606  0.00  0.00    +0.000 A 
ATOM     10  C   UNL     1       4.928   7.141  17.425  0.00  0.00    +0.000 C 
ATOM     11  C   UNL     1       6.297   6.671  16.912  0.00  0.00    +0.000 C 
ATOM     12  C   UNL     1       6.188   5.578  15.859  0.00  0.00    +0.000 A 
ATOM     13  C   UNL     1       7.165   5.507  14.853  0.00  0.00    +0.000 A 
ATOM     14  C   UNL     1       7.103   4.507  13.886  0.00  0.00    +0.000 A 
ATOM     15  C   UNL     1       6.067   3.581  13.921  0.00  0.00    +0.000 A 
ATOM     16  C   UNL     1       5.092   3.642  14.925  0.00  0.00    +0.000 A 
ATOM     17  C   UNL     1       5.143   4.616  15.926  0.00  0.00    +0.000 A 
ENDROOT
BRANCH   1  19
ATOM     18  C   UNL     1       3.711   1.591  18.353  0.00  0.00    +0.000 C 
ATOM     19  C   UNL     1       3.078   2.489  17.303  0.00  0.00    +0.000 C 
ENDBRANCH   1  19
BRANCH   6  20
ATOM     20  O   UNL     1       1.145   7.170  21.517  0.00  0.00    +0.000 OA
ATOM     21  C   UNL     1       1.167   8.538  21.122  0.00  0.00    +0.000 C 
ENDBRANCH   6  20
TORSDOF 2
ENDMDL
MODEL 7
REMARK VINA RESULT:      -6.6      2.368      6.080
REMARK  Name = 
REMARK  4 active torsions:
REMARK  status: ('A' for Active; 'I' for Inactive)
REMARK    1  A    between atoms: C_1  and  C_2
REMARK    2  A    between atoms: C_2  and  N_3
REMARK    3  A    between atoms: C_8  and  O_9
REMARK    4  A    between atoms: O_9  and  C_10
REMARK                            x       y       z     vdW  Elec       q    Type
REMARK                         _______ _______ _______ _____ _____    ______ ____
ROOT
ATOM      1  N   UNL     1       2.090   6.067  20.110  0.00  0.00    +0.000 N 
ATOM      2  C   UNL     1       2.732   6.241  18.896  0.00  0.00    +0.000 A 
ATOM      3  C   UNL     1       2.556   7.577  18.552  0.00  0.00    +0.000 A 
ATOM      4  C   UNL     1       1.770   8.218  19.535  0.00  0.00    +0.000 A 
ATOM      5  C   UNL     1       1.296   9.533  19.709  0.00  0.00    +0.000 A 
ATOM      6  C   UNL     1       0.524   9.866  20.826  0.00  0.00    +0.000 A 
ATOM      7  C   UNL     1       0.218   8.879  21.765  0.00  0.00    +0.000 A 
ATOM      8  C   UNL     1       0.678   7.568  21.616  0.00  0.00    +0.000 A 
ATOM      9  C   UNL     1       1.465   7.253  20.493  0.00  0.00    +0.000 A 
ATOM     10  C   UNL     1       3.156   8.149  17.311  0.00  0.00    +0.000 C 
ATOM     11  C   UNL     1       4.482   7.446  16.986  0.00  0.00    +0.000 C 
ATOM     12  C   UNL     1       4.386   5.932  17.090  0.00  0.00    +0.000 A 
ATOM     13  C   UNL     1       5.184   5.143  16.244  0.00  0.00    +0.000 A 
ATOM     14  C   UNL     1       5.133   3.754  16.329  0.00  0.00    +0.000 A 
ATOM     15  C   UNL     1       4.286   3.152  17.252  0.00  0.00    +0.000 A 
ATOM     16  C   UNL     1       3.491   3.932  18.102  0.00  0.00    +0.000 A 
ATOM     17  C   UNL     1       3.542   5.329  18.062  0.00  0.00    +0.000 A 
ENDROOT
BRANCH   1  19
ATOM     18  C   UNL     1       1.030   3.883  20.624  0.00  0.00    +0.000 C 
ATOM     19  C   UNL     1       2.112   4.892  20.970  0.00  0.00    +0.000 C 
ENDBRANCH   1  19
BRANCH   6  20
ATOM     20  O   UNL     1       0.138  11.176  20.887  0.00  0.00    +0.000 OA
ATOM     21  C   UNL     1       1.087  12.145  20.451  0.00  0.00    +0.000 C 
ENDBRANCH   6  20
TORSDOF 2
ENDMDL
MODEL 8
REMARK VINA RESULT:      -6.4      1.663      2.916
REMARK  Name = 
REMARK  4 active torsions:
REMARK  status: ('A' for Active; 'I' for Inactive)
REMARK    1  A    between atoms: C_1  and  C_2
REMARK    2  A    between atoms: C_2  and  N_3
REMARK    3  A    between atoms: C_8  and  O_9
REMARK    4  A    between atoms: O_9  and  C_10
REMARK                            x       y       z     vdW  Elec       q    Type
REMARK                         _______ _______ _______ _____ _____    ______ ____
ROOT
ATOM      1  N   UNL     1       3.927   4.243  17.534  0.00  0.00    +0.000 N 
ATOM      2  C   UNL     1       3.658   5.531  17.966  0.00  0.00    +0.000 A 
ATOM      3  C   UNL     1       4.387   6.378  17.137  0.00  0.00    +0.000 A 
ATOM      4  C   UNL     1       5.138   5.610  16.219  0.00  0.00    +0.000 A 
ATOM      5  C   UNL     1       6.022   5.925  15.169  0.00  0.00    +0.000 A 
ATOM      6  C   UNL     1       6.617   4.909  14.416  0.00  0.00    +0.000 A 
ATOM      7  C   UNL     1       6.335   3.576  14.720  0.00  0.00    +0.000 A 
ATOM      8  C   UNL     1       5.460   3.238  15.757  0.00  0.00    +0.000 A 
ATOM      9  C   UNL     1       4.858   4.273  16.496  0.00  0.00    +0.000 A 
ATOM     10  C   UNL     1       4.311   7.862  17.277  0.00  0.00    +0.000 C 
ATOM     11  C   UNL     1       2.914   8.281  17.760  0.00  0.00    +0.000 C 
ATOM     12  C   UNL     1       2.414   7.437  18.922  0.00  0.00    +0.000 A 
ATOM     13  C   UNL     1       1.569   8.029  19.875  0.00  0.00    +0.000 A 
ATOM     14  C   UNL     1       1.080   7.276  20.940  0.00  0.00    +0.000 A 
ATOM     15  C   UNL     1       1.434   5.937  21.055  0.00  0.00    +0.000 A 
ATOM     16  C   UNL     1       2.271   5.338  20.105  0.00  0.00    +0.000 A 
ATOM     17  C   UNL     1       2.755   6.059  19.009  0.00  0.00    +0.000 A 
ENDROOT
BRANCH   1  19
ATOM     18  C   UNL     1       4.011   2.351  19.136  0.00  0.00    +0.000 C 
ATOM     19  C   UNL     1       3.294   3.007  17.968  0.00  0.00    +0.000 C 
ENDBRANCH   1  19
BRANCH   6  20
ATOM     20  O   UNL     1       7.443   5.344  13.417  0.00  0.00    +0.000 OA
ATOM     21  C   UNL     1       7.378   4.642  12.180  0.00  0.00    +0.000 C 
ENDBRANCH   6  20
TORSDOF 2
ENDMDL
MODEL 9
REMARK VINA RESULT:      -6.4      3.239      6.709
REMARK  Name = 
REMARK  4 active torsions:
REMARK  status: ('A' for Active; 'I' for Inactive)
REMARK    1  A    between atoms: C_1  and  C_2
REMARK    2  A    between atoms: C_2  and  N_3
REMARK    3  A    between atoms: C_8  and  O_9
REMARK    4  A    between atoms: O_9  and  C_10
REMARK                            x       y       z     vdW  Elec       q    Type
REMARK                         _______ _______ _______ _____ _____    ______ ____
ROOT
ATOM      1  N   UNL     1       0.945   9.663  21.169  0.00  0.00    +0.000 N 
ATOM      2  C   UNL     1       1.334   8.886  20.092  0.00  0.00    +0.000 A 
ATOM      3  C   UNL     1       1.302   9.720  18.980  0.00  0.00    +0.000 A 
ATOM      4  C   UNL     1       0.854  11.004  19.364  0.00  0.00    +0.000 A 
ATOM      5  C   UNL     1       0.642  12.216  18.679  0.00  0.00    +0.000 A 
ATOM      6  C   UNL     1       0.188  13.346  19.364  0.00  0.00    +0.000 A 
ATOM      7  C   UNL     1      -0.064  13.262  20.735  0.00  0.00    +0.000 A 
ATOM      8  C   UNL     1       0.140  12.070  21.437  0.00  0.00    +0.000 A 
ATOM      9  C   UNL     1       0.611  10.945  20.736  0.00  0.00    +0.000 A 
ATOM     10  C   UNL     1       1.708   9.235  17.628  0.00  0.00    +0.000 C 
ATOM     11  C   UNL     1       2.806   8.169  17.751  0.00  0.00    +0.000 C 
ATOM     12  C   UNL     1       2.496   7.124  18.811  0.00  0.00    +0.000 A 
ATOM     13  C   UNL     1       2.962   5.811  18.626  0.00  0.00    +0.000 A 
ATOM     14  C   UNL     1       2.710   4.837  19.588  0.00  0.00    +0.000 A 
ATOM     15  C   UNL     1       1.994   5.169  20.732  0.00  0.00    +0.000 A 
ATOM     16  C   UNL     1       1.532   6.477  20.927  0.00  0.00    +0.000 A 
ATOM     17  C   UNL     1       1.793   7.485  19.993  0.00  0.00    +0.000 A 
ENDROOT
BRANCH   1  19
ATOM     18  C   UNL     1      -0.422   9.288  23.206  0.00  0.00    +0.000 C 
ATOM     19  C   UNL     1       0.962   9.304  22.580  0.00  0.00    +0.000 C 
ENDBRANCH   1  19
BRANCH   6  20
ATOM     20  O   UNL     1       0.036  14.464  18.590  0.00  0.00    +0.000 OA
ATOM     21  C   UNL     1      -0.424  15.640  19.246  0.00  0.00    +0.000 C 
ENDBRANCH   6  20
TORSDOF 2
ENDMDL
