MODEL 1
REMARK VINA RESULT:      -9.2      0.000      0.000
REMARK  Name = 
REMARK  5 active torsions:
REMARK  status: ('A' for Active; 'I' for Inactive)
REMARK    1  A    between atoms: C_1  and  C_2
REMARK    2  A    between atoms: C_4  and  N_5
REMARK    3  A    between atoms: C_16  and  S_17
REMARK    4  A    between atoms: S_17  and  C_18
REMARK    5  A    between atoms: C_18  and  C_19
REMARK                            x       y       z     vdW  Elec       q    Type
REMARK                         _______ _______ _______ _____ _____    ______ ____
ROOT
ATOM      1  C   UNL     1       1.886   3.209  21.379  0.00  0.00    +0.000 C 
ATOM      2  C   UNL     1       2.610   4.252  20.588  0.00  0.00    +0.000 A 
ATOM      3  C   UNL     1       1.992   5.425  20.229  0.00  0.00    +0.000 A 
ATOM      4  C   UNL     1       2.710   6.334  19.470  0.00  0.00    +0.000 A 
ATOM      5  N   UNL     1       3.984   6.090  19.119  0.00  0.00    +0.000 NA
ATOM      6  C   UNL     1       4.504   4.905  19.490  0.00  0.00    +0.000 A 
ATOM      7  N   UNL     1       3.874   3.979  20.229  0.00  0.00    +0.000 NA
ENDROOT
BRANCH   4   8
ATOM      8  N   UNL     1       2.166   7.555  19.051  0.00  0.00    +0.000 N 
ATOM      9  C   UNL     1       1.424   8.405  19.799  0.00  0.00    +0.000 A 
ATOM     10  N   UNL     1       1.006   8.171  21.022  0.00  0.00    +0.000 NA
ATOM     11  C   UNL     1       0.310   9.242  21.531  0.00  0.00    +0.000 A 
ATOM     12  C   UNL     1      -0.253   9.310  22.822  0.00  0.00    +0.000 A 
ATOM     13  C   UNL     1      -0.904  10.474  23.232  0.00  0.00    +0.000 A 
ATOM     14  C   UNL     1      -1.001  11.562  22.370  0.00  0.00    +0.000 A 
ATOM     15  C   UNL     1      -0.465  11.511  21.077  0.00  0.00    +0.000 A 
ATOM     16  C   UNL     1       0.187  10.332  20.674  0.00  0.00    +0.000 A 
ATOM     17  S   UNL     1       0.935   9.938  19.171  0.00  0.00    +0.000 S 
ATOM     18  H   UNL     1       2.151   7.630  18.042  0.00  0.00    +0.000 HD
ENDBRANCH   4   8
BRANCH   6  19
ATOM     19  S   UNL     1       6.165   4.546  18.981  0.00  0.00    +0.000 S 
BRANCH  19  20
ATOM     20  C   UNL     1       6.386   5.862  17.735  0.00  0.00    +0.000 C 
BRANCH  20  21
ATOM     21  C   UNL     1       6.413   5.339  16.327  0.00  0.00    +0.000 A 
ATOM     22  N   UNL     1       7.295   5.698  15.418  0.00  0.00    +0.000 NA
ATOM     23  C   UNL     1       7.052   5.031  14.227  0.00  0.00    +0.000 A 
ATOM     24  C   UNL     1       7.782   5.190  13.033  0.00  0.00    +0.000 A 
ATOM     25  C   UNL     1       7.435   4.446  11.901  0.00  0.00    +0.000 A 
ATOM     26  C   UNL     1       6.371   3.550  11.946  0.00  0.00    +0.000 A 
ATOM     27  C   UNL     1       5.630   3.376  13.120  0.00  0.00    +0.000 A 
ATOM     28  C   UNL     1       5.989   4.128  14.251  0.00  0.00    +0.000 A 
ATOM     29  S   UNL     1       5.286   4.139  15.823  0.00  0.00    +0.000 S 
ENDBRANCH  20  21
ENDBRANCH  19  20
ENDBRANCH   6  19
TORSDOF 4
ENDMDL
MODEL 2
REMARK VINA RESULT:      -8.1      1.390      1.911
REMARK  Name = 
REMARK  5 active torsions:
REMARK  status: ('A' for Active; 'I' for Inactive)
REMARK    1  A    between atoms: C_1  and  C_2
REMARK    2  A    between atoms: C_4  and  N_5
REMARK    3  A    between atoms: C_16  and  S_17
REMARK    4  A    between atoms: S_17  and  C_18
REMARK    5  A    between atoms: C_18  and  C_19
REMARK                            x       y       z     vdW  Elec       q    Type
REMARK                         _______ _______ _______ _____ _____    ______ ____
ROOT
ATOM      1  C   UNL     1       1.509   3.350  17.455  0.00  0.00    +0.000 C 
ATOM      2  C   UNL     1       2.311   4.220  18.371  0.00  0.00    +0.000 A 
ATOM      3  C   UNL     1       1.696   5.073  19.256  0.00  0.00    +0.000 A 
ATOM      4  C   UNL     1       2.498   5.872  20.053  0.00  0.00    +0.000 A 
ATOM      5  N   UNL     1       3.838   5.797  19.986  0.00  0.00    +0.000 NA
ATOM      6  C   UNL     1       4.357   4.953  19.074  0.00  0.00    +0.000 A 
ATOM      7  N   UNL     1       3.647   4.144  18.273  0.00  0.00    +0.000 NA
ENDROOT
BRANCH   4   8
ATOM      8  N   UNL     1       1.967   6.777  20.982  0.00  0.00    +0.000 N 
ATOM      9  C   UNL     1       1.491   8.016  20.717  0.00  0.00    +0.000 A 
ATOM     10  N   UNL     1       1.543   8.615  19.550  0.00  0.00    +0.000 NA
ATOM     11  C   UNL     1       0.938   9.850  19.588  0.00  0.00    +0.000 A 
ATOM     12  C   UNL     1       0.814  10.731  18.495  0.00  0.00    +0.000 A 
ATOM     13  C   UNL     1       0.142  11.942  18.658  0.00  0.00    +0.000 A 
ATOM     14  C   UNL     1      -0.400  12.282  19.893  0.00  0.00    +0.000 A 
ATOM     15  C   UNL     1      -0.273  11.430  20.998  0.00  0.00    +0.000 A 
ATOM     16  C   UNL     1       0.407  10.213  20.823  0.00  0.00    +0.000 A 
ATOM     17  S   UNL     1       0.748   8.960  21.959  0.00  0.00    +0.000 S 
ATOM     18  H   UNL     1       2.214   6.526  21.931  0.00  0.00    +0.000 HD
ENDBRANCH   4   8
BRANCH   6  19
ATOM     19  S   UNL     1       6.124   4.888  18.933  0.00  0.00    +0.000 S 
BRANCH  19  20
ATOM     20  C   UNL     1       6.365   6.130  17.616  0.00  0.00    +0.000 C 
BRANCH  20  21
ATOM     21  C   UNL     1       6.406   5.526  16.241  0.00  0.00    +0.000 A 
ATOM     22  N   UNL     1       7.342   5.774  15.349  0.00  0.00    +0.000 NA
ATOM     23  C   UNL     1       7.096   5.058  14.187  0.00  0.00    +0.000 A 
ATOM     24  C   UNL     1       7.877   5.100  13.016  0.00  0.00    +0.000 A 
ATOM     25  C   UNL     1       7.520   4.317  11.913  0.00  0.00    +0.000 A 
ATOM     26  C   UNL     1       6.397   3.498  11.966  0.00  0.00    +0.000 A 
ATOM     27  C   UNL     1       5.604   3.439  13.117  0.00  0.00    +0.000 A 
ATOM     28  C   UNL     1       5.974   4.230  14.219  0.00  0.00    +0.000 A 
ATOM     29  S   UNL     1       5.218   4.377  15.759  0.00  0.00    +0.000 S 
ENDBRANCH  20  21
ENDBRANCH  19  20
ENDBRANCH   6  19
TORSDOF 4
ENDMDL
MODEL 3
REMARK VINA RESULT:      -8.1      1.611      2.347
REMARK  Name = 
REMARK  5 active torsions:
REMARK  status: ('A' for Active; 'I' for Inactive)
REMARK    1  A    between atoms: C_1  and  C_2
REMARK    2  A    between atoms: C_4  and  N_5
REMARK    3  A    between atoms: C_16  and  S_17
REMARK    4  A    between atoms: S_17  and  C_18
REMARK    5  A    between atoms: C_18  and  C_19
REMARK                            x       y       z     vdW  Elec       q    Type
REMARK                         _______ _______ _______ _____ _____    ______ ____
ROOT
ATOM      1  C   UNL     1       0.588   2.270  18.942  0.00  0.00    +0.000 C 
ATOM      2  C   UNL     1       1.497   3.361  19.416  0.00  0.00    +0.000 A 
ATOM      3  C   UNL     1       1.018   4.399  20.177  0.00  0.00    +0.000 A 
ATOM      4  C   UNL     1       1.906   5.392  20.556  0.00  0.00    +0.000 A 
ATOM      5  N   UNL     1       3.205   5.328  20.215  0.00  0.00    +0.000 NA
ATOM      6  C   UNL     1       3.584   4.290  19.446  0.00  0.00    +0.000 A 
ATOM      7  N   UNL     1       2.784   3.289  19.046  0.00  0.00    +0.000 NA
ENDROOT
BRANCH   4   8
ATOM      8  N   UNL     1       1.514   6.493  21.329  0.00  0.00    +0.000 N 
ATOM      9  C   UNL     1       1.369   7.768  20.898  0.00  0.00    +0.000 A 
ATOM     10  N   UNL     1       1.672   8.201  19.695  0.00  0.00    +0.000 NA
ATOM     11  C   UNL     1       1.373   9.536  19.548  0.00  0.00    +0.000 A 
ATOM     12  C   UNL     1       1.565  10.290  18.373  0.00  0.00    +0.000 A 
ATOM     13  C   UNL     1       1.182  11.631  18.343  0.00  0.00    +0.000 A 
ATOM     14  C   UNL     1       0.618  12.224  19.469  0.00  0.00    +0.000 A 
ATOM     15  C   UNL     1       0.435  11.498  20.653  0.00  0.00    +0.000 A 
ATOM     16  C   UNL     1       0.825  10.148  20.672  0.00  0.00    +0.000 A 
ATOM     17  S   UNL     1       0.752   8.991  21.950  0.00  0.00    +0.000 S 
ATOM     18  H   UNL     1       1.604   6.305  22.319  0.00  0.00    +0.000 HD
ENDBRANCH   4   8
BRANCH   6  19
ATOM     19  S   UNL     1       5.282   4.225  18.939  0.00  0.00    +0.000 S 
BRANCH  19  20
ATOM     20  C   UNL     1       5.294   5.620  17.759  0.00  0.00    +0.000 C 
BRANCH  20  21
ATOM     21  C   UNL     1       5.716   5.214  16.376  0.00  0.00    +0.000 A 
ATOM     22  N   UNL     1       5.003   4.448  15.577  0.00  0.00    +0.000 NA
ATOM     23  C   UNL     1       5.665   4.268  14.372  0.00  0.00    +0.000 A 
ATOM     24  C   UNL     1       5.210   3.485  13.294  0.00  0.00    +0.000 A 
ATOM     25  C   UNL     1       5.976   3.395  12.127  0.00  0.00    +0.000 A 
ATOM     26  C   UNL     1       7.186   4.073  12.026  0.00  0.00    +0.000 A 
ATOM     27  C   UNL     1       7.661   4.855  13.083  0.00  0.00    +0.000 A 
ATOM     28  C   UNL     1       6.882   4.939  14.250  0.00  0.00    +0.000 A 
ATOM     29  S   UNL     1       7.186   5.809  15.705  0.00  0.00    +0.000 S 
ENDBRANCH  20  21
ENDBRANCH  19  20
ENDBRANCH   6  19
TORSDOF 4
ENDMDL
MODEL 4
REMARK VINA RESULT:      -8.0      4.428      7.552
REMARK  Name = 
REMARK  5 active torsions:
REMARK  status: ('A' for Active; 'I' for Inactive)
REMARK    1  A    between atoms: C_1  and  C_2
REMARK    2  A    between atoms: C_4  and  N_5
REMARK    3  A    between atoms: C_16  and  S_17
REMARK    4  A    between atoms: S_17  and  C_18
REMARK    5  A    between atoms: C_18  and  C_19
REMARK                            x       y       z     vdW  Elec       q    Type
REMARK                         _______ _______ _______ _____ _____    ______ ____
ROOT
ATOM      1  C   UNL     1       8.592   5.176  20.439  0.00  0.00    +0.000 C 
ATOM      2  C   UNL     1       8.141   5.726  19.123  0.00  0.00    +0.000 A 
ATOM      3  C   UNL     1       8.105   7.080  18.896  0.00  0.00    +0.000 A 
ATOM      4  C   UNL     1       7.647   7.522  17.666  0.00  0.00    +0.000 A 
ATOM      5  N   UNL     1       7.275   6.653  16.710  0.00  0.00    +0.000 NA
ATOM      6  C   UNL     1       7.318   5.345  17.026  0.00  0.00    +0.000 A 
ATOM      7  N   UNL     1       7.754   4.841  18.191  0.00  0.00    +0.000 NA
ENDROOT
BRANCH   4   8
ATOM      8  N   UNL     1       7.568   8.883  17.340  0.00  0.00    +0.000 N 
ATOM      9  C   UNL     1       8.241   9.894  17.938  0.00  0.00    +0.000 A 
ATOM     10  N   UNL     1       9.009   9.772  18.996  0.00  0.00    +0.000 NA
ATOM     11  C   UNL     1       9.589  10.971  19.341  0.00  0.00    +0.000 A 
ATOM     12  C   UNL     1      10.476  11.168  20.418  0.00  0.00    +0.000 A 
ATOM     13  C   UNL     1      11.026  12.431  20.638  0.00  0.00    +0.000 A 
ATOM     14  C   UNL     1      10.697  13.493  19.801  0.00  0.00    +0.000 A 
ATOM     15  C   UNL     1       9.803  13.325  18.736  0.00  0.00    +0.000 A 
ATOM     16  C   UNL     1       9.254  12.048  18.524  0.00  0.00    +0.000 A 
ATOM     17  S   UNL     1       8.131  11.508  17.332  0.00  0.00    +0.000 S 
ATOM     18  H   UNL     1       6.749   9.086  16.782  0.00  0.00    +0.000 HD
ENDBRANCH   4   8
BRANCH   6  19
ATOM     19  S   UNL     1       6.774   4.189  15.795  0.00  0.00    +0.000 S 
BRANCH  19  20
ATOM     20  C   UNL     1       5.045   4.746  15.606  0.00  0.00    +0.000 C 
BRANCH  20  21
ATOM     21  C   UNL     1       4.256   4.653  16.881  0.00  0.00    +0.000 A 
ATOM     22  N   UNL     1       3.738   5.687  17.511  0.00  0.00    +0.000 NA
ATOM     23  C   UNL     1       3.066   5.265  18.648  0.00  0.00    +0.000 A 
ATOM     24  C   UNL     1       2.415   6.103  19.574  0.00  0.00    +0.000 A 
ATOM     25  C   UNL     1       1.764   5.544  20.680  0.00  0.00    +0.000 A 
ATOM     26  C   UNL     1       1.759   4.166  20.871  0.00  0.00    +0.000 A 
ATOM     27  C   UNL     1       2.401   3.314  19.966  0.00  0.00    +0.000 A 
ATOM     28  C   UNL     1       3.049   3.887  18.859  0.00  0.00    +0.000 A 
ATOM     29  S   UNL     1       3.914   3.119  17.583  0.00  0.00    +0.000 S 
ENDBRANCH  20  21
ENDBRANCH  19  20
ENDBRANCH   6  19
TORSDOF 4
ENDMDL
MODEL 5
REMARK VINA RESULT:      -8.0      3.614     10.832
REMARK  Name = 
REMARK  5 active torsions:
REMARK  status: ('A' for Active; 'I' for Inactive)
REMARK    1  A    between atoms: C_1  and  C_2
REMARK    2  A    between atoms: C_4  and  N_5
REMARK    3  A    between atoms: C_16  and  S_17
REMARK    4  A    between atoms: S_17  and  C_18
REMARK    5  A    between atoms: C_18  and  C_19
REMARK                            x       y       z     vdW  Elec       q    Type
REMARK                         _______ _______ _______ _____ _____    ______ ____
ROOT
ATOM      1  C   UNL     1      -0.033   9.309  22.897  0.00  0.00    +0.000 C 
ATOM      2  C   UNL     1       0.247   9.363  21.428  0.00  0.00    +0.000 A 
ATOM      3  C   UNL     1       1.262   8.623  20.873  0.00  0.00    +0.000 A 
ATOM      4  C   UNL     1       1.487   8.744  19.512  0.00  0.00    +0.000 A 
ATOM      5  N   UNL     1       0.716   9.539  18.750  0.00  0.00    +0.000 NA
ATOM      6  C   UNL     1      -0.239  10.248  19.379  0.00  0.00    +0.000 A 
ATOM      7  N   UNL     1      -0.520  10.179  20.689  0.00  0.00    +0.000 NA
ENDROOT
BRANCH   4   8
ATOM      8  N   UNL     1       2.500   8.034  18.854  0.00  0.00    +0.000 N 
ATOM      9  C   UNL     1       2.577   6.691  18.705  0.00  0.00    +0.000 A 
ATOM     10  N   UNL     1       1.756   5.821  19.246  0.00  0.00    +0.000 NA
ATOM     11  C   UNL     1       2.069   4.533  18.875  0.00  0.00    +0.000 A 
ATOM     12  C   UNL     1       1.368   3.377  19.274  0.00  0.00    +0.000 A 
ATOM     13  C   UNL     1       1.766   2.129  18.795  0.00  0.00    +0.000 A 
ATOM     14  C   UNL     1       2.852   2.024  17.931  0.00  0.00    +0.000 A 
ATOM     15  C   UNL     1       3.574   3.158  17.536  0.00  0.00    +0.000 A 
ATOM     16  C   UNL     1       3.164   4.410  18.025  0.00  0.00    +0.000 A 
ATOM     17  S   UNL     1       3.829   5.978  17.752  0.00  0.00    +0.000 S 
ATOM     18  H   UNL     1       3.328   8.603  18.722  0.00  0.00    +0.000 HD
ENDBRANCH   4   8
BRANCH   6  19
ATOM     19  S   UNL     1      -1.224  11.346  18.394  0.00  0.00    +0.000 S 
BRANCH  19  20
ATOM     20  C   UNL     1      -1.586  12.626  19.645  0.00  0.00    +0.000 C 
BRANCH  20  21
ATOM     21  C   UNL     1      -3.010  12.595  20.122  0.00  0.00    +0.000 A 
ATOM     22  N   UNL     1      -4.035  12.240  19.375  0.00  0.00    +0.000 NA
ATOM     23  C   UNL     1      -5.208  12.312  20.110  0.00  0.00    +0.000 A 
ATOM     24  C   UNL     1      -6.500  12.029  19.624  0.00  0.00    +0.000 A 
ATOM     25  C   UNL     1      -7.603  12.133  20.478  0.00  0.00    +0.000 A 
ATOM     26  C   UNL     1      -7.431  12.516  21.805  0.00  0.00    +0.000 A 
ATOM     27  C   UNL     1      -6.159  12.804  22.310  0.00  0.00    +0.000 A 
ATOM     28  C   UNL     1      -5.059  12.695  21.443  0.00  0.00    +0.000 A 
ATOM     29  S   UNL     1      -3.389  12.974  21.757  0.00  0.00    +0.000 S 
ENDBRANCH  20  21
ENDBRANCH  19  20
ENDBRANCH   6  19
TORSDOF 4
ENDMDL
MODEL 6
REMARK VINA RESULT:      -7.9      3.473     10.957
REMARK  Name = 
REMARK  5 active torsions:
REMARK  status: ('A' for Active; 'I' for Inactive)
REMARK    1  A    between atoms: C_1  and  C_2
REMARK    2  A    between atoms: C_4  and  N_5
REMARK    3  A    between atoms: C_16  and  S_17
REMARK    4  A    between atoms: S_17  and  C_18
REMARK    5  A    between atoms: C_18  and  C_19
REMARK                            x       y       z     vdW  Elec       q    Type
REMARK                         _______ _______ _______ _____ _____    ______ ____
ROOT
ATOM      1  C   UNL     1       0.191   9.429  22.988  0.00  0.00    +0.000 C 
ATOM      2  C   UNL     1       0.347   9.427  21.500  0.00  0.00    +0.000 A 
ATOM      3  C   UNL     1       1.352   8.712  20.895  0.00  0.00    +0.000 A 
ATOM      4  C   UNL     1       1.458   8.779  19.516  0.00  0.00    +0.000 A 
ATOM      5  N   UNL     1       0.588   9.498  18.787  0.00  0.00    +0.000 NA
ATOM      6  C   UNL     1      -0.350  10.189  19.462  0.00  0.00    +0.000 A 
ATOM      7  N   UNL     1      -0.520  10.169  20.793  0.00  0.00    +0.000 NA
ENDROOT
BRANCH   4   8
ATOM      8  N   UNL     1       2.452   8.091  18.807  0.00  0.00    +0.000 N 
ATOM      9  C   UNL     1       2.559   6.748  18.670  0.00  0.00    +0.000 A 
ATOM     10  N   UNL     1       1.798   5.862  19.269  0.00  0.00    +0.000 NA
ATOM     11  C   UNL     1       2.125   4.579  18.896  0.00  0.00    +0.000 A 
ATOM     12  C   UNL     1       1.484   3.409  19.349  0.00  0.00    +0.000 A 
ATOM     13  C   UNL     1       1.889   2.166  18.862  0.00  0.00    +0.000 A 
ATOM     14  C   UNL     1       2.924   2.081  17.936  0.00  0.00    +0.000 A 
ATOM     15  C   UNL     1       3.588   3.229  17.485  0.00  0.00    +0.000 A 
ATOM     16  C   UNL     1       3.172   4.476  17.983  0.00  0.00    +0.000 A 
ATOM     17  S   UNL     1       3.772   6.059  17.652  0.00  0.00    +0.000 S 
ATOM     18  H   UNL     1       3.253   8.680  18.619  0.00  0.00    +0.000 HD
ENDBRANCH   4   8
BRANCH   6  19
ATOM     19  S   UNL     1      -1.469  11.189  18.516  0.00  0.00    +0.000 S 
BRANCH  19  20
ATOM     20  C   UNL     1      -1.607  12.623  19.638  0.00  0.00    +0.000 C 
BRANCH  20  21
ATOM     21  C   UNL     1      -2.887  12.632  20.424  0.00  0.00    +0.000 A 
ATOM     22  N   UNL     1      -2.962  12.865  21.718  0.00  0.00    +0.000 NA
ATOM     23  C   UNL     1      -4.282  12.807  22.138  0.00  0.00    +0.000 A 
ATOM     24  C   UNL     1      -4.730  12.980  23.462  0.00  0.00    +0.000 A 
ATOM     25  C   UNL     1      -6.098  12.906  23.748  0.00  0.00    +0.000 A 
ATOM     26  C   UNL     1      -7.017  12.660  22.734  0.00  0.00    +0.000 A 
ATOM     27  C   UNL     1      -6.596  12.482  21.412  0.00  0.00    +0.000 A 
ATOM     28  C   UNL     1      -5.220  12.561  21.136  0.00  0.00    +0.000 A 
ATOM     29  S   UNL     1      -4.397  12.393  19.633  0.00  0.00    +0.000 S 
ENDBRANCH  20  21
ENDBRANCH  19  20
ENDBRANCH   6  19
TORSDOF 4
ENDMDL
MODEL 7
REMARK VINA RESULT:      -7.9      3.600      9.131
REMARK  Name = 
REMARK  5 active torsions:
REMARK  status: ('A' for Active; 'I' for Inactive)
REMARK    1  A    between atoms: C_1  and  C_2
REMARK    2  A    between atoms: C_4  and  N_5
REMARK    3  A    between atoms: C_16  and  S_17
REMARK    4  A    between atoms: S_17  and  C_18
REMARK    5  A    between atoms: C_18  and  C_19
REMARK                            x       y       z     vdW  Elec       q    Type
REMARK                         _______ _______ _______ _____ _____    ______ ____
ROOT
ATOM      1  C   UNL     1      -0.047   9.266  22.910  0.00  0.00    +0.000 C 
ATOM      2  C   UNL     1       0.236   9.319  21.441  0.00  0.00    +0.000 A 
ATOM      3  C   UNL     1       1.255   8.581  20.890  0.00  0.00    +0.000 A 
ATOM      4  C   UNL     1       1.483   8.701  19.529  0.00  0.00    +0.000 A 
ATOM      5  N   UNL     1       0.712   9.493  18.764  0.00  0.00    +0.000 NA
ATOM      6  C   UNL     1      -0.247  10.200  19.389  0.00  0.00    +0.000 A 
ATOM      7  N   UNL     1      -0.531  10.132  20.699  0.00  0.00    +0.000 NA
ENDROOT
BRANCH   4   8
ATOM      8  N   UNL     1       2.500   7.994  18.874  0.00  0.00    +0.000 N 
ATOM      9  C   UNL     1       2.597   6.649  18.753  0.00  0.00    +0.000 A 
ATOM     10  N   UNL     1       1.796   5.777  19.322  0.00  0.00    +0.000 NA
ATOM     11  C   UNL     1       2.125   4.487  18.975  0.00  0.00    +0.000 A 
ATOM     12  C   UNL     1       1.447   3.329  19.407  0.00  0.00    +0.000 A 
ATOM     13  C   UNL     1       1.860   2.077  18.950  0.00  0.00    +0.000 A 
ATOM     14  C   UNL     1       2.937   1.971  18.075  0.00  0.00    +0.000 A 
ATOM     15  C   UNL     1       3.636   3.107  17.648  0.00  0.00    +0.000 A 
ATOM     16  C   UNL     1       3.213   4.363  18.116  0.00  0.00    +0.000 A 
ATOM     17  S   UNL     1       3.849   5.935  17.801  0.00  0.00    +0.000 S 
ATOM     18  H   UNL     1       3.317   8.572  18.721  0.00  0.00    +0.000 HD
ENDBRANCH   4   8
BRANCH   6  19
ATOM     19  S   UNL     1      -1.232  11.294  18.401  0.00  0.00    +0.000 S 
BRANCH  19  20
ATOM     20  C   UNL     1      -1.138  12.797  19.435  0.00  0.00    +0.000 C 
BRANCH  20  21
ATOM     21  C   UNL     1       0.041  13.665  19.102  0.00  0.00    +0.000 A 
ATOM     22  N   UNL     1       1.247  13.209  18.834  0.00  0.00    +0.000 NA
ATOM     23  C   UNL     1       2.106  14.263  18.561  0.00  0.00    +0.000 A 
ATOM     24  C   UNL     1       3.477  14.147  18.260  0.00  0.00    +0.000 A 
ATOM     25  C   UNL     1       4.231  15.296  17.995  0.00  0.00    +0.000 A 
ATOM     26  C   UNL     1       3.634  16.552  18.030  0.00  0.00    +0.000 A 
ATOM     27  C   UNL     1       2.275  16.693  18.328  0.00  0.00    +0.000 A 
ATOM     28  C   UNL     1       1.528  15.532  18.591  0.00  0.00    +0.000 A 
ATOM     29  S   UNL     1      -0.142  15.373  18.981  0.00  0.00    +0.000 S 
ENDBRANCH  20  21
ENDBRANCH  19  20
ENDBRANCH   6  19
TORSDOF 4
ENDMDL
MODEL 8
REMARK VINA RESULT:      -7.9      4.898      7.705
REMARK  Name = 
REMARK  5 active torsions:
REMARK  status: ('A' for Active; 'I' for Inactive)
REMARK    1  A    between atoms: C_1  and  C_2
REMARK    2  A    between atoms: C_4  and  N_5
REMARK    3  A    between atoms: C_16  and  S_17
REMARK    4  A    between atoms: S_17  and  C_18
REMARK    5  A    between atoms: C_18  and  C_19
REMARK                            x       y       z     vdW  Elec       q    Type
REMARK                         _______ _______ _______ _____ _____    ______ ____
ROOT
ATOM      1  C   UNL     1       8.241   5.448  20.056  0.00  0.00    +0.000 C 
ATOM      2  C   UNL     1       7.839   6.365  18.945  0.00  0.00    +0.000 A 
ATOM      3  C   UNL     1       8.483   7.563  18.748  0.00  0.00    +0.000 A 
ATOM      4  C   UNL     1       8.039   8.379  17.720  0.00  0.00    +0.000 A 
ATOM      5  N   UNL     1       7.028   7.999  16.920  0.00  0.00    +0.000 NA
ATOM      6  C   UNL     1       6.437   6.822  17.200  0.00  0.00    +0.000 A 
ATOM      7  N   UNL     1       6.814   5.977  18.171  0.00  0.00    +0.000 NA
ENDROOT
BRANCH   4   8
ATOM      8  N   UNL     1       8.626   9.621  17.443  0.00  0.00    +0.000 N 
ATOM      9  C   UNL     1       8.929  10.587  18.341  0.00  0.00    +0.000 A 
ATOM     10  N   UNL     1       8.627  10.556  19.618  0.00  0.00    +0.000 NA
ATOM     11  C   UNL     1       9.106  11.664  20.278  0.00  0.00    +0.000 A 
ATOM     12  C   UNL     1       8.961  11.918  21.656  0.00  0.00    +0.000 A 
ATOM     13  C   UNL     1       9.530  13.065  22.211  0.00  0.00    +0.000 A 
ATOM     14  C   UNL     1      10.234  13.956  21.407  0.00  0.00    +0.000 A 
ATOM     15  C   UNL     1      10.375  13.733  20.031  0.00  0.00    +0.000 A 
ATOM     16  C   UNL     1       9.797  12.575  19.483  0.00  0.00    +0.000 A 
ATOM     17  S   UNL     1       9.772  12.013  17.852  0.00  0.00    +0.000 S 
ATOM     18  H   UNL     1       8.564   9.850  16.459  0.00  0.00    +0.000 HD
ENDBRANCH   4   8
BRANCH   6  19
ATOM     19  S   UNL     1       5.064   6.336  16.188  0.00  0.00    +0.000 S 
BRANCH  19  20
ATOM     20  C   UNL     1       5.046   4.546  16.549  0.00  0.00    +0.000 C 
BRANCH  20  21
ATOM     21  C   UNL     1       4.145   4.188  17.696  0.00  0.00    +0.000 A 
ATOM     22  N   UNL     1       4.501   3.429  18.712  0.00  0.00    +0.000 NA
ATOM     23  C   UNL     1       3.446   3.296  19.601  0.00  0.00    +0.000 A 
ATOM     24  C   UNL     1       3.462   2.533  20.785  0.00  0.00    +0.000 A 
ATOM     25  C   UNL     1       2.327   2.492  21.601  0.00  0.00    +0.000 A 
ATOM     26  C   UNL     1       1.181   3.197  21.249  0.00  0.00    +0.000 A 
ATOM     27  C   UNL     1       1.139   3.960  20.077  0.00  0.00    +0.000 A 
ATOM     28  C   UNL     1       2.287   3.995  19.267  0.00  0.00    +0.000 A 
ATOM     29  S   UNL     1       2.550   4.831  17.784  0.00  0.00    +0.000 S 
ENDBRANCH  20  21
ENDBRANCH  19  20
ENDBRANCH   6  19
TORSDOF 4
ENDMDL
MODEL 9
REMARK VINA RESULT:      -7.9      3.862     11.105
REMARK  Name = 
REMARK  5 active torsions:
REMARK  status: ('A' for Active; 'I' for Inactive)
REMARK    1  A    between atoms: C_1  and  C_2
REMARK    2  A    between atoms: C_4  and  N_5
REMARK    3  A    between atoms: C_16  and  S_17
REMARK    4  A    between atoms: S_17  and  C_18
REMARK    5  A    between atoms: C_18  and  C_19
REMARK                            x       y       z     vdW  Elec       q    Type
REMARK                         _______ _______ _______ _____ _____    ______ ____
ROOT
ATOM      1  C   UNL     1      -0.135   9.644  23.352  0.00  0.00    +0.000 C 
ATOM      2  C   UNL     1       0.038   9.689  21.866  0.00  0.00    +0.000 A 
ATOM      3  C   UNL     1       0.985   8.916  21.240  0.00  0.00    +0.000 A 
ATOM      4  C   UNL     1       1.113   9.030  19.866  0.00  0.00    +0.000 A 
ATOM      5  N   UNL     1       0.315   9.850  19.160  0.00  0.00    +0.000 NA
ATOM      6  C   UNL     1      -0.568  10.590  19.856  0.00  0.00    +0.000 A 
ATOM      7  N   UNL     1      -0.754  10.530  21.183  0.00  0.00    +0.000 NA
ENDROOT
BRANCH   4   8
ATOM      8  N   UNL     1       2.053   8.288  19.137  0.00  0.00    +0.000 N 
ATOM      9  C   UNL     1       2.403   6.999  19.353  0.00  0.00    +0.000 A 
ATOM     10  N   UNL     1       1.989   6.258  20.355  0.00  0.00    +0.000 NA
ATOM     11  C   UNL     1       2.487   4.979  20.278  0.00  0.00    +0.000 A 
ATOM     12  C   UNL     1       2.215   3.941  21.191  0.00  0.00    +0.000 A 
ATOM     13  C   UNL     1       2.755   2.673  20.977  0.00  0.00    +0.000 A 
ATOM     14  C   UNL     1       3.562   2.433  19.869  0.00  0.00    +0.000 A 
ATOM     15  C   UNL     1       3.862   3.454  18.958  0.00  0.00    +0.000 A 
ATOM     16  C   UNL     1       3.313   4.729  19.184  0.00  0.00    +0.000 A 
ATOM     17  S   UNL     1       3.487   6.187  18.280  0.00  0.00    +0.000 S 
ATOM     18  H   UNL     1       2.655   8.888  18.586  0.00  0.00    +0.000 HD
ENDBRANCH   4   8
BRANCH   6  19
ATOM     19  S   UNL     1      -1.586  11.720  18.943  0.00  0.00    +0.000 S 
BRANCH  19  20
ATOM     20  C   UNL     1      -1.849  12.989  20.229  0.00  0.00    +0.000 C 
BRANCH  20  21
ATOM     21  C   UNL     1      -3.203  12.900  20.874  0.00  0.00    +0.000 A 
ATOM     22  N   UNL     1      -4.301  12.529  20.248  0.00  0.00    +0.000 NA
ATOM     23  C   UNL     1      -5.377  12.544  21.122  0.00  0.00    +0.000 A 
ATOM     24  C   UNL     1      -6.709  12.230  20.789  0.00  0.00    +0.000 A 
ATOM     25  C   UNL     1      -7.702  12.277  21.773  0.00  0.00    +0.000 A 
ATOM     26  C   UNL     1      -7.381  12.633  23.079  0.00  0.00    +0.000 A 
ATOM     27  C   UNL     1      -6.066  12.951  23.434  0.00  0.00    +0.000 A 
ATOM     28  C   UNL     1      -5.077  12.899  22.437  0.00  0.00    +0.000 A 
ATOM     29  S   UNL     1      -3.391  13.226  22.554  0.00  0.00    +0.000 S 
ENDBRANCH  20  21
ENDBRANCH  19  20
ENDBRANCH   6  19
TORSDOF 4
ENDMDL
