MODEL 1
REMARK VINA RESULT:      -6.1      0.000      0.000
REMARK  Name = 
REMARK  11 active torsions:
REMARK  status: ('A' for Active; 'I' for Inactive)
REMARK    1  A    between atoms: C_1  and  C_2
REMARK    2  A    between atoms: C_2  and  N_3
REMARK    3  A    between atoms: N_3  and  C_4
REMARK    4  A    between atoms: C_4  and  C_5
REMARK    5  A    between atoms: C_6  and  C_8
REMARK    6  A    between atoms: C_12  and  N_13
REMARK    7  A    between atoms: N_13  and  C_14
REMARK    8  A    between atoms: C_14  and  C_15
REMARK    9  A    between atoms: C_17  and  C_18
REMARK   10  A    between atoms: N_31  and  C_32
REMARK   11  A    between atoms: C_32  and  C_33
REMARK                            x       y       z     vdW  Elec       q    Type
REMARK                         _______ _______ _______ _____ _____    ______ ____
ROOT
ATOM      1  C   UNL     1      -1.053  12.424  19.531  0.00  0.00    +0.000 C 
ATOM      2  S   UNL     1      -1.026  14.123  20.231  0.00  0.00    +0.000 S 
ATOM      3  C   UNL     1      -2.578  14.124  21.150  0.00  0.00    +0.000 A 
ATOM      4  C   UNL     1      -2.593  14.929  22.311  0.00  0.00    +0.000 A 
ATOM      5  C   UNL     1      -3.690  14.940  23.177  0.00  0.00    +0.000 A 
ATOM      6  C   UNL     1      -4.800  14.171  22.817  0.00  0.00    +0.000 A 
ATOM      7  C   UNL     1      -4.811  13.400  21.631  0.00  0.00    +0.000 A 
ATOM      8  C   UNL     1      -3.710  13.358  20.770  0.00  0.00    +0.000 A 
ATOM      9  C   UNL     1      -3.625  12.501  19.551  0.00  0.00    +0.000 A 
ATOM     10  C   UNL     1      -2.415  12.079  19.002  0.00  0.00    +0.000 A 
ATOM     11  C   UNL     1      -2.673  11.303  17.834  0.00  0.00    +0.000 A 
ATOM     12  C   UNL     1      -1.849  10.651  16.897  0.00  0.00    +0.000 A 
ATOM     13  C   UNL     1      -2.417   9.992  15.800  0.00  0.00    +0.000 A 
ATOM     14  C   UNL     1      -3.798   9.974  15.645  0.00  0.00    +0.000 A 
ATOM     15  C   UNL     1      -4.636  10.609  16.567  0.00  0.00    +0.000 A 
ATOM     16  C   UNL     1      -4.053  11.278  17.662  0.00  0.00    +0.000 A 
ATOM     17  N   UNL     1      -4.620  12.025  18.701  0.00  0.00    +0.000 N 
ENDROOT
BRANCH   5  18
ATOM     18  N   UNL     1      -3.647  15.700  24.391  0.00  0.00    +0.000 N 
ATOM     19  C   UNL     1      -4.221  16.954  24.589  0.00  0.00    +0.000 C 
ATOM     20  C   UNL     1      -5.227  17.502  23.606  0.00  0.00    +0.000 C 
ATOM     21  O   UNL     1      -3.995  17.612  25.614  0.00  0.00    +0.000 OA
BRANCH  18  22
ATOM     22  C   UNL     1      -2.907  15.148  25.543  0.00  0.00    +0.000 C 
BRANCH  22  23
ATOM     23  C   UNL     1      -1.408  15.456  25.506  0.00  0.00    +0.000 C 
ATOM     24  F   UNL     1      -0.926  15.509  26.779  0.00  0.00    +0.000 F 
ENDBRANCH  22  23
ENDBRANCH  18  22
ENDBRANCH   5  18
BRANCH   1  26
ATOM     25  N   UNL     1       0.551  10.589  20.281  0.00  0.00    +0.000 N 
ATOM     26  C   UNL     1      -0.553  11.414  20.596  0.00  0.00    +0.000 C 
ATOM     27  O   UNL     1      -1.084  11.343  21.711  0.00  0.00    +0.000 OA
BRANCH  25  29
ATOM     28  C   UNL     1       0.333   8.397  21.452  0.00  0.00    +0.000 C 
ATOM     29  C   UNL     1       1.062   9.729  21.358  0.00  0.00    +0.000 C 
ENDBRANCH  25  29
BRANCH  25  30
ATOM     30  C   UNL     1       1.225  10.631  18.976  0.00  0.00    +0.000 C 
ATOM     31  C   UNL     1       1.340   9.346  18.171  0.00  0.00    +0.000 C 
ENDBRANCH  25  30
ENDBRANCH   1  26
BRANCH  17  32
ATOM     32  C   UNL     1      -6.039  12.338  18.713  0.00  0.00    +0.000 C 
BRANCH  32  33
ATOM     33  C   UNL     1      -6.887  11.288  19.405  0.00  0.00    +0.000 C 
ATOM     34  F   UNL     1      -7.184  10.309  18.504  0.00  0.00    +0.000 F 
ENDBRANCH  32  33
ENDBRANCH  17  32
TORSDOF 8
ENDMDL
MODEL 2
REMARK VINA RESULT:      -6.0      3.423      5.483
REMARK  Name = 
REMARK  11 active torsions:
REMARK  status: ('A' for Active; 'I' for Inactive)
REMARK    1  A    between atoms: C_1  and  C_2
REMARK    2  A    between atoms: C_2  and  N_3
REMARK    3  A    between atoms: N_3  and  C_4
REMARK    4  A    between atoms: C_4  and  C_5
REMARK    5  A    between atoms: C_6  and  C_8
REMARK    6  A    between atoms: C_12  and  N_13
REMARK    7  A    between atoms: N_13  and  C_14
REMARK    8  A    between atoms: C_14  and  C_15
REMARK    9  A    between atoms: C_17  and  C_18
REMARK   10  A    between atoms: N_31  and  C_32
REMARK   11  A    between atoms: C_32  and  C_33
REMARK                            x       y       z     vdW  Elec       q    Type
REMARK                         _______ _______ _______ _____ _____    ______ ____
ROOT
ATOM      1  C   UNL     1      -0.085  12.363  19.707  0.00  0.00    +0.000 C 
ATOM      2  S   UNL     1      -0.860  11.912  21.313  0.00  0.00    +0.000 S 
ATOM      3  C   UNL     1      -2.172  13.145  21.402  0.00  0.00    +0.000 A 
ATOM      4  C   UNL     1      -3.342  12.737  22.081  0.00  0.00    +0.000 A 
ATOM      5  C   UNL     1      -4.477  13.549  22.133  0.00  0.00    +0.000 A 
ATOM      6  C   UNL     1      -4.391  14.812  21.539  0.00  0.00    +0.000 A 
ATOM      7  C   UNL     1      -3.208  15.248  20.898  0.00  0.00    +0.000 A 
ATOM      8  C   UNL     1      -2.073  14.433  20.816  0.00  0.00    +0.000 A 
ATOM      9  C   UNL     1      -0.825  14.798  20.082  0.00  0.00    +0.000 A 
ATOM     10  C   UNL     1       0.064  13.851  19.580  0.00  0.00    +0.000 A 
ATOM     11  C   UNL     1       1.163  14.518  18.961  0.00  0.00    +0.000 A 
ATOM     12  C   UNL     1       2.332  14.074  18.315  0.00  0.00    +0.000 A 
ATOM     13  C   UNL     1       3.269  15.001  17.841  0.00  0.00    +0.000 A 
ATOM     14  C   UNL     1       3.034  16.362  18.000  0.00  0.00    +0.000 A 
ATOM     15  C   UNL     1       1.876  16.825  18.632  0.00  0.00    +0.000 A 
ATOM     16  C   UNL     1       0.945  15.883  19.115  0.00  0.00    +0.000 A 
ATOM     17  N   UNL     1      -0.257  16.041  19.814  0.00  0.00    +0.000 N 
ENDROOT
BRANCH   5  18
ATOM     18  N   UNL     1      -5.678  13.078  22.756  0.00  0.00    +0.000 N 
ATOM     19  C   UNL     1      -5.760  12.442  23.993  0.00  0.00    +0.000 C 
ATOM     20  C   UNL     1      -4.593  12.469  24.949  0.00  0.00    +0.000 C 
ATOM     21  O   UNL     1      -6.814  11.918  24.380  0.00  0.00    +0.000 OA
BRANCH  18  22
ATOM     22  C   UNL     1      -6.956  13.232  22.032  0.00  0.00    +0.000 C 
BRANCH  22  23
ATOM     23  C   UNL     1      -7.131  12.230  20.889  0.00  0.00    +0.000 C 
ATOM     24  F   UNL     1      -7.584  11.048  21.389  0.00  0.00    +0.000 F 
ENDBRANCH  22  23
ENDBRANCH  18  22
ENDBRANCH   5  18
BRANCH   1  26
ATOM     25  N   UNL     1      -0.618  10.414  18.151  0.00  0.00    +0.000 N 
ATOM     26  C   UNL     1      -0.901  11.742  18.544  0.00  0.00    +0.000 C 
ATOM     27  O   UNL     1      -1.801  12.378  17.982  0.00  0.00    +0.000 OA
BRANCH  25  29
ATOM     28  C   UNL     1      -2.927   9.653  17.588  0.00  0.00    +0.000 C 
ATOM     29  C   UNL     1      -1.489   9.829  17.122  0.00  0.00    +0.000 C 
ENDBRANCH  25  29
BRANCH  25  30
ATOM     30  C   UNL     1       0.436   9.608  18.783  0.00  0.00    +0.000 C 
ATOM     31  C   UNL     1       1.611   9.147  17.934  0.00  0.00    +0.000 C 
ENDBRANCH  25  30
ENDBRANCH   1  26
BRANCH  17  32
ATOM     32  C   UNL     1      -0.684  17.346  20.288  0.00  0.00    +0.000 C 
BRANCH  32  33
ATOM     33  C   UNL     1      -1.304  18.212  19.208  0.00  0.00    +0.000 C 
ATOM     34  F   UNL     1      -2.484  17.646  18.823  0.00  0.00    +0.000 F 
ENDBRANCH  32  33
ENDBRANCH  17  32
TORSDOF 8
ENDMDL
MODEL 3
REMARK VINA RESULT:      -5.8      3.481      5.484
REMARK  Name = 
REMARK  11 active torsions:
REMARK  status: ('A' for Active; 'I' for Inactive)
REMARK    1  A    between atoms: C_1  and  C_2
REMARK    2  A    between atoms: C_2  and  N_3
REMARK    3  A    between atoms: N_3  and  C_4
REMARK    4  A    between atoms: C_4  and  C_5
REMARK    5  A    between atoms: C_6  and  C_8
REMARK    6  A    between atoms: C_12  and  N_13
REMARK    7  A    between atoms: N_13  and  C_14
REMARK    8  A    between atoms: C_14  and  C_15
REMARK    9  A    between atoms: C_17  and  C_18
REMARK   10  A    between atoms: N_31  and  C_32
REMARK   11  A    between atoms: C_32  and  C_33
REMARK                            x       y       z     vdW  Elec       q    Type
REMARK                         _______ _______ _______ _____ _____    ______ ____
ROOT
ATOM      1  C   UNL     1       0.117  12.540  19.742  0.00  0.00    +0.000 C 
ATOM      2  S   UNL     1      -0.815  12.447  21.324  0.00  0.00    +0.000 S 
ATOM      3  C   UNL     1      -1.853  13.915  21.180  0.00  0.00    +0.000 A 
ATOM      4  C   UNL     1      -3.114  13.828  21.810  0.00  0.00    +0.000 A 
ATOM      5  C   UNL     1      -4.062  14.847  21.688  0.00  0.00    +0.000 A 
ATOM      6  C   UNL     1      -3.691  15.987  20.969  0.00  0.00    +0.000 A 
ATOM      7  C   UNL     1      -2.412  16.102  20.375  0.00  0.00    +0.000 A 
ATOM      8  C   UNL     1      -1.464  15.078  20.467  0.00  0.00    +0.000 A 
ATOM      9  C   UNL     1      -0.132  15.100  19.794  0.00  0.00    +0.000 A 
ATOM     10  C   UNL     1       0.572  13.943  19.465  0.00  0.00    +0.000 A 
ATOM     11  C   UNL     1       1.813  14.303  18.861  0.00  0.00    +0.000 A 
ATOM     12  C   UNL     1       2.900  13.563  18.357  0.00  0.00    +0.000 A 
ATOM     13  C   UNL     1       4.029  14.226  17.857  0.00  0.00    +0.000 A 
ATOM     14  C   UNL     1       4.067  15.615  17.850  0.00  0.00    +0.000 A 
ATOM     15  C   UNL     1       2.996  16.369  18.339  0.00  0.00    +0.000 A 
ATOM     16  C   UNL     1       1.869  15.692  18.850  0.00  0.00    +0.000 A 
ATOM     17  N   UNL     1       0.690  16.166  19.436  0.00  0.00    +0.000 N 
ENDROOT
BRANCH   5  18
ATOM     18  N   UNL     1      -5.364  14.699  22.267  0.00  0.00    +0.000 N 
ATOM     19  C   UNL     1      -5.737  15.096  23.550  0.00  0.00    +0.000 C 
ATOM     20  C   UNL     1      -4.856  16.020  24.354  0.00  0.00    +0.000 C 
ATOM     21  O   UNL     1      -6.835  14.779  24.029  0.00  0.00    +0.000 OA
BRANCH  18  22
ATOM     22  C   UNL     1      -6.418  14.038  21.472  0.00  0.00    +0.000 C 
BRANCH  22  23
ATOM     23  C   UNL     1      -6.376  12.510  21.557  0.00  0.00    +0.000 C 
ATOM     24  F   UNL     1      -5.658  12.020  20.509  0.00  0.00    +0.000 F 
ENDBRANCH  22  23
ENDBRANCH  18  22
ENDBRANCH   5  18
BRANCH   1  26
ATOM     25  N   UNL     1      -0.610  10.584  18.276  0.00  0.00    +0.000 N 
ATOM     26  C   UNL     1      -0.746  11.954  18.595  0.00  0.00    +0.000 C 
ATOM     27  O   UNL     1      -1.560  12.657  17.982  0.00  0.00    +0.000 OA
BRANCH  25  29
ATOM     28  C   UNL     1      -2.889   9.672  17.825  0.00  0.00    +0.000 C 
ATOM     29  C   UNL     1      -1.526  10.047  17.260  0.00  0.00    +0.000 C 
ENDBRANCH  25  29
BRANCH  25  30
ATOM     30  C   UNL     1       0.336   9.699  18.969  0.00  0.00    +0.000 C 
ATOM     31  C   UNL     1       1.635   9.326  18.270  0.00  0.00    +0.000 C 
ENDBRANCH  25  30
ENDBRANCH   1  26
BRANCH  17  32
ATOM     32  C   UNL     1       0.513  17.577  19.732  0.00  0.00    +0.000 C 
BRANCH  32  33
ATOM     33  C   UNL     1      -0.135  18.358  18.605  0.00  0.00    +0.000 C 
ATOM     34  F   UNL     1      -0.664  17.473  17.712  0.00  0.00    +0.000 F 
ENDBRANCH  32  33
ENDBRANCH  17  32
TORSDOF 8
ENDMDL
MODEL 4
REMARK VINA RESULT:      -5.7      3.604      5.333
REMARK  Name = 
REMARK  11 active torsions:
REMARK  status: ('A' for Active; 'I' for Inactive)
REMARK    1  A    between atoms: C_1  and  C_2
REMARK    2  A    between atoms: C_2  and  N_3
REMARK    3  A    between atoms: N_3  and  C_4
REMARK    4  A    between atoms: C_4  and  C_5
REMARK    5  A    between atoms: C_6  and  C_8
REMARK    6  A    between atoms: C_12  and  N_13
REMARK    7  A    between atoms: N_13  and  C_14
REMARK    8  A    between atoms: C_14  and  C_15
REMARK    9  A    between atoms: C_17  and  C_18
REMARK   10  A    between atoms: N_31  and  C_32
REMARK   11  A    between atoms: C_32  and  C_33
REMARK                            x       y       z     vdW  Elec       q    Type
REMARK                         _______ _______ _______ _____ _____    ______ ____
ROOT
ATOM      1  C   UNL     1       0.197  12.544  19.717  0.00  0.00    +0.000 C 
ATOM      2  S   UNL     1      -0.702  12.344  21.308  0.00  0.00    +0.000 S 
ATOM      3  C   UNL     1      -1.848  13.733  21.215  0.00  0.00    +0.000 A 
ATOM      4  C   UNL     1      -3.090  13.537  21.859  0.00  0.00    +0.000 A 
ATOM      5  C   UNL     1      -4.113  14.484  21.776  0.00  0.00    +0.000 A 
ATOM      6  C   UNL     1      -3.839  15.666  21.081  0.00  0.00    +0.000 A 
ATOM      7  C   UNL     1      -2.581  15.891  20.473  0.00  0.00    +0.000 A 
ATOM      8  C   UNL     1      -1.558  14.938  20.526  0.00  0.00    +0.000 A 
ATOM      9  C   UNL     1      -0.241  15.076  19.836  0.00  0.00    +0.000 A 
ATOM     10  C   UNL     1       0.541  13.984  19.469  0.00  0.00    +0.000 A 
ATOM     11  C   UNL     1       1.743  14.450  18.859  0.00  0.00    +0.000 A 
ATOM     12  C   UNL     1       2.875  13.806  18.322  0.00  0.00    +0.000 A 
ATOM     13  C   UNL     1       3.943  14.563  17.823  0.00  0.00    +0.000 A 
ATOM     14  C   UNL     1       3.877  15.951  17.851  0.00  0.00    +0.000 A 
ATOM     15  C   UNL     1       2.761  16.611  18.373  0.00  0.00    +0.000 A 
ATOM     16  C   UNL     1       1.696  15.840  18.881  0.00  0.00    +0.000 A 
ATOM     17  N   UNL     1       0.493  16.209  19.494  0.00  0.00    +0.000 N 
ENDROOT
BRANCH   5  18
ATOM     18  N   UNL     1      -5.392  14.225  22.367  0.00  0.00    +0.000 N 
ATOM     19  C   UNL     1      -6.532  13.794  21.690  0.00  0.00    +0.000 C 
ATOM     20  C   UNL     1      -6.431  13.255  20.285  0.00  0.00    +0.000 C 
ATOM     21  O   UNL     1      -7.637  13.756  22.248  0.00  0.00    +0.000 OA
BRANCH  18  22
ATOM     22  C   UNL     1      -5.561  14.460  23.815  0.00  0.00    +0.000 C 
BRANCH  22  23
ATOM     23  C   UNL     1      -5.646  15.943  24.184  0.00  0.00    +0.000 C 
ATOM     24  F   UNL     1      -4.481  16.329  24.773  0.00  0.00    +0.000 F 
ENDBRANCH  22  23
ENDBRANCH  18  22
ENDBRANCH   5  18
BRANCH   1  26
ATOM     25  N   UNL     1      -0.474  10.550  18.276  0.00  0.00    +0.000 N 
ATOM     26  C   UNL     1      -0.637  11.923  18.567  0.00  0.00    +0.000 C 
ATOM     27  O   UNL     1      -1.452  12.601  17.928  0.00  0.00    +0.000 OA
BRANCH  25  29
ATOM     28  C   UNL     1      -2.744   9.632  17.794  0.00  0.00    +0.000 C 
ATOM     29  C   UNL     1      -1.364   9.979  17.255  0.00  0.00    +0.000 C 
ENDBRANCH  25  29
BRANCH  25  30
ATOM     30  C   UNL     1       0.475   9.694  19.001  0.00  0.00    +0.000 C 
ATOM     31  C   UNL     1       1.607   9.037  18.226  0.00  0.00    +0.000 C 
ENDBRANCH  25  30
ENDBRANCH   1  26
BRANCH  17  32
ATOM     32  C   UNL     1       0.216  17.596  19.829  0.00  0.00    +0.000 C 
BRANCH  32  33
ATOM     33  C   UNL     1      -0.422  18.378  18.696  0.00  0.00    +0.000 C 
ATOM     34  F   UNL     1      -1.040  17.499  17.856  0.00  0.00    +0.000 F 
ENDBRANCH  32  33
ENDBRANCH  17  32
TORSDOF 8
ENDMDL
MODEL 5
REMARK VINA RESULT:      -5.7      3.385      5.479
REMARK  Name = 
REMARK  11 active torsions:
REMARK  status: ('A' for Active; 'I' for Inactive)
REMARK    1  A    between atoms: C_1  and  C_2
REMARK    2  A    between atoms: C_2  and  N_3
REMARK    3  A    between atoms: N_3  and  C_4
REMARK    4  A    between atoms: C_4  and  C_5
REMARK    5  A    between atoms: C_6  and  C_8
REMARK    6  A    between atoms: C_12  and  N_13
REMARK    7  A    between atoms: N_13  and  C_14
REMARK    8  A    between atoms: C_14  and  C_15
REMARK    9  A    between atoms: C_17  and  C_18
REMARK   10  A    between atoms: N_31  and  C_32
REMARK   11  A    between atoms: C_32  and  C_33
REMARK                            x       y       z     vdW  Elec       q    Type
REMARK                         _______ _______ _______ _____ _____    ______ ____
ROOT
ATOM      1  C   UNL     1       0.009  12.507  19.656  0.00  0.00    +0.000 C 
ATOM      2  S   UNL     1      -0.793  12.067  21.251  0.00  0.00    +0.000 S 
ATOM      3  C   UNL     1      -2.137  13.269  21.285  0.00  0.00    +0.000 A 
ATOM      4  C   UNL     1      -3.311  12.844  21.945  0.00  0.00    +0.000 A 
ATOM      5  C   UNL     1      -4.468  13.628  21.954  0.00  0.00    +0.000 A 
ATOM      6  C   UNL     1      -4.398  14.882  21.338  0.00  0.00    +0.000 A 
ATOM      7  C   UNL     1      -3.211  15.335  20.717  0.00  0.00    +0.000 A 
ATOM      8  C   UNL     1      -2.055  14.548  20.677  0.00  0.00    +0.000 A 
ATOM      9  C   UNL     1      -0.800  14.930  19.966  0.00  0.00    +0.000 A 
ATOM     10  C   UNL     1       0.125  13.996  19.503  0.00  0.00    +0.000 A 
ATOM     11  C   UNL     1       1.221  14.678  18.897  0.00  0.00    +0.000 A 
ATOM     12  C   UNL     1       2.416  14.252  18.287  0.00  0.00    +0.000 A 
ATOM     13  C   UNL     1       3.341  15.193  17.817  0.00  0.00    +0.000 A 
ATOM     14  C   UNL     1       3.068  16.550  17.945  0.00  0.00    +0.000 A 
ATOM     15  C   UNL     1       1.885  16.996  18.540  0.00  0.00    +0.000 A 
ATOM     16  C   UNL     1       0.966  16.040  19.019  0.00  0.00    +0.000 A 
ATOM     17  N   UNL     1      -0.256  16.181  19.687  0.00  0.00    +0.000 N 
ENDROOT
BRANCH   5  18
ATOM     18  N   UNL     1      -5.671  13.139  22.558  0.00  0.00    +0.000 N 
ATOM     19  C   UNL     1      -6.699  12.467  21.899  0.00  0.00    +0.000 C 
ATOM     20  C   UNL     1      -6.487  11.912  20.512  0.00  0.00    +0.000 C 
ATOM     21  O   UNL     1      -7.777  12.228  22.461  0.00  0.00    +0.000 OA
BRANCH  18  22
ATOM     22  C   UNL     1      -5.889  13.385  23.997  0.00  0.00    +0.000 C 
BRANCH  22  23
ATOM     23  C   UNL     1      -5.263  12.318  24.897  0.00  0.00    +0.000 C 
ATOM     24  F   UNL     1      -3.970  12.655  25.164  0.00  0.00    +0.000 F 
ENDBRANCH  22  23
ENDBRANCH  18  22
ENDBRANCH   5  18
BRANCH   1  26
ATOM     25  N   UNL     1      -0.552  10.471  18.226  0.00  0.00    +0.000 N 
ATOM     26  C   UNL     1      -0.763  11.845  18.486  0.00  0.00    +0.000 C 
ATOM     27  O   UNL     1      -1.570  12.489  17.804  0.00  0.00    +0.000 OA
BRANCH  25  29
ATOM     28  C   UNL     1      -2.839   9.692  17.603  0.00  0.00    +0.000 C 
ATOM     29  C   UNL     1      -1.386   9.859  17.183  0.00  0.00    +0.000 C 
ENDBRANCH  25  29
BRANCH  25  30
ATOM     30  C   UNL     1       0.390   9.654  19.003  0.00  0.00    +0.000 C 
ATOM     31  C   UNL     1       1.681   9.197  18.340  0.00  0.00    +0.000 C 
ENDBRANCH  25  30
ENDBRANCH   1  26
BRANCH  17  32
ATOM     32  C   UNL     1      -0.726  17.484  20.125  0.00  0.00    +0.000 C 
BRANCH  32  33
ATOM     33  C   UNL     1      -0.294  17.843  21.535  0.00  0.00    +0.000 C 
ATOM     34  F   UNL     1       0.822  18.622  21.462  0.00  0.00    +0.000 F 
ENDBRANCH  32  33
ENDBRANCH  17  32
TORSDOF 8
ENDMDL
MODEL 6
REMARK VINA RESULT:      -5.5      3.303      4.975
REMARK  Name = 
REMARK  11 active torsions:
REMARK  status: ('A' for Active; 'I' for Inactive)
REMARK    1  A    between atoms: C_1  and  C_2
REMARK    2  A    between atoms: C_2  and  N_3
REMARK    3  A    between atoms: N_3  and  C_4
REMARK    4  A    between atoms: C_4  and  C_5
REMARK    5  A    between atoms: C_6  and  C_8
REMARK    6  A    between atoms: C_12  and  N_13
REMARK    7  A    between atoms: N_13  and  C_14
REMARK    8  A    between atoms: C_14  and  C_15
REMARK    9  A    between atoms: C_17  and  C_18
REMARK   10  A    between atoms: N_31  and  C_32
REMARK   11  A    between atoms: C_32  and  C_33
REMARK                            x       y       z     vdW  Elec       q    Type
REMARK                         _______ _______ _______ _____ _____    ______ ____
ROOT
ATOM      1  C   UNL     1      -0.298  12.739  20.626  0.00  0.00    +0.000 C 
ATOM      2  S   UNL     1      -1.031  13.011  22.290  0.00  0.00    +0.000 S 
ATOM      3  C   UNL     1      -2.055  14.460  21.964  0.00  0.00    +0.000 A 
ATOM      4  C   UNL     1      -3.231  14.556  22.741  0.00  0.00    +0.000 A 
ATOM      5  C   UNL     1      -4.171  15.566  22.520  0.00  0.00    +0.000 A 
ATOM      6  C   UNL     1      -3.872  16.518  21.541  0.00  0.00    +0.000 A 
ATOM      7  C   UNL     1      -2.674  16.456  20.791  0.00  0.00    +0.000 A 
ATOM      8  C   UNL     1      -1.738  15.435  20.984  0.00  0.00    +0.000 A 
ATOM      9  C   UNL     1      -0.498  15.263  20.171  0.00  0.00    +0.000 A 
ATOM     10  C   UNL     1       0.142  14.036  20.011  0.00  0.00    +0.000 A 
ATOM     11  C   UNL     1       1.306  14.213  19.206  0.00  0.00    +0.000 A 
ATOM     12  C   UNL     1       2.311  13.342  18.744  0.00  0.00    +0.000 A 
ATOM     13  C   UNL     1       3.381  13.841  17.989  0.00  0.00    +0.000 A 
ATOM     14  C   UNL     1       3.439  15.196  17.688  0.00  0.00    +0.000 A 
ATOM     15  C   UNL     1       2.448  16.078  18.130  0.00  0.00    +0.000 A 
ATOM     16  C   UNL     1       1.382  15.567  18.898  0.00  0.00    +0.000 A 
ATOM     17  N   UNL     1       0.291  16.199  19.505  0.00  0.00    +0.000 N 
ENDROOT
BRANCH   5  18
ATOM     18  N   UNL     1      -5.395  15.593  23.264  0.00  0.00    +0.000 N 
ATOM     19  C   UNL     1      -6.289  14.533  23.402  0.00  0.00    +0.000 C 
ATOM     20  C   UNL     1      -5.882  13.131  23.021  0.00  0.00    +0.000 C 
ATOM     21  O   UNL     1      -7.402  14.692  23.922  0.00  0.00    +0.000 OA
BRANCH  18  22
ATOM     22  C   UNL     1      -5.792  16.852  23.925  0.00  0.00    +0.000 C 
BRANCH  22  23
ATOM     23  C   UNL     1      -4.864  17.255  25.072  0.00  0.00    +0.000 C 
ATOM     24  F   UNL     1      -4.105  16.185  25.437  0.00  0.00    +0.000 F 
ENDBRANCH  22  23
ENDBRANCH  18  22
ENDBRANCH   5  18
BRANCH   1  26
ATOM     25  N   UNL     1      -0.908  10.726  19.184  0.00  0.00    +0.000 N 
ATOM     26  C   UNL     1      -1.304  11.966  19.734  0.00  0.00    +0.000 C 
ATOM     27  O   UNL     1      -2.442  12.405  19.525  0.00  0.00    +0.000 OA
BRANCH  25  29
ATOM     28  C   UNL     1      -1.960  10.322  16.958  0.00  0.00    +0.000 C 
ATOM     29  C   UNL     1      -1.929   9.976  18.440  0.00  0.00    +0.000 C 
ENDBRANCH  25  29
BRANCH  25  30
ATOM     30  C   UNL     1       0.428  10.154  19.400  0.00  0.00    +0.000 C 
ATOM     31  C   UNL     1       1.275   9.795  18.188  0.00  0.00    +0.000 C 
ENDBRANCH  25  30
ENDBRANCH   1  26
BRANCH  17  32
ATOM     32  C   UNL     1       0.174  17.647  19.519  0.00  0.00    +0.000 C 
BRANCH  32  33
ATOM     33  C   UNL     1      -0.627  18.203  18.356  0.00  0.00    +0.000 C 
ATOM     34  F   UNL     1      -0.806  17.210  17.439  0.00  0.00    +0.000 F 
ENDBRANCH  32  33
ENDBRANCH  17  32
TORSDOF 8
ENDMDL
MODEL 7
REMARK VINA RESULT:      -5.5      3.329      6.131
REMARK  Name = 
REMARK  11 active torsions:
REMARK  status: ('A' for Active; 'I' for Inactive)
REMARK    1  A    between atoms: C_1  and  C_2
REMARK    2  A    between atoms: C_2  and  N_3
REMARK    3  A    between atoms: N_3  and  C_4
REMARK    4  A    between atoms: C_4  and  C_5
REMARK    5  A    between atoms: C_6  and  C_8
REMARK    6  A    between atoms: C_12  and  N_13
REMARK    7  A    between atoms: N_13  and  C_14
REMARK    8  A    between atoms: C_14  and  C_15
REMARK    9  A    between atoms: C_17  and  C_18
REMARK   10  A    between atoms: N_31  and  C_32
REMARK   11  A    between atoms: C_32  and  C_33
REMARK                            x       y       z     vdW  Elec       q    Type
REMARK                         _______ _______ _______ _____ _____    ______ ____
ROOT
ATOM      1  C   UNL     1      -3.978  13.218  22.308  0.00  0.00    +0.000 C 
ATOM      2  S   UNL     1      -2.350  12.897  23.101  0.00  0.00    +0.000 S 
ATOM      3  C   UNL     1      -1.235  13.363  21.762  0.00  0.00    +0.000 A 
ATOM      4  C   UNL     1       0.011  13.891  22.169  0.00  0.00    +0.000 A 
ATOM      5  C   UNL     1       0.928  14.392  21.242  0.00  0.00    +0.000 A 
ATOM      6  C   UNL     1       0.592  14.295  19.888  0.00  0.00    +0.000 A 
ATOM      7  C   UNL     1      -0.634  13.724  19.471  0.00  0.00    +0.000 A 
ATOM      8  C   UNL     1      -1.572  13.243  20.390  0.00  0.00    +0.000 A 
ATOM      9  C   UNL     1      -2.916  12.709  20.021  0.00  0.00    +0.000 A 
ATOM     10  C   UNL     1      -4.000  12.708  20.896  0.00  0.00    +0.000 A 
ATOM     11  C   UNL     1      -5.123  12.108  20.255  0.00  0.00    +0.000 A 
ATOM     12  C   UNL     1      -6.445  11.837  20.660  0.00  0.00    +0.000 A 
ATOM     13  C   UNL     1      -7.323  11.174  19.792  0.00  0.00    +0.000 A 
ATOM     14  C   UNL     1      -6.889  10.796  18.527  0.00  0.00    +0.000 A 
ATOM     15  C   UNL     1      -5.584  11.061  18.103  0.00  0.00    +0.000 A 
ATOM     16  C   UNL     1      -4.705  11.719  18.987  0.00  0.00    +0.000 A 
ATOM     17  N   UNL     1      -3.357  12.072  18.862  0.00  0.00    +0.000 N 
ENDROOT
BRANCH   5  18
ATOM     18  N   UNL     1       2.148  14.999  21.684  0.00  0.00    +0.000 N 
ATOM     19  C   UNL     1       2.264  16.243  22.301  0.00  0.00    +0.000 C 
ATOM     20  C   UNL     1       1.045  16.945  22.847  0.00  0.00    +0.000 C 
ATOM     21  O   UNL     1       3.370  16.764  22.499  0.00  0.00    +0.000 OA
BRANCH  18  22
ATOM     22  C   UNL     1       3.418  14.284  21.448  0.00  0.00    +0.000 C 
BRANCH  22  23
ATOM     23  C   UNL     1       4.127  14.714  20.162  0.00  0.00    +0.000 C 
ATOM     24  F   UNL     1       3.691  13.945  19.126  0.00  0.00    +0.000 F 
ENDBRANCH  22  23
ENDBRANCH  18  22
ENDBRANCH   5  18
BRANCH   1  26
ATOM     25  N   UNL     1      -5.452  15.124  23.143  0.00  0.00    +0.000 N 
ATOM     26  C   UNL     1      -4.314  14.728  22.403  0.00  0.00    +0.000 C 
ATOM     27  O   UNL     1      -3.592  15.580  21.869  0.00  0.00    +0.000 OA
BRANCH  25  29
ATOM     28  C   UNL     1      -5.297  17.080  24.684  0.00  0.00    +0.000 C 
ATOM     29  C   UNL     1      -5.669  16.569  23.300  0.00  0.00    +0.000 C 
ENDBRANCH  25  29
BRANCH  25  30
ATOM     30  C   UNL     1      -6.344  14.160  23.801  0.00  0.00    +0.000 C 
ATOM     31  C   UNL     1      -7.802  14.102  23.373  0.00  0.00    +0.000 C 
ENDBRANCH  25  30
ENDBRANCH   1  26
BRANCH  17  32
ATOM     32  C   UNL     1      -2.572  11.648  17.715  0.00  0.00    +0.000 C 
BRANCH  32  33
ATOM     33  C   UNL     1      -1.827  10.345  17.937  0.00  0.00    +0.000 C 
ATOM     34  F   UNL     1      -1.814   9.648  16.765  0.00  0.00    +0.000 F 
ENDBRANCH  32  33
ENDBRANCH  17  32
TORSDOF 8
ENDMDL
MODEL 8
REMARK VINA RESULT:      -5.4      3.185      5.491
REMARK  Name = 
REMARK  11 active torsions:
REMARK  status: ('A' for Active; 'I' for Inactive)
REMARK    1  A    between atoms: C_1  and  C_2
REMARK    2  A    between atoms: C_2  and  N_3
REMARK    3  A    between atoms: N_3  and  C_4
REMARK    4  A    between atoms: C_4  and  C_5
REMARK    5  A    between atoms: C_6  and  C_8
REMARK    6  A    between atoms: C_12  and  N_13
REMARK    7  A    between atoms: N_13  and  C_14
REMARK    8  A    between atoms: C_14  and  C_15
REMARK    9  A    between atoms: C_17  and  C_18
REMARK   10  A    between atoms: N_31  and  C_32
REMARK   11  A    between atoms: C_32  and  C_33
REMARK                            x       y       z     vdW  Elec       q    Type
REMARK                         _______ _______ _______ _____ _____    ______ ____
ROOT
ATOM      1  C   UNL     1      -0.080  12.465  19.743  0.00  0.00    +0.000 C 
ATOM      2  S   UNL     1      -0.935  12.156  21.340  0.00  0.00    +0.000 S 
ATOM      3  C   UNL     1      -2.135  13.502  21.336  0.00  0.00    +0.000 A 
ATOM      4  C   UNL     1      -3.355  13.228  21.995  0.00  0.00    +0.000 A 
ATOM      5  C   UNL     1      -4.415  14.138  21.976  0.00  0.00    +0.000 A 
ATOM      6  C   UNL     1      -4.200  15.361  21.332  0.00  0.00    +0.000 A 
ATOM      7  C   UNL     1      -2.966  15.662  20.711  0.00  0.00    +0.000 A 
ATOM      8  C   UNL     1      -1.906  14.749  20.699  0.00  0.00    +0.000 A 
ATOM      9  C   UNL     1      -0.611  14.970  19.990  0.00  0.00    +0.000 A 
ATOM     10  C   UNL     1       0.205  13.927  19.557  0.00  0.00    +0.000 A 
ATOM     11  C   UNL     1       1.375  14.467  18.945  0.00  0.00    +0.000 A 
ATOM     12  C   UNL     1       2.518  13.893  18.356  0.00  0.00    +0.000 A 
ATOM     13  C   UNL     1       3.546  14.713  17.873  0.00  0.00    +0.000 A 
ATOM     14  C   UNL     1       3.428  16.095  17.967  0.00  0.00    +0.000 A 
ATOM     15  C   UNL     1       2.298  16.685  18.541  0.00  0.00    +0.000 A 
ATOM     16  C   UNL     1       1.275  15.851  19.034  0.00  0.00    +0.000 A 
ATOM     17  N   UNL     1       0.073  16.145  19.688  0.00  0.00    +0.000 N 
ENDROOT
BRANCH   5  18
ATOM     18  N   UNL     1      -5.669  13.802  22.580  0.00  0.00    +0.000 N 
ATOM     19  C   UNL     1      -6.263  14.467  23.652  0.00  0.00    +0.000 C 
ATOM     20  C   UNL     1      -5.765  15.824  24.084  0.00  0.00    +0.000 C 
ATOM     21  O   UNL     1      -7.265  14.010  24.218  0.00  0.00    +0.000 OA
BRANCH  18  22
ATOM     22  C   UNL     1      -6.408  12.631  22.068  0.00  0.00    +0.000 C 
BRANCH  22  23
ATOM     23  C   UNL     1      -7.420  12.980  20.975  0.00  0.00    +0.000 C 
ATOM     24  F   UNL     1      -7.268  14.286  20.619  0.00  0.00    +0.000 F 
ENDBRANCH  22  23
ENDBRANCH  18  22
ENDBRANCH   5  18
BRANCH   1  26
ATOM     25  N   UNL     1      -0.654  10.538  18.174  0.00  0.00    +0.000 N 
ATOM     26  C   UNL     1      -0.914  11.866  18.582  0.00  0.00    +0.000 C 
ATOM     27  O   UNL     1      -1.811  12.519  18.034  0.00  0.00    +0.000 OA
BRANCH  25  29
ATOM     28  C   UNL     1      -2.925   9.631  17.681  0.00  0.00    +0.000 C 
ATOM     29  C   UNL     1      -1.542   9.974  17.148  0.00  0.00    +0.000 C 
ENDBRANCH  25  29
BRANCH  25  30
ATOM     30  C   UNL     1       0.395   9.712  18.788  0.00  0.00    +0.000 C 
ATOM     31  C   UNL     1       1.588   9.296  17.941  0.00  0.00    +0.000 C 
ENDBRANCH  25  30
ENDBRANCH   1  26
BRANCH  17  32
ATOM     32  C   UNL     1      -0.250  17.503  20.092  0.00  0.00    +0.000 C 
BRANCH  32  33
ATOM     33  C   UNL     1       0.234  17.852  21.487  0.00  0.00    +0.000 C 
ATOM     34  F   UNL     1      -0.730  17.494  22.382  0.00  0.00    +0.000 F 
ENDBRANCH  32  33
ENDBRANCH  17  32
TORSDOF 8
ENDMDL
MODEL 9
REMARK VINA RESULT:      -5.4      3.423      5.544
REMARK  Name = 
REMARK  11 active torsions:
REMARK  status: ('A' for Active; 'I' for Inactive)
REMARK    1  A    between atoms: C_1  and  C_2
REMARK    2  A    between atoms: C_2  and  N_3
REMARK    3  A    between atoms: N_3  and  C_4
REMARK    4  A    between atoms: C_4  and  C_5
REMARK    5  A    between atoms: C_6  and  C_8
REMARK    6  A    between atoms: C_12  and  N_13
REMARK    7  A    between atoms: N_13  and  C_14
REMARK    8  A    between atoms: C_14  and  C_15
REMARK    9  A    between atoms: C_17  and  C_18
REMARK   10  A    between atoms: N_31  and  C_32
REMARK   11  A    between atoms: C_32  and  C_33
REMARK                            x       y       z     vdW  Elec       q    Type
REMARK                         _______ _______ _______ _____ _____    ______ ____
ROOT
ATOM      1  C   UNL     1       0.070  12.415  19.639  0.00  0.00    +0.000 C 
ATOM      2  S   UNL     1      -0.711  11.944  21.236  0.00  0.00    +0.000 S 
ATOM      3  C   UNL     1      -1.983  13.216  21.366  0.00  0.00    +0.000 A 
ATOM      4  C   UNL     1      -3.161  12.827  22.041  0.00  0.00    +0.000 A 
ATOM      5  C   UNL     1      -4.270  13.673  22.122  0.00  0.00    +0.000 A 
ATOM      6  C   UNL     1      -4.146  14.949  21.563  0.00  0.00    +0.000 A 
ATOM      7  C   UNL     1      -2.952  15.364  20.927  0.00  0.00    +0.000 A 
ATOM      8  C   UNL     1      -1.845  14.516  20.816  0.00  0.00    +0.000 A 
ATOM      9  C   UNL     1      -0.590  14.861  20.085  0.00  0.00    +0.000 A 
ATOM     10  C   UNL     1       0.267  13.900  19.552  0.00  0.00    +0.000 A 
ATOM     11  C   UNL     1       1.383  14.549  18.945  0.00  0.00    +0.000 A 
ATOM     12  C   UNL     1       2.534  14.085  18.280  0.00  0.00    +0.000 A 
ATOM     13  C   UNL     1       3.498  14.996  17.827  0.00  0.00    +0.000 A 
ATOM     14  C   UNL     1       3.307  16.358  18.025  0.00  0.00    +0.000 A 
ATOM     15  C   UNL     1       2.168  16.840  18.676  0.00  0.00    +0.000 A 
ATOM     16  C   UNL     1       1.210  15.915  19.138  0.00  0.00    +0.000 A 
ATOM     17  N   UNL     1       0.017  16.092  19.848  0.00  0.00    +0.000 N 
ENDROOT
BRANCH   5  18
ATOM     18  N   UNL     1      -5.482  13.224  22.738  0.00  0.00    +0.000 N 
ATOM     19  C   UNL     1      -5.583  12.604  23.983  0.00  0.00    +0.000 C 
ATOM     20  C   UNL     1      -4.426  12.631  24.950  0.00  0.00    +0.000 C 
ATOM     21  O   UNL     1      -6.647  12.098  24.366  0.00  0.00    +0.000 OA
BRANCH  18  22
ATOM     22  C   UNL     1      -6.750  13.382  22.000  0.00  0.00    +0.000 C 
BRANCH  22  23
ATOM     23  C   UNL     1      -7.680  14.435  22.607  0.00  0.00    +0.000 C 
ATOM     24  F   UNL     1      -6.946  15.512  23.001  0.00  0.00    +0.000 F 
ENDBRANCH  22  23
ENDBRANCH  18  22
ENDBRANCH   5  18
BRANCH   1  26
ATOM     25  N   UNL     1      -0.624  10.491  18.115  0.00  0.00    +0.000 N 
ATOM     26  C   UNL     1      -0.771  11.853  18.464  0.00  0.00    +0.000 C 
ATOM     27  O   UNL     1      -1.577  12.567  17.854  0.00  0.00    +0.000 OA
BRANCH  25  29
ATOM     28  C   UNL     1      -2.907   9.631  17.593  0.00  0.00    +0.000 C 
ATOM     29  C   UNL     1      -1.520   9.975  17.072  0.00  0.00    +0.000 C 
ENDBRANCH  25  29
BRANCH  25  30
ATOM     30  C   UNL     1       0.314   9.594  18.805  0.00  0.00    +0.000 C 
ATOM     31  C   UNL     1       1.661   9.308  18.158  0.00  0.00    +0.000 C 
ENDBRANCH  25  30
ENDBRANCH   1  26
BRANCH  17  32
ATOM     32  C   UNL     1      -0.365  17.397  20.361  0.00  0.00    +0.000 C 
BRANCH  32  33
ATOM     33  C   UNL     1      -0.024  17.598  21.825  0.00  0.00    +0.000 C 
ATOM     34  F   UNL     1       1.003  16.762  22.150  0.00  0.00    +0.000 F 
ENDBRANCH  32  33
ENDBRANCH  17  32
TORSDOF 8
ENDMDL
