MODEL 1
REMARK VINA RESULT:      -7.1      0.000      0.000
REMARK  Name = 
REMARK  8 active torsions:
REMARK  status: ('A' for Active; 'I' for Inactive)
REMARK    1  A    between atoms: N_1  and  CA_2
REMARK    2  A    between atoms: CA_2  and  C_3
REMARK    3  A    between atoms: CA_2  and  C_6
REMARK    4  A    between atoms: C_3  and  OXT_5
REMARK    5  A    between atoms: C_6  and  N_7
REMARK    6  A    between atoms: C_6  and  C_16
REMARK    7  A    between atoms: C_8  and  C_10
REMARK    8  A    between atoms: C_16  and  O_18
REMARK                            x       y       z     vdW  Elec       q    Type
REMARK                         _______ _______ _______ _____ _____    ______ ____
ROOT
ATOM      1  C   UNL     1       6.280   5.459  18.234  0.00  0.00    +0.000 C 
ENDROOT
BRANCH   1   2
ATOM      2  N   UNL     1       5.167   4.767  18.907  0.00  0.00    +0.000 N 
ATOM      3  C   UNL     1       3.874   4.858  18.434  0.00  0.00    +0.000 C 
ATOM      4  O   UNL     1       3.585   5.463  17.410  0.00  0.00    +0.000 OA
ATOM      5  H   UNL     1       5.375   4.242  19.752  0.00  0.00    +0.000 HD
BRANCH   3   6
ATOM      6  C   UNL     1       2.830   4.181  19.243  0.00  0.00    +0.000 A 
ATOM      7  C   UNL     1       1.780   3.470  18.647  0.00  0.00    +0.000 A 
ATOM      8  C   UNL     1       0.795   2.890  19.444  0.00  0.00    +0.000 A 
ATOM      9  C   UNL     1       0.862   3.008  20.833  0.00  0.00    +0.000 A 
ATOM     10  C   UNL     1       1.926   3.684  21.430  0.00  0.00    +0.000 A 
ATOM     11  C   UNL     1       2.916   4.263  20.637  0.00  0.00    +0.000 A 
ENDBRANCH   3   6
ENDBRANCH   1   2
BRANCH   1  12
ATOM     12  C   UNL     1       7.416   5.822  19.202  0.00  0.00    +0.000 C 
ATOM     13  O   UNL     1       7.608   5.236  20.258  0.00  0.00    +0.000 OA
BRANCH  12  14
ATOM     14  O   UNL     1       8.183   6.862  18.804  0.00  0.00    +0.000 OA
ATOM     15  H   UNL     1       8.127   7.594  19.447  0.00  0.00    +0.000 HD
ENDBRANCH  12  14
ENDBRANCH   1  12
BRANCH   1  16
ATOM     16  CA  UNL     1       6.872   4.662  17.048  0.00  0.00    +0.000 C 
BRANCH  16  17
ATOM     17  N   UNL     1       8.257   4.154  17.270  0.00  0.00    +0.000 NA
ATOM     18  H1  UNL     1       8.574   3.686  16.416  0.00  0.00    +0.000 HD
ATOM     19  H2  UNL     1       8.223   3.403  17.967  0.00  0.00    +0.000 HD
ENDBRANCH  16  17
BRANCH  16  20
ATOM     20  C   UNL     1       6.902   5.512  15.771  0.00  0.00    +0.000 C 
ATOM     21  O   UNL     1       7.761   5.442  14.906  0.00  0.00    +0.000 OA
BRANCH  20  22
ATOM     22  OXT UNL     1       5.794   6.283  15.648  0.00  0.00    +0.000 OA
ATOM     23  HXT UNL     1       6.064   7.204  15.437  0.00  0.00    +0.000 HD
ENDBRANCH  20  22
ENDBRANCH  16  20
ENDBRANCH   1  16
TORSDOF 8
ENDMDL
MODEL 2
REMARK VINA RESULT:      -7.0      0.189      1.377
REMARK  Name = 
REMARK  8 active torsions:
REMARK  status: ('A' for Active; 'I' for Inactive)
REMARK    1  A    between atoms: N_1  and  CA_2
REMARK    2  A    between atoms: CA_2  and  C_3
REMARK    3  A    between atoms: CA_2  and  C_6
REMARK    4  A    between atoms: C_3  and  OXT_5
REMARK    5  A    between atoms: C_6  and  N_7
REMARK    6  A    between atoms: C_6  and  C_16
REMARK    7  A    between atoms: C_8  and  C_10
REMARK    8  A    between atoms: C_16  and  O_18
REMARK                            x       y       z     vdW  Elec       q    Type
REMARK                         _______ _______ _______ _____ _____    ______ ____
ROOT
ATOM      1  C   UNL     1       6.256   5.543  18.180  0.00  0.00    +0.000 C 
ENDROOT
BRANCH   1   2
ATOM      2  N   UNL     1       5.189   4.894  18.962  0.00  0.00    +0.000 N 
ATOM      3  C   UNL     1       3.914   4.749  18.455  0.00  0.00    +0.000 C 
ATOM      4  O   UNL     1       3.609   5.095  17.320  0.00  0.00    +0.000 OA
ATOM      5  H   UNL     1       5.412   4.581  19.903  0.00  0.00    +0.000 HD
BRANCH   3   6
ATOM      6  C   UNL     1       2.909   4.151  19.368  0.00  0.00    +0.000 A 
ATOM      7  C   UNL     1       3.072   4.170  20.759  0.00  0.00    +0.000 A 
ATOM      8  C   UNL     1       2.125   3.555  21.577  0.00  0.00    +0.000 A 
ATOM      9  C   UNL     1       1.013   2.933  21.011  0.00  0.00    +0.000 A 
ATOM     10  C   UNL     1       0.829   2.946  19.628  0.00  0.00    +0.000 A 
ATOM     11  C   UNL     1       1.770   3.563  18.805  0.00  0.00    +0.000 A 
ENDBRANCH   3   6
ENDBRANCH   1   2
BRANCH   1  12
ATOM     12  C   UNL     1       7.427   6.008  19.059  0.00  0.00    +0.000 C 
ATOM     13  O   UNL     1       8.201   6.895  18.727  0.00  0.00    +0.000 OA
BRANCH  12  14
ATOM     14  O   UNL     1       7.550   5.344  20.231  0.00  0.00    +0.000 OA
ATOM     15  H   UNL     1       8.449   4.975  20.322  0.00  0.00    +0.000 HD
ENDBRANCH  12  14
ENDBRANCH   1  12
BRANCH   1  16
ATOM     16  CA  UNL     1       6.809   4.656  17.041  0.00  0.00    +0.000 C 
BRANCH  16  17
ATOM     17  N   UNL     1       8.191   4.141  17.269  0.00  0.00    +0.000 NA
ATOM     18  H1  UNL     1       8.741   4.292  16.420  0.00  0.00    +0.000 HD
ATOM     19  H2  UNL     1       8.150   3.120  17.359  0.00  0.00    +0.000 HD
ENDBRANCH  16  17
BRANCH  16  20
ATOM     20  C   UNL     1       6.826   5.414  15.708  0.00  0.00    +0.000 C 
ATOM     21  O   UNL     1       7.686   5.298  14.848  0.00  0.00    +0.000 OA
BRANCH  20  22
ATOM     22  OXT UNL     1       5.705   6.156  15.532  0.00  0.00    +0.000 OA
ATOM     23  HXT UNL     1       4.933   5.555  15.431  0.00  0.00    +0.000 HD
ENDBRANCH  20  22
ENDBRANCH  16  20
ENDBRANCH   1  16
TORSDOF 8
ENDMDL
MODEL 3
REMARK VINA RESULT:      -6.9      0.645      1.269
REMARK  Name = 
REMARK  8 active torsions:
REMARK  status: ('A' for Active; 'I' for Inactive)
REMARK    1  A    between atoms: N_1  and  CA_2
REMARK    2  A    between atoms: CA_2  and  C_3
REMARK    3  A    between atoms: CA_2  and  C_6
REMARK    4  A    between atoms: C_3  and  OXT_5
REMARK    5  A    between atoms: C_6  and  N_7
REMARK    6  A    between atoms: C_6  and  C_16
REMARK    7  A    between atoms: C_8  and  C_10
REMARK    8  A    between atoms: C_16  and  O_18
REMARK                            x       y       z     vdW  Elec       q    Type
REMARK                         _______ _______ _______ _____ _____    ______ ____
ROOT
ATOM      1  C   UNL     1       6.229   5.556  18.219  0.00  0.00    +0.000 C 
ENDROOT
BRANCH   1   2
ATOM      2  N   UNL     1       5.226   4.876  19.057  0.00  0.00    +0.000 N 
ATOM      3  C   UNL     1       3.958   4.609  18.585  0.00  0.00    +0.000 C 
ATOM      4  O   UNL     1       3.610   4.866  17.439  0.00  0.00    +0.000 OA
ATOM      5  H   UNL     1       5.488   4.634  20.009  0.00  0.00    +0.000 HD
BRANCH   3   6
ATOM      6  C   UNL     1       3.015   3.991  19.550  0.00  0.00    +0.000 A 
ATOM      7  C   UNL     1       1.648   4.298  19.544  0.00  0.00    +0.000 A 
ATOM      8  C   UNL     1       0.806   3.730  20.499  0.00  0.00    +0.000 A 
ATOM      9  C   UNL     1       1.323   2.849  21.450  0.00  0.00    +0.000 A 
ATOM     10  C   UNL     1       2.677   2.513  21.434  0.00  0.00    +0.000 A 
ATOM     11  C   UNL     1       3.523   3.075  20.478  0.00  0.00    +0.000 A 
ENDBRANCH   3   6
ENDBRANCH   1   2
BRANCH   1  12
ATOM     12  C   UNL     1       7.445   6.032  19.029  0.00  0.00    +0.000 C 
ATOM     13  O   UNL     1       8.195   6.921  18.649  0.00  0.00    +0.000 OA
BRANCH  12  14
ATOM     14  O   UNL     1       7.636   5.376  20.195  0.00  0.00    +0.000 OA
ATOM     15  H   UNL     1       8.384   4.754  20.119  0.00  0.00    +0.000 HD
ENDBRANCH  12  14
ENDBRANCH   1  12
BRANCH   1  16
ATOM     16  CA  UNL     1       6.725   4.696  17.033  0.00  0.00    +0.000 C 
BRANCH  16  17
ATOM     17  N   UNL     1       8.120   4.185  17.177  0.00  0.00    +0.000 NA
ATOM     18  H1  UNL     1       8.488   3.975  16.246  0.00  0.00    +0.000 HD
ATOM     19  H2  UNL     1       8.088   3.273  17.643  0.00  0.00    +0.000 HD
ENDBRANCH  16  17
BRANCH  16  20
ATOM     20  C   UNL     1       6.667   5.482  15.717  0.00  0.00    +0.000 C 
ATOM     21  O   UNL     1       5.781   6.263  15.409  0.00  0.00    +0.000 OA
BRANCH  20  22
ATOM     22  OXT UNL     1       7.782   5.299  14.967  0.00  0.00    +0.000 OA
ATOM     23  HXT UNL     1       8.075   4.364  15.049  0.00  0.00    +0.000 HD
ENDBRANCH  20  22
ENDBRANCH  16  20
ENDBRANCH   1  16
TORSDOF 8
ENDMDL
MODEL 4
REMARK VINA RESULT:      -6.9      0.806      1.253
REMARK  Name = 
REMARK  8 active torsions:
REMARK  status: ('A' for Active; 'I' for Inactive)
REMARK    1  A    between atoms: N_1  and  CA_2
REMARK    2  A    between atoms: CA_2  and  C_3
REMARK    3  A    between atoms: CA_2  and  C_6
REMARK    4  A    between atoms: C_3  and  OXT_5
REMARK    5  A    between atoms: C_6  and  N_7
REMARK    6  A    between atoms: C_6  and  C_16
REMARK    7  A    between atoms: C_8  and  C_10
REMARK    8  A    between atoms: C_16  and  O_18
REMARK                            x       y       z     vdW  Elec       q    Type
REMARK                         _______ _______ _______ _____ _____    ______ ____
ROOT
ATOM      1  C   UNL     1       6.449   5.316  18.463  0.00  0.00    +0.000 C 
ENDROOT
BRANCH   1   2
ATOM      2  N   UNL     1       5.365   4.659  19.214  0.00  0.00    +0.000 N 
ATOM      3  C   UNL     1       4.055   4.721  18.787  0.00  0.00    +0.000 C 
ATOM      4  O   UNL     1       3.724   5.270  17.744  0.00  0.00    +0.000 OA
ATOM      5  H   UNL     1       5.608   4.180  20.077  0.00  0.00    +0.000 HD
BRANCH   3   6
ATOM      6  C   UNL     1       3.046   4.086  19.670  0.00  0.00    +0.000 A 
ATOM      7  C   UNL     1       3.416   3.264  20.742  0.00  0.00    +0.000 A 
ATOM      8  C   UNL     1       2.434   2.650  21.518  0.00  0.00    +0.000 A 
ATOM      9  C   UNL     1       1.085   2.865  21.234  0.00  0.00    +0.000 A 
ATOM     10  C   UNL     1       0.714   3.714  20.190  0.00  0.00    +0.000 A 
ATOM     11  C   UNL     1       1.692   4.333  19.414  0.00  0.00    +0.000 A 
ENDBRANCH   3   6
ENDBRANCH   1   2
BRANCH   1  12
ATOM     12  C   UNL     1       7.572   5.826  19.379  0.00  0.00    +0.000 C 
ATOM     13  O   UNL     1       7.816   5.337  20.473  0.00  0.00    +0.000 OA
BRANCH  12  14
ATOM     14  O   UNL     1       8.265   6.878  18.888  0.00  0.00    +0.000 OA
ATOM     15  H   UNL     1       8.205   7.640  19.494  0.00  0.00    +0.000 HD
ENDBRANCH  12  14
ENDBRANCH   1  12
BRANCH   1  16
ATOM     16  CA  UNL     1       7.068   4.420  17.366  0.00  0.00    +0.000 C 
BRANCH  16  17
ATOM     17  N   UNL     1       8.454   3.950  17.656  0.00  0.00    +0.000 NA
ATOM     18  H1  UNL     1       9.033   4.108  16.826  0.00  0.00    +0.000 HD
ATOM     19  H2  UNL     1       8.440   2.931  17.758  0.00  0.00    +0.000 HD
ENDBRANCH  16  17
BRANCH  16  20
ATOM     20  C   UNL     1       7.112   5.148  16.016  0.00  0.00    +0.000 C 
ATOM     21  O   UNL     1       7.624   6.240  15.828  0.00  0.00    +0.000 OA
BRANCH  20  22
ATOM     22  OXT UNL     1       6.613   4.386  15.012  0.00  0.00    +0.000 OA
ATOM     23  HXT UNL     1       7.153   3.568  14.929  0.00  0.00    +0.000 HD
ENDBRANCH  20  22
ENDBRANCH  16  20
ENDBRANCH   1  16
TORSDOF 8
ENDMDL
MODEL 5
REMARK VINA RESULT:      -6.7      1.153      2.726
REMARK  Name = 
REMARK  8 active torsions:
REMARK  status: ('A' for Active; 'I' for Inactive)
REMARK    1  A    between atoms: N_1  and  CA_2
REMARK    2  A    between atoms: CA_2  and  C_3
REMARK    3  A    between atoms: CA_2  and  C_6
REMARK    4  A    between atoms: C_3  and  OXT_5
REMARK    5  A    between atoms: C_6  and  N_7
REMARK    6  A    between atoms: C_6  and  C_16
REMARK    7  A    between atoms: C_8  and  C_10
REMARK    8  A    between atoms: C_16  and  O_18
REMARK                            x       y       z     vdW  Elec       q    Type
REMARK                         _______ _______ _______ _____ _____    ______ ____
ROOT
ATOM      1  C   UNL     1       5.860   5.115  17.176  0.00  0.00    +0.000 C 
ENDROOT
BRANCH   1   2
ATOM      2  N   UNL     1       5.020   4.639  18.289  0.00  0.00    +0.000 N 
ATOM      3  C   UNL     1       3.844   3.956  18.059  0.00  0.00    +0.000 C 
ATOM      4  O   UNL     1       3.459   3.660  16.935  0.00  0.00    +0.000 OA
ATOM      5  H   UNL     1       5.320   4.854  19.236  0.00  0.00    +0.000 HD
BRANCH   3   6
ATOM      6  C   UNL     1       3.048   3.599  19.259  0.00  0.00    +0.000 A 
ATOM      7  C   UNL     1       3.590   2.841  20.306  0.00  0.00    +0.000 A 
ATOM      8  C   UNL     1       2.792   2.488  21.393  0.00  0.00    +0.000 A 
ATOM      9  C   UNL     1       1.460   2.899  21.442  0.00  0.00    +0.000 A 
ATOM     10  C   UNL     1       0.928   3.684  20.419  0.00  0.00    +0.000 A 
ATOM     11  C   UNL     1       1.723   4.044  19.332  0.00  0.00    +0.000 A 
ENDBRANCH   3   6
ENDBRANCH   1   2
BRANCH   1  12
ATOM     12  C   UNL     1       5.361   6.446  16.593  0.00  0.00    +0.000 C 
ATOM     13  O   UNL     1       4.763   7.283  17.253  0.00  0.00    +0.000 OA
BRANCH  12  14
ATOM     14  O   UNL     1       5.620   6.615  15.276  0.00  0.00    +0.000 OA
ATOM     15  H   UNL     1       5.919   5.777  14.876  0.00  0.00    +0.000 HD
ENDBRANCH  12  14
ENDBRANCH   1  12
BRANCH   1  16
ATOM     16  CA  UNL     1       7.353   5.264  17.552  0.00  0.00    +0.000 C 
BRANCH  16  17
ATOM     17  N   UNL     1       8.122   3.986  17.564  0.00  0.00    +0.000 NA
ATOM     18  H1  UNL     1       7.501   3.233  17.874  0.00  0.00    +0.000 HD
ATOM     19  H2  UNL     1       8.834   4.038  18.299  0.00  0.00    +0.000 HD
ENDBRANCH  16  17
BRANCH  16  20
ATOM     20  C   UNL     1       7.513   5.899  18.940  0.00  0.00    +0.000 C 
ATOM     21  O   UNL     1       7.114   5.407  19.983  0.00  0.00    +0.000 OA
BRANCH  20  22
ATOM     22  OXT UNL     1       8.259   7.031  18.896  0.00  0.00    +0.000 OA
ATOM     23  HXT UNL     1       8.640   7.131  17.996  0.00  0.00    +0.000 HD
ENDBRANCH  20  22
ENDBRANCH  16  20
ENDBRANCH   1  16
TORSDOF 8
ENDMDL
MODEL 6
REMARK VINA RESULT:      -6.7      1.431      1.933
REMARK  Name = 
REMARK  8 active torsions:
REMARK  status: ('A' for Active; 'I' for Inactive)
REMARK    1  A    between atoms: N_1  and  CA_2
REMARK    2  A    between atoms: CA_2  and  C_3
REMARK    3  A    between atoms: CA_2  and  C_6
REMARK    4  A    between atoms: C_3  and  OXT_5
REMARK    5  A    between atoms: C_6  and  N_7
REMARK    6  A    between atoms: C_6  and  C_16
REMARK    7  A    between atoms: C_8  and  C_10
REMARK    8  A    between atoms: C_16  and  O_18
REMARK                            x       y       z     vdW  Elec       q    Type
REMARK                         _______ _______ _______ _____ _____    ______ ____
ROOT
ATOM      1  C   UNL     1       6.252   6.256  18.183  0.00  0.00    +0.000 C 
ENDROOT
BRANCH   1   2
ATOM      2  N   UNL     1       5.113   5.411  18.580  0.00  0.00    +0.000 N 
ATOM      3  C   UNL     1       3.811   5.823  18.384  0.00  0.00    +0.000 C 
ATOM      4  O   UNL     1       3.526   6.875  17.827  0.00  0.00    +0.000 OA
ATOM      5  H   UNL     1       5.314   4.522  19.031  0.00  0.00    +0.000 HD
BRANCH   3   6
ATOM      6  C   UNL     1       2.752   4.919  18.898  0.00  0.00    +0.000 A 
ATOM      7  C   UNL     1       2.311   4.979  20.226  0.00  0.00    +0.000 A 
ATOM      8  C   UNL     1       1.347   4.079  20.678  0.00  0.00    +0.000 A 
ATOM      9  C   UNL     1       0.816   3.129  19.806  0.00  0.00    +0.000 A 
ATOM     10  C   UNL     1       1.227   3.091  18.473  0.00  0.00    +0.000 A 
ATOM     11  C   UNL     1       2.187   3.991  18.015  0.00  0.00    +0.000 A 
ENDBRANCH   3   6
ENDBRANCH   1   2
BRANCH   1  12
ATOM     12  C   UNL     1       7.441   6.128  19.147  0.00  0.00    +0.000 C 
ATOM     13  O   UNL     1       7.503   5.277  20.023  0.00  0.00    +0.000 OA
BRANCH  12  14
ATOM     14  O   UNL     1       8.415   7.048  18.965  0.00  0.00    +0.000 OA
ATOM     15  H   UNL     1       8.073   7.813  18.464  0.00  0.00    +0.000 HD
ENDBRANCH  12  14
ENDBRANCH   1  12
BRANCH   1  16
ATOM     16  CA  UNL     1       6.747   5.985  16.743  0.00  0.00    +0.000 C 
BRANCH  16  17
ATOM     17  N   UNL     1       5.843   6.490  15.669  0.00  0.00    +0.000 NA
ATOM     18  H1  UNL     1       5.077   5.823  15.545  0.00  0.00    +0.000 HD
ATOM     19  H2  UNL     1       6.345   6.459  14.776  0.00  0.00    +0.000 HD
ENDBRANCH  16  17
BRANCH  16  20
ATOM     20  C   UNL     1       6.940   4.482  16.498  0.00  0.00    +0.000 C 
ATOM     21  O   UNL     1       6.203   3.784  15.821  0.00  0.00    +0.000 OA
BRANCH  20  22
ATOM     22  OXT UNL     1       8.102   4.028  17.031  0.00  0.00    +0.000 OA
ATOM     23  HXT UNL     1       7.941   3.742  17.958  0.00  0.00    +0.000 HD
ENDBRANCH  20  22
ENDBRANCH  16  20
ENDBRANCH   1  16
TORSDOF 8
ENDMDL
MODEL 7
REMARK VINA RESULT:      -6.7      0.611      1.275
REMARK  Name = 
REMARK  8 active torsions:
REMARK  status: ('A' for Active; 'I' for Inactive)
REMARK    1  A    between atoms: N_1  and  CA_2
REMARK    2  A    between atoms: CA_2  and  C_3
REMARK    3  A    between atoms: CA_2  and  C_6
REMARK    4  A    between atoms: C_3  and  OXT_5
REMARK    5  A    between atoms: C_6  and  N_7
REMARK    6  A    between atoms: C_6  and  C_16
REMARK    7  A    between atoms: C_8  and  C_10
REMARK    8  A    between atoms: C_16  and  O_18
REMARK                            x       y       z     vdW  Elec       q    Type
REMARK                         _______ _______ _______ _____ _____    ______ ____
ROOT
ATOM      1  C   UNL     1       6.120   5.400  17.760  0.00  0.00    +0.000 C 
ENDROOT
BRANCH   1   2
ATOM      2  N   UNL     1       4.946   4.723  18.337  0.00  0.00    +0.000 N 
ATOM      3  C   UNL     1       3.675   5.237  18.186  0.00  0.00    +0.000 C 
ATOM      4  O   UNL     1       3.440   6.242  17.526  0.00  0.00    +0.000 OA
ATOM      5  H   UNL     1       5.103   3.877  18.878  0.00  0.00    +0.000 HD
BRANCH   3   6
ATOM      6  C   UNL     1       2.585   4.507  18.880  0.00  0.00    +0.000 A 
ATOM      7  C   UNL     1       2.326   4.691  20.244  0.00  0.00    +0.000 A 
ATOM      8  C   UNL     1       1.322   3.950  20.866  0.00  0.00    +0.000 A 
ATOM      9  C   UNL     1       0.571   3.036  20.127  0.00  0.00    +0.000 A 
ATOM     10  C   UNL     1       0.802   2.878  18.760  0.00  0.00    +0.000 A 
ATOM     11  C   UNL     1       1.801   3.620  18.133  0.00  0.00    +0.000 A 
ENDBRANCH   3   6
ENDBRANCH   1   2
BRANCH   1  12
ATOM     12  C   UNL     1       7.152   5.797  18.827  0.00  0.00    +0.000 C 
ATOM     13  O   UNL     1       7.236   5.243  19.914  0.00  0.00    +0.000 OA
BRANCH  12  14
ATOM     14  O   UNL     1       7.956   6.826  18.477  0.00  0.00    +0.000 OA
ATOM     15  H   UNL     1       7.600   7.287  17.694  0.00  0.00    +0.000 HD
ENDBRANCH  12  14
ENDBRANCH   1  12
BRANCH   1  16
ATOM     16  CA  UNL     1       6.830   4.572  16.664  0.00  0.00    +0.000 C 
BRANCH  16  17
ATOM     17  N   UNL     1       8.222   4.156  17.002  0.00  0.00    +0.000 NA
ATOM     18  H1  UNL     1       8.876   4.756  16.494  0.00  0.00    +0.000 HD
ATOM     19  H2  UNL     1       8.389   3.222  16.613  0.00  0.00    +0.000 HD
ENDBRANCH  16  17
BRANCH  16  20
ATOM     20  C   UNL     1       6.901   5.349  15.343  0.00  0.00    +0.000 C 
ATOM     21  O   UNL     1       7.925   5.569  14.715  0.00  0.00    +0.000 OA
BRANCH  20  22
ATOM     22  OXT UNL     1       5.669   5.675  14.879  0.00  0.00    +0.000 OA
ATOM     23  HXT UNL     1       5.024   4.992  15.170  0.00  0.00    +0.000 HD
ENDBRANCH  20  22
ENDBRANCH  16  20
ENDBRANCH   1  16
TORSDOF 8
ENDMDL
MODEL 8
REMARK VINA RESULT:      -6.7      1.158      2.608
REMARK  Name = 
REMARK  8 active torsions:
REMARK  status: ('A' for Active; 'I' for Inactive)
REMARK    1  A    between atoms: N_1  and  CA_2
REMARK    2  A    between atoms: CA_2  and  C_3
REMARK    3  A    between atoms: CA_2  and  C_6
REMARK    4  A    between atoms: C_3  and  OXT_5
REMARK    5  A    between atoms: C_6  and  N_7
REMARK    6  A    between atoms: C_6  and  C_16
REMARK    7  A    between atoms: C_8  and  C_10
REMARK    8  A    between atoms: C_16  and  O_18
REMARK                            x       y       z     vdW  Elec       q    Type
REMARK                         _______ _______ _______ _____ _____    ______ ____
ROOT
ATOM      1  C   UNL     1       5.879   5.113  17.147  0.00  0.00    +0.000 C 
ENDROOT
BRANCH   1   2
ATOM      2  N   UNL     1       5.025   4.630  18.246  0.00  0.00    +0.000 N 
ATOM      3  C   UNL     1       3.834   3.979  17.996  0.00  0.00    +0.000 C 
ATOM      4  O   UNL     1       3.447   3.718  16.864  0.00  0.00    +0.000 OA
ATOM      5  H   UNL     1       5.325   4.816  19.199  0.00  0.00    +0.000 HD
BRANCH   3   6
ATOM      6  C   UNL     1       3.025   3.611  19.184  0.00  0.00    +0.000 A 
ATOM      7  C   UNL     1       1.689   4.009  19.319  0.00  0.00    +0.000 A 
ATOM      8  C   UNL     1       0.980   3.681  20.474  0.00  0.00    +0.000 A 
ATOM      9  C   UNL     1       1.599   2.947  21.486  0.00  0.00    +0.000 A 
ATOM     10  C   UNL     1       2.918   2.518  21.338  0.00  0.00    +0.000 A 
ATOM     11  C   UNL     1       3.630   2.840  20.184  0.00  0.00    +0.000 A 
ENDBRANCH   3   6
ENDBRANCH   1   2
BRANCH   1  12
ATOM     12  C   UNL     1       5.387   6.447  16.565  0.00  0.00    +0.000 C 
ATOM     13  O   UNL     1       4.897   7.335  17.249  0.00  0.00    +0.000 OA
BRANCH  12  14
ATOM     14  O   UNL     1       5.521   6.559  15.224  0.00  0.00    +0.000 OA
ATOM     15  H   UNL     1       6.442   6.780  14.990  0.00  0.00    +0.000 HD
ENDBRANCH  12  14
ENDBRANCH   1  12
BRANCH   1  16
ATOM     16  CA  UNL     1       7.366   5.262  17.545  0.00  0.00    +0.000 C 
BRANCH  16  17
ATOM     17  N   UNL     1       8.139   3.985  17.551  0.00  0.00    +0.000 NA
ATOM     18  H1  UNL     1       7.520   3.227  17.249  0.00  0.00    +0.000 HD
ATOM     19  H2  UNL     1       8.368   3.746  18.521  0.00  0.00    +0.000 HD
ENDBRANCH  16  17
BRANCH  16  20
ATOM     20  C   UNL     1       7.507   5.880  18.942  0.00  0.00    +0.000 C 
ATOM     21  O   UNL     1       7.091   5.377  19.973  0.00  0.00    +0.000 OA
BRANCH  20  22
ATOM     22  OXT UNL     1       8.255   7.011  18.922  0.00  0.00    +0.000 OA
ATOM     23  HXT UNL     1       9.073   6.865  19.448  0.00  0.00    +0.000 HD
ENDBRANCH  20  22
ENDBRANCH  16  20
ENDBRANCH   1  16
TORSDOF 8
ENDMDL
MODEL 9
REMARK VINA RESULT:      -6.7      1.393      3.085
REMARK  Name = 
REMARK  8 active torsions:
REMARK  status: ('A' for Active; 'I' for Inactive)
REMARK    1  A    between atoms: N_1  and  CA_2
REMARK    2  A    between atoms: CA_2  and  C_3
REMARK    3  A    between atoms: CA_2  and  C_6
REMARK    4  A    between atoms: C_3  and  OXT_5
REMARK    5  A    between atoms: C_6  and  N_7
REMARK    6  A    between atoms: C_6  and  C_16
REMARK    7  A    between atoms: C_8  and  C_10
REMARK    8  A    between atoms: C_16  and  O_18
REMARK                            x       y       z     vdW  Elec       q    Type
REMARK                         _______ _______ _______ _____ _____    ______ ____
ROOT
ATOM      1  C   UNL     1       6.216   5.136  17.315  0.00  0.00    +0.000 C 
ENDROOT
BRANCH   1   2
ATOM      2  N   UNL     1       4.846   4.828  17.763  0.00  0.00    +0.000 N 
ATOM      3  C   UNL     1       4.612   4.000  18.841  0.00  0.00    +0.000 C 
ATOM      4  O   UNL     1       5.514   3.521  19.516  0.00  0.00    +0.000 OA
ATOM      5  H   UNL     1       4.073   5.223  17.233  0.00  0.00    +0.000 HD
BRANCH   3   6
ATOM      6  C   UNL     1       3.190   3.705  19.144  0.00  0.00    +0.000 A 
ATOM      7  C   UNL     1       2.509   4.346  20.187  0.00  0.00    +0.000 A 
ATOM      8  C   UNL     1       1.187   4.004  20.468  0.00  0.00    +0.000 A 
ATOM      9  C   UNL     1       0.541   3.032  19.703  0.00  0.00    +0.000 A 
ATOM     10  C   UNL     1       1.205   2.419  18.640  0.00  0.00    +0.000 A 
ATOM     11  C   UNL     1       2.526   2.761  18.353  0.00  0.00    +0.000 A 
ENDBRANCH   3   6
ENDBRANCH   1   2
BRANCH   1  12
ATOM     12  C   UNL     1       6.350   5.123  15.785  0.00  0.00    +0.000 C 
ATOM     13  O   UNL     1       5.436   5.428  15.031  0.00  0.00    +0.000 OA
BRANCH  12  14
ATOM     14  O   UNL     1       7.560   4.728  15.329  0.00  0.00    +0.000 OA
ATOM     15  H   UNL     1       7.501   4.459  14.393  0.00  0.00    +0.000 HD
ENDBRANCH  12  14
ENDBRANCH   1  12
BRANCH   1  16
ATOM     16  CA  UNL     1       6.750   6.484  17.852  0.00  0.00    +0.000 C 
BRANCH  16  17
ATOM     17  N   UNL     1       7.265   7.411  16.802  0.00  0.00    +0.000 NA
ATOM     18  H1  UNL     1       7.413   6.879  15.940  0.00  0.00    +0.000 HD
ATOM     19  H2  UNL     1       8.206   7.718  17.068  0.00  0.00    +0.000 HD
ENDBRANCH  16  17
BRANCH  16  20
ATOM     20  C   UNL     1       7.887   6.268  18.858  0.00  0.00    +0.000 C 
ATOM     21  O   UNL     1       8.181   5.194  19.360  0.00  0.00    +0.000 OA
BRANCH  20  22
ATOM     22  OXT UNL     1       8.617   7.395  19.049  0.00  0.00    +0.000 OA
ATOM     23  HXT UNL     1       9.084   7.621  18.214  0.00  0.00    +0.000 HD
ENDBRANCH  20  22
ENDBRANCH  16  20
ENDBRANCH   1  16
TORSDOF 8
ENDMDL
