MODEL 1
REMARK VINA RESULT:      -7.6      0.000      0.000
REMARK  Name = 
REMARK  6 active torsions:
REMARK  status: ('A' for Active; 'I' for Inactive)
REMARK    1  A    between atoms: C_1  and  O_2
REMARK    2  A    between atoms: O_2  and  C_3
REMARK    3  A    between atoms: C_5  and  C_6
REMARK    4  A    between atoms: C_14  and  C_15
REMARK    5  A    between atoms: N_17  and  C_18
REMARK    6  A    between atoms: C_18  and  C_19
REMARK                            x       y       z     vdW  Elec       q    Type
REMARK                         _______ _______ _______ _____ _____    ______ ____
ROOT
ATOM      1  C   UNL     1       7.691   6.082  18.492  0.00  0.00    +0.000 A 
ATOM      2  N   UNL     1       8.352   7.234  18.730  0.00  0.00    +0.000 NA
ATOM      3  C   UNL     1       7.973   8.294  18.004  0.00  0.00    +0.000 A 
ATOM      4  N   UNL     1       7.048   8.265  17.032  0.00  0.00    +0.000 NA
ATOM      5  C   UNL     1       6.432   7.092  16.803  0.00  0.00    +0.000 A 
ATOM      6  N   UNL     1       5.472   7.177  15.802  0.00  0.00    +0.000 N 
ATOM      7  C   UNL     1       6.677   5.948  17.556  0.00  0.00    +0.000 A 
ATOM      8  H   UNL     1       5.551   8.081  15.342  0.00  0.00    +0.000 HD
ATOM      9  H   UNL     1       5.515   6.387  15.160  0.00  0.00    +0.000 HD
ENDROOT
BRANCH   3  10
ATOM     10  C   UNL     1       8.591   9.585  18.315  0.00  0.00    +0.000 A 
ATOM     11  N   UNL     1       9.410   9.936  19.295  0.00  0.00    +0.000 NA
ATOM     12  C   UNL     1       9.636  11.274  19.081  0.00  0.00    +0.000 A 
ATOM     13  C   UNL     1       8.916  11.701  17.995  0.00  0.00    +0.000 A 
ATOM     14  O   UNL     1       8.248  10.631  17.486  0.00  0.00    +0.000 OA
ENDBRANCH   3  10
BRANCH   7  15
ATOM     15  C   UNL     1       5.892   4.696  17.354  0.00  0.00    +0.000 C 
ATOM     16  O   UNL     1       5.991   4.064  16.306  0.00  0.00    +0.000 OA
ATOM     17  N   UNL     1       5.052   4.297  18.381  0.00  0.00    +0.000 N 
ATOM     18  H   UNL     1       5.224   4.678  19.306  0.00  0.00    +0.000 HD
BRANCH  17  19
ATOM     19  C   UNL     1       4.245   3.092  18.277  0.00  0.00    +0.000 C 
BRANCH  19  20
ATOM     20  C   UNL     1       3.151   3.000  19.320  0.00  0.00    +0.000 A 
ATOM     21  C   UNL     1       3.359   2.405  20.582  0.00  0.00    +0.000 A 
ATOM     22 CL   UNL     1       4.875   1.707  21.044  0.00  0.00    +0.000 Cl
ATOM     23  C   UNL     1       2.343   2.365  21.550  0.00  0.00    +0.000 A 
ATOM     24  C   UNL     1       1.096   2.922  21.291  0.00  0.00    +0.000 A 
ATOM     25  C   UNL     1       0.866   3.529  20.066  0.00  0.00    +0.000 A 
ATOM     26  C   UNL     1       1.886   3.580  19.093  0.00  0.00    +0.000 A 
ATOM     27 CL   UNL     1       1.500   4.411  17.626  0.00  0.00    +0.000 Cl
ENDBRANCH  19  20
ENDBRANCH  17  19
ENDBRANCH   7  15
BRANCH   1  29
ATOM     28  C   UNL     1       8.353   5.279  20.600  0.00  0.00    +0.000 C 
ATOM     29  O   UNL     1       8.061   4.976  19.235  0.00  0.00    +0.000 OA
ENDBRANCH   1  29
TORSDOF 5
ENDMDL
MODEL 2
REMARK VINA RESULT:      -7.5      0.647      1.945
REMARK  Name = 
REMARK  6 active torsions:
REMARK  status: ('A' for Active; 'I' for Inactive)
REMARK    1  A    between atoms: C_1  and  O_2
REMARK    2  A    between atoms: O_2  and  C_3
REMARK    3  A    between atoms: C_5  and  C_6
REMARK    4  A    between atoms: C_14  and  C_15
REMARK    5  A    between atoms: N_17  and  C_18
REMARK    6  A    between atoms: C_18  and  C_19
REMARK                            x       y       z     vdW  Elec       q    Type
REMARK                         _______ _______ _______ _____ _____    ______ ____
ROOT
ATOM      1  C   UNL     1       7.753   6.143  18.509  0.00  0.00    +0.000 A 
ATOM      2  N   UNL     1       8.401   7.306  18.727  0.00  0.00    +0.000 NA
ATOM      3  C   UNL     1       7.989   8.357  18.005  0.00  0.00    +0.000 A 
ATOM      4  N   UNL     1       7.043   8.309  17.054  0.00  0.00    +0.000 NA
ATOM      5  C   UNL     1       6.440   7.125  16.846  0.00  0.00    +0.000 A 
ATOM      6  N   UNL     1       5.456   7.191  15.866  0.00  0.00    +0.000 N 
ATOM      7  C   UNL     1       6.719   5.988  17.598  0.00  0.00    +0.000 A 
ATOM      8  H   UNL     1       5.510   8.093  15.401  0.00  0.00    +0.000 HD
ATOM      9  H   UNL     1       5.496   6.398  15.227  0.00  0.00    +0.000 HD
ENDROOT
BRANCH   3  10
ATOM     10  C   UNL     1       8.593   9.659  18.296  0.00  0.00    +0.000 A 
ATOM     11  N   UNL     1       8.530  10.807  17.639  0.00  0.00    +0.000 NA
ATOM     12  C   UNL     1       9.308  11.662  18.380  0.00  0.00    +0.000 A 
ATOM     13  C   UNL     1       9.848  10.994  19.448  0.00  0.00    +0.000 A 
ATOM     14  O   UNL     1       9.395   9.712  19.417  0.00  0.00    +0.000 OA
ENDBRANCH   3  10
BRANCH   7  15
ATOM     15  C   UNL     1       5.950   4.724  17.420  0.00  0.00    +0.000 C 
ATOM     16  O   UNL     1       6.101   4.042  16.410  0.00  0.00    +0.000 OA
ATOM     17  N   UNL     1       5.062   4.370  18.424  0.00  0.00    +0.000 N 
ATOM     18  H   UNL     1       5.189   4.797  19.336  0.00  0.00    +0.000 HD
BRANCH  17  19
ATOM     19  C   UNL     1       4.266   3.157  18.340  0.00  0.00    +0.000 C 
BRANCH  19  20
ATOM     20  C   UNL     1       3.163   3.080  19.374  0.00  0.00    +0.000 A 
ATOM     21  C   UNL     1       1.865   3.578  19.133  0.00  0.00    +0.000 A 
ATOM     22 CL   UNL     1       1.422   4.340  17.642  0.00  0.00    +0.000 Cl
ATOM     23  C   UNL     1       0.845   3.461  20.091  0.00  0.00    +0.000 A 
ATOM     24  C   UNL     1       1.088   2.841  21.311  0.00  0.00    +0.000 A 
ATOM     25  C   UNL     1       2.349   2.326  21.571  0.00  0.00    +0.000 A 
ATOM     26  C   UNL     1       3.375   2.433  20.609  0.00  0.00    +0.000 A 
ATOM     27 CL   UNL     1       4.888   1.706  21.024  0.00  0.00    +0.000 Cl
ENDBRANCH  19  20
ENDBRANCH  17  19
ENDBRANCH   7  15
BRANCH   1  29
ATOM     28  C   UNL     1       8.325   5.327  20.639  0.00  0.00    +0.000 C 
ATOM     29  O   UNL     1       8.157   5.046  19.248  0.00  0.00    +0.000 OA
ENDBRANCH   1  29
TORSDOF 5
ENDMDL
MODEL 3
REMARK VINA RESULT:      -7.3      1.164      2.185
REMARK  Name = 
REMARK  6 active torsions:
REMARK  status: ('A' for Active; 'I' for Inactive)
REMARK    1  A    between atoms: C_1  and  O_2
REMARK    2  A    between atoms: O_2  and  C_3
REMARK    3  A    between atoms: C_5  and  C_6
REMARK    4  A    between atoms: C_14  and  C_15
REMARK    5  A    between atoms: N_17  and  C_18
REMARK    6  A    between atoms: C_18  and  C_19
REMARK                            x       y       z     vdW  Elec       q    Type
REMARK                         _______ _______ _______ _____ _____    ______ ____
ROOT
ATOM      1  C   UNL     1       6.603   7.282  17.247  0.00  0.00    +0.000 A 
ATOM      2  N   UNL     1       7.233   8.467  17.383  0.00  0.00    +0.000 NA
ATOM      3  C   UNL     1       8.215   8.513  18.293  0.00  0.00    +0.000 A 
ATOM      4  N   UNL     1       8.556   7.498  19.103  0.00  0.00    +0.000 NA
ATOM      5  C   UNL     1       7.886   6.342  18.957  0.00  0.00    +0.000 A 
ATOM      6  N   UNL     1       8.337   5.349  19.819  0.00  0.00    +0.000 N 
ATOM      7  C   UNL     1       6.910   6.149  17.984  0.00  0.00    +0.000 A 
ATOM      8  H   UNL     1       8.979   5.759  20.492  0.00  0.00    +0.000 HD
ATOM      9  H   UNL     1       7.569   4.834  20.248  0.00  0.00    +0.000 HD
ENDROOT
BRANCH   3  10
ATOM     10  C   UNL     1       8.994   9.749  18.388  0.00  0.00    +0.000 A 
ATOM     11  N   UNL     1       9.378  10.602  17.449  0.00  0.00    +0.000 NA
ATOM     12  C   UNL     1      10.093  11.554  18.134  0.00  0.00    +0.000 A 
ATOM     13  C   UNL     1      10.148  11.230  19.464  0.00  0.00    +0.000 A 
ATOM     14  O   UNL     1       9.443  10.082  19.648  0.00  0.00    +0.000 OA
ENDBRANCH   3  10
BRANCH   7  15
ATOM     15  C   UNL     1       6.270   4.819  17.773  0.00  0.00    +0.000 C 
ATOM     16  O   UNL     1       6.838   3.955  17.110  0.00  0.00    +0.000 OA
ATOM     17  N   UNL     1       5.021   4.615  18.338  0.00  0.00    +0.000 N 
ATOM     18  H   UNL     1       4.739   5.232  19.093  0.00  0.00    +0.000 HD
BRANCH  17  19
ATOM     19  C   UNL     1       4.316   3.353  18.186  0.00  0.00    +0.000 C 
BRANCH  19  20
ATOM     20  C   UNL     1       3.216   3.143  19.206  0.00  0.00    +0.000 A 
ATOM     21  C   UNL     1       3.437   2.467  20.425  0.00  0.00    +0.000 A 
ATOM     22 CL   UNL     1       4.975   1.800  20.856  0.00  0.00    +0.000 Cl
ATOM     23  C   UNL     1       2.413   2.318  21.375  0.00  0.00    +0.000 A 
ATOM     24  C   UNL     1       1.147   2.842  21.140  0.00  0.00    +0.000 A 
ATOM     25  C   UNL     1       0.905   3.526  19.958  0.00  0.00    +0.000 A 
ATOM     26  C   UNL     1       1.931   3.686  19.004  0.00  0.00    +0.000 A 
ATOM     27 CL   UNL     1       1.526   4.604  17.596  0.00  0.00    +0.000 Cl
ENDBRANCH  19  20
ENDBRANCH  17  19
ENDBRANCH   7  15
BRANCH   1  29
ATOM     28  C   UNL     1       4.294   7.479  16.848  0.00  0.00    +0.000 C 
ATOM     29  O   UNL     1       5.589   7.209  16.309  0.00  0.00    +0.000 OA
ENDBRANCH   1  29
TORSDOF 5
ENDMDL
MODEL 4
REMARK VINA RESULT:      -7.1      0.997      2.744
REMARK  Name = 
REMARK  6 active torsions:
REMARK  status: ('A' for Active; 'I' for Inactive)
REMARK    1  A    between atoms: C_1  and  O_2
REMARK    2  A    between atoms: O_2  and  C_3
REMARK    3  A    between atoms: C_5  and  C_6
REMARK    4  A    between atoms: C_14  and  C_15
REMARK    5  A    between atoms: N_17  and  C_18
REMARK    6  A    between atoms: C_18  and  C_19
REMARK                            x       y       z     vdW  Elec       q    Type
REMARK                         _______ _______ _______ _____ _____    ______ ____
ROOT
ATOM      1  C   UNL     1       6.528   7.345  17.230  0.00  0.00    +0.000 A 
ATOM      2  N   UNL     1       7.116   8.556  17.306  0.00  0.00    +0.000 NA
ATOM      3  C   UNL     1       8.131   8.668  18.174  0.00  0.00    +0.000 A 
ATOM      4  N   UNL     1       8.543   7.692  18.998  0.00  0.00    +0.000 NA
ATOM      5  C   UNL     1       7.913   6.508  18.913  0.00  0.00    +0.000 A 
ATOM      6  N   UNL     1       8.437   5.559  19.784  0.00  0.00    +0.000 N 
ATOM      7  C   UNL     1       6.908   6.247  17.986  0.00  0.00    +0.000 A 
ATOM      8  H   UNL     1       9.088   6.014  20.418  0.00  0.00    +0.000 HD
ATOM      9  H   UNL     1       7.707   5.029  20.259  0.00  0.00    +0.000 HD
ENDROOT
BRANCH   3  10
ATOM     10  C   UNL     1       8.864   9.935  18.201  0.00  0.00    +0.000 A 
ATOM     11  N   UNL     1      10.023  10.250  18.760  0.00  0.00    +0.000 NA
ATOM     12  C   UNL     1      10.186  11.582  18.466  0.00  0.00    +0.000 A 
ATOM     13  C   UNL     1       9.101  12.042  17.766  0.00  0.00    +0.000 A 
ATOM     14  O   UNL     1       8.247  10.999  17.579  0.00  0.00    +0.000 OA
ENDBRANCH   3  10
BRANCH   7  15
ATOM     15  C   UNL     1       6.313   4.888  17.840  0.00  0.00    +0.000 C 
ATOM     16  O   UNL     1       6.938   3.994  17.276  0.00  0.00    +0.000 OA
ATOM     17  N   UNL     1       5.039   4.691  18.349  0.00  0.00    +0.000 N 
ATOM     18  H   UNL     1       4.700   5.354  19.040  0.00  0.00    +0.000 HD
BRANCH  17  19
ATOM     19  C   UNL     1       4.374   3.402  18.253  0.00  0.00    +0.000 C 
BRANCH  19  20
ATOM     20  C   UNL     1       3.259   3.216  19.260  0.00  0.00    +0.000 A 
ATOM     21  C   UNL     1       1.949   3.685  19.030  0.00  0.00    +0.000 A 
ATOM     22 CL   UNL     1       1.501   4.533  17.588  0.00  0.00    +0.000 Cl
ATOM     23  C   UNL     1       0.918   3.466  19.960  0.00  0.00    +0.000 A 
ATOM     24  C   UNL     1       1.164   2.771  21.139  0.00  0.00    +0.000 A 
ATOM     25  C   UNL     1       2.439   2.284  21.385  0.00  0.00    +0.000 A 
ATOM     26  C   UNL     1       3.475   2.492  20.451  0.00  0.00    +0.000 A 
ATOM     27 CL   UNL     1       5.006   1.791  20.842  0.00  0.00    +0.000 Cl
ENDBRANCH  19  20
ENDBRANCH  17  19
ENDBRANCH   7  15
BRANCH   1  29
ATOM     28  C   UNL     1       4.208   7.526  16.896  0.00  0.00    +0.000 C 
ATOM     29  O   UNL     1       5.482   7.205  16.336  0.00  0.00    +0.000 OA
ENDBRANCH   1  29
TORSDOF 5
ENDMDL
MODEL 5
REMARK VINA RESULT:      -6.5      7.953      9.609
REMARK  Name = 
REMARK  6 active torsions:
REMARK  status: ('A' for Active; 'I' for Inactive)
REMARK    1  A    between atoms: C_1  and  O_2
REMARK    2  A    between atoms: O_2  and  C_3
REMARK    3  A    between atoms: C_5  and  C_6
REMARK    4  A    between atoms: C_14  and  C_15
REMARK    5  A    between atoms: N_17  and  C_18
REMARK    6  A    between atoms: C_18  and  C_19
REMARK                            x       y       z     vdW  Elec       q    Type
REMARK                         _______ _______ _______ _____ _____    ______ ____
ROOT
ATOM      1  C   UNL     1       0.437   8.971  20.912  0.00  0.00    +0.000 A 
ATOM      2  N   UNL     1       1.048   7.769  20.867  0.00  0.00    +0.000 NA
ATOM      3  C   UNL     1       1.840   7.548  19.810  0.00  0.00    +0.000 A 
ATOM      4  N   UNL     1       2.005   8.399  18.785  0.00  0.00    +0.000 NA
ATOM      5  C   UNL     1       1.357   9.575  18.852  0.00  0.00    +0.000 A 
ATOM      6  N   UNL     1       1.620  10.394  17.760  0.00  0.00    +0.000 N 
ATOM      7  C   UNL     1       0.580   9.953  19.944  0.00  0.00    +0.000 A 
ATOM      8  H   UNL     1       2.129   9.861  17.060  0.00  0.00    +0.000 HD
ATOM      9  H   UNL     1       0.777  10.840  17.402  0.00  0.00    +0.000 HD
ENDROOT
BRANCH   3  10
ATOM     10  C   UNL     1       2.606   6.300  19.786  0.00  0.00    +0.000 A 
ATOM     11  N   UNL     1       3.736   5.992  19.167  0.00  0.00    +0.000 NA
ATOM     12  C   UNL     1       3.955   4.678  19.503  0.00  0.00    +0.000 A 
ATOM     13  C   UNL     1       2.930   4.220  20.289  0.00  0.00    +0.000 A 
ATOM     14  O   UNL     1       2.061   5.247  20.489  0.00  0.00    +0.000 OA
ENDBRANCH   3  10
BRANCH   7  15
ATOM     15  C   UNL     1      -0.028  11.310  20.037  0.00  0.00    +0.000 C 
ATOM     16  O   UNL     1       0.685  12.306  20.118  0.00  0.00    +0.000 OA
ATOM     17  N   UNL     1      -1.412  11.390  20.041  0.00  0.00    +0.000 N 
ATOM     18  H   UNL     1      -1.931  10.593  19.687  0.00  0.00    +0.000 HD
BRANCH  17  19
ATOM     19  C   UNL     1      -2.098  12.668  20.131  0.00  0.00    +0.000 C 
BRANCH  19  20
ATOM     20  C   UNL     1      -3.115  12.736  21.251  0.00  0.00    +0.000 A 
ATOM     21  C   UNL     1      -2.738  12.854  22.605  0.00  0.00    +0.000 A 
ATOM     22 CL   UNL     1      -1.083  12.911  23.112  0.00  0.00    +0.000 Cl
ATOM     23  C   UNL     1      -3.697  12.956  23.627  0.00  0.00    +0.000 A 
ATOM     24  C   UNL     1      -5.055  12.950  23.326  0.00  0.00    +0.000 A 
ATOM     25  C   UNL     1      -5.455  12.852  22.002  0.00  0.00    +0.000 A 
ATOM     26  C   UNL     1      -4.497  12.758  20.972  0.00  0.00    +0.000 A 
ATOM     27 CL   UNL     1      -5.115  12.696  19.358  0.00  0.00    +0.000 Cl
ENDBRANCH  19  20
ENDBRANCH  17  19
ENDBRANCH   7  15
BRANCH   1  29
ATOM     28  C   UNL     1       0.338   9.453  23.211  0.00  0.00    +0.000 C 
ATOM     29  O   UNL     1      -0.381   9.225  21.998  0.00  0.00    +0.000 OA
ENDBRANCH   1  29
TORSDOF 5
ENDMDL
MODEL 6
REMARK VINA RESULT:      -6.5      7.968      9.779
REMARK  Name = 
REMARK  6 active torsions:
REMARK  status: ('A' for Active; 'I' for Inactive)
REMARK    1  A    between atoms: C_1  and  O_2
REMARK    2  A    between atoms: O_2  and  C_3
REMARK    3  A    between atoms: C_5  and  C_6
REMARK    4  A    between atoms: C_14  and  C_15
REMARK    5  A    between atoms: N_17  and  C_18
REMARK    6  A    between atoms: C_18  and  C_19
REMARK                            x       y       z     vdW  Elec       q    Type
REMARK                         _______ _______ _______ _____ _____    ______ ____
ROOT
ATOM      1  C   UNL     1       0.396   9.023  20.908  0.00  0.00    +0.000 A 
ATOM      2  N   UNL     1       0.982   7.808  20.875  0.00  0.00    +0.000 NA
ATOM      3  C   UNL     1       1.791   7.570  19.834  0.00  0.00    +0.000 A 
ATOM      4  N   UNL     1       1.997   8.418  18.814  0.00  0.00    +0.000 NA
ATOM      5  C   UNL     1       1.373   9.608  18.869  0.00  0.00    +0.000 A 
ATOM      6  N   UNL     1       1.678  10.422  17.784  0.00  0.00    +0.000 N 
ATOM      7  C   UNL     1       0.582  10.002  19.944  0.00  0.00    +0.000 A 
ATOM      8  H   UNL     1       2.190   9.879  17.094  0.00  0.00    +0.000 HD
ATOM      9  H   UNL     1       0.853  10.887  17.408  0.00  0.00    +0.000 HD
ENDROOT
BRANCH   3  10
ATOM     10  C   UNL     1       2.530   6.305  19.825  0.00  0.00    +0.000 A 
ATOM     11  N   UNL     1       3.648   5.963  19.202  0.00  0.00    +0.000 NA
ATOM     12  C   UNL     1       3.841   4.650  19.558  0.00  0.00    +0.000 A 
ATOM     13  C   UNL     1       2.813   4.227  20.359  0.00  0.00    +0.000 A 
ATOM     14  O   UNL     1       1.968   5.276  20.549  0.00  0.00    +0.000 OA
ENDBRANCH   3  10
BRANCH   7  15
ATOM     15  C   UNL     1       0.002  11.373  20.026  0.00  0.00    +0.000 C 
ATOM     16  O   UNL     1       0.736  12.355  20.093  0.00  0.00    +0.000 OA
ATOM     17  N   UNL     1      -1.380  11.480  20.037  0.00  0.00    +0.000 N 
ATOM     18  H   UNL     1      -1.917  10.690  19.695  0.00  0.00    +0.000 HD
BRANCH  17  19
ATOM     19  C   UNL     1      -2.040  12.773  20.117  0.00  0.00    +0.000 C 
BRANCH  19  20
ATOM     20  C   UNL     1      -3.101  12.850  21.194  0.00  0.00    +0.000 A 
ATOM     21  C   UNL     1      -4.479  12.768  20.903  0.00  0.00    +0.000 A 
ATOM     22 CL   UNL     1      -5.082  12.594  19.290  0.00  0.00    +0.000 Cl
ATOM     23  C   UNL     1      -5.446  12.801  21.921  0.00  0.00    +0.000 A 
ATOM     24  C   UNL     1      -5.067  12.910  23.255  0.00  0.00    +0.000 A 
ATOM     25  C   UNL     1      -3.719  12.975  23.573  0.00  0.00    +0.000 A 
ATOM     26  C   UNL     1      -2.743  12.934  22.556  0.00  0.00    +0.000 A 
ATOM     27 CL   UNL     1      -1.095  12.967  23.078  0.00  0.00    +0.000 Cl
ENDBRANCH  19  20
ENDBRANCH  17  19
ENDBRANCH   7  15
BRANCH   1  29
ATOM     28  C   UNL     1       0.258   9.491  23.208  0.00  0.00    +0.000 C 
ATOM     29  O   UNL     1      -0.439   9.294  21.977  0.00  0.00    +0.000 OA
ENDBRANCH   1  29
TORSDOF 5
ENDMDL
MODEL 7
REMARK VINA RESULT:      -6.4      9.503     11.057
REMARK  Name = 
REMARK  6 active torsions:
REMARK  status: ('A' for Active; 'I' for Inactive)
REMARK    1  A    between atoms: C_1  and  O_2
REMARK    2  A    between atoms: O_2  and  C_3
REMARK    3  A    between atoms: C_5  and  C_6
REMARK    4  A    between atoms: C_14  and  C_15
REMARK    5  A    between atoms: N_17  and  C_18
REMARK    6  A    between atoms: C_18  and  C_19
REMARK                            x       y       z     vdW  Elec       q    Type
REMARK                         _______ _______ _______ _____ _____    ______ ____
ROOT
ATOM      1  C   UNL     1      -0.462  11.001  20.828  0.00  0.00    +0.000 A 
ATOM      2  N   UNL     1       0.376  10.013  20.451  0.00  0.00    +0.000 NA
ATOM      3  C   UNL     1       0.603   9.901  19.135  0.00  0.00    +0.000 A 
ATOM      4  N   UNL     1       0.010  10.646  18.190  0.00  0.00    +0.000 NA
ATOM      5  C   UNL     1      -0.841  11.601  18.603  0.00  0.00    +0.000 A 
ATOM      6  N   UNL     1      -1.375  12.336  17.550  0.00  0.00    +0.000 N 
ATOM      7  C   UNL     1      -1.084  11.871  19.947  0.00  0.00    +0.000 A 
ATOM      8  H   UNL     1      -1.125  11.888  16.673  0.00  0.00    +0.000 HD
ATOM      9  H   UNL     1      -2.375  12.493  17.659  0.00  0.00    +0.000 HD
ENDROOT
BRANCH   3  10
ATOM     10  C   UNL     1       1.593   8.914  18.700  0.00  0.00    +0.000 A 
ATOM     11  N   UNL     1       2.297   8.832  17.580  0.00  0.00    +0.000 NA
ATOM     12  C   UNL     1       3.042   7.689  17.735  0.00  0.00    +0.000 A 
ATOM     13  C   UNL     1       2.740   7.093  18.932  0.00  0.00    +0.000 A 
ATOM     14  O   UNL     1       1.821   7.868  19.568  0.00  0.00    +0.000 OA
ENDBRANCH   3  10
BRANCH   7  15
ATOM     15  C   UNL     1      -1.943  13.014  20.372  0.00  0.00    +0.000 C 
ATOM     16  O   UNL     1      -1.582  14.170  20.171  0.00  0.00    +0.000 OA
ATOM     17  N   UNL     1      -3.139  12.712  21.004  0.00  0.00    +0.000 N 
ATOM     18  H   UNL     1      -3.512  11.776  20.883  0.00  0.00    +0.000 HD
BRANCH  17  19
ATOM     19  C   UNL     1      -4.043  13.757  21.456  0.00  0.00    +0.000 C 
BRANCH  19  20
ATOM     20  C   UNL     1      -5.311  13.231  22.094  0.00  0.00    +0.000 A 
ATOM     21  C   UNL     1      -6.422  12.814  21.331  0.00  0.00    +0.000 A 
ATOM     22 CL   UNL     1      -6.446  12.887  19.601  0.00  0.00    +0.000 Cl
ATOM     23  C   UNL     1      -7.575  12.291  21.940  0.00  0.00    +0.000 A 
ATOM     24  C   UNL     1      -7.649  12.164  23.323  0.00  0.00    +0.000 A 
ATOM     25  C   UNL     1      -6.565  12.549  24.098  0.00  0.00    +0.000 A 
ATOM     26  C   UNL     1      -5.402  13.066  23.491  0.00  0.00    +0.000 A 
ATOM     27 CL   UNL     1      -4.097  13.460  24.555  0.00  0.00    +0.000 Cl
ENDBRANCH  19  20
ENDBRANCH  17  19
ENDBRANCH   7  15
BRANCH   1  29
ATOM     28  C   UNL     1      -0.466   9.947  22.929  0.00  0.00    +0.000 C 
ATOM     29  O   UNL     1      -0.706  11.140  22.182  0.00  0.00    +0.000 OA
ENDBRANCH   1  29
TORSDOF 5
ENDMDL
MODEL 8
REMARK VINA RESULT:      -6.4      7.386      9.246
REMARK  Name = 
REMARK  6 active torsions:
REMARK  status: ('A' for Active; 'I' for Inactive)
REMARK    1  A    between atoms: C_1  and  O_2
REMARK    2  A    between atoms: O_2  and  C_3
REMARK    3  A    between atoms: C_5  and  C_6
REMARK    4  A    between atoms: C_14  and  C_15
REMARK    5  A    between atoms: N_17  and  C_18
REMARK    6  A    between atoms: C_18  and  C_19
REMARK                            x       y       z     vdW  Elec       q    Type
REMARK                         _______ _______ _______ _____ _____    ______ ____
ROOT
ATOM      1  C   UNL     1       0.787   8.528  20.700  0.00  0.00    +0.000 A 
ATOM      2  N   UNL     1       1.455   7.356  20.666  0.00  0.00    +0.000 NA
ATOM      3  C   UNL     1       2.251   7.159  19.607  0.00  0.00    +0.000 A 
ATOM      4  N   UNL     1       2.369   8.005  18.571  0.00  0.00    +0.000 NA
ATOM      5  C   UNL     1       1.665   9.149  18.627  0.00  0.00    +0.000 A 
ATOM      6  N   UNL     1       1.883   9.966  17.523  0.00  0.00    +0.000 N 
ATOM      7  C   UNL     1       0.878   9.503  19.718  0.00  0.00    +0.000 A 
ATOM      8  H   UNL     1       2.413   9.449  16.827  0.00  0.00    +0.000 HD
ATOM      9  H   UNL     1       1.017  10.366  17.165  0.00  0.00    +0.000 HD
ENDROOT
BRANCH   3  10
ATOM     10  C   UNL     1       3.076   5.950  19.594  0.00  0.00    +0.000 A 
ATOM     11  N   UNL     1       4.294   5.740  19.116  0.00  0.00    +0.000 NA
ATOM     12  C   UNL     1       4.533   4.413  19.376  0.00  0.00    +0.000 A 
ATOM     13  C   UNL     1       3.435   3.849  19.974  0.00  0.00    +0.000 A 
ATOM     14  O   UNL     1       2.495   4.820  20.130  0.00  0.00    +0.000 OA
ENDBRANCH   3  10
BRANCH   7  15
ATOM     15  C   UNL     1       0.205  10.830  19.799  0.00  0.00    +0.000 C 
ATOM     16  O   UNL     1       0.855  11.841  20.051  0.00  0.00    +0.000 OA
ATOM     17  N   UNL     1      -1.165  10.865  19.593  0.00  0.00    +0.000 N 
ATOM     18  H   UNL     1      -1.590  10.076  19.115  0.00  0.00    +0.000 HD
BRANCH  17  19
ATOM     19  C   UNL     1      -1.911  12.111  19.653  0.00  0.00    +0.000 C 
BRANCH  19  20
ATOM     20  C   UNL     1      -3.313  12.009  19.091  0.00  0.00    +0.000 A 
ATOM     21  C   UNL     1      -3.569  11.565  17.777  0.00  0.00    +0.000 A 
ATOM     22 CL   UNL     1      -2.304  11.117  16.681  0.00  0.00    +0.000 Cl
ATOM     23  C   UNL     1      -4.879  11.440  17.287  0.00  0.00    +0.000 A 
ATOM     24  C   UNL     1      -5.969  11.747  18.094  0.00  0.00    +0.000 A 
ATOM     25  C   UNL     1      -5.749  12.170  19.397  0.00  0.00    +0.000 A 
ATOM     26  C   UNL     1      -4.436  12.289  19.896  0.00  0.00    +0.000 A 
ATOM     27 CL   UNL     1      -4.290  12.772  21.550  0.00  0.00    +0.000 Cl
ENDBRANCH  19  20
ENDBRANCH  17  19
ENDBRANCH   7  15
BRANCH   1  29
ATOM     28  C   UNL     1       0.643   9.332  22.904  0.00  0.00    +0.000 C 
ATOM     29  O   UNL     1      -0.036   8.755  21.788  0.00  0.00    +0.000 OA
ENDBRANCH   1  29
TORSDOF 5
ENDMDL
MODEL 9
REMARK VINA RESULT:      -6.4      9.779     11.176
REMARK  Name = 
REMARK  6 active torsions:
REMARK  status: ('A' for Active; 'I' for Inactive)
REMARK    1  A    between atoms: C_1  and  O_2
REMARK    2  A    between atoms: O_2  and  C_3
REMARK    3  A    between atoms: C_5  and  C_6
REMARK    4  A    between atoms: C_14  and  C_15
REMARK    5  A    between atoms: N_17  and  C_18
REMARK    6  A    between atoms: C_18  and  C_19
REMARK                            x       y       z     vdW  Elec       q    Type
REMARK                         _______ _______ _______ _____ _____    ______ ____
ROOT
ATOM      1  C   UNL     1      -0.323  11.228  21.127  0.00  0.00    +0.000 A 
ATOM      2  N   UNL     1       0.486  10.257  20.655  0.00  0.00    +0.000 NA
ATOM      3  C   UNL     1       0.526  10.116  19.324  0.00  0.00    +0.000 A 
ATOM      4  N   UNL     1      -0.220  10.818  18.456  0.00  0.00    +0.000 NA
ATOM      5  C   UNL     1      -1.035  11.757  18.966  0.00  0.00    +0.000 A 
ATOM      6  N   UNL     1      -1.738  12.447  17.985  0.00  0.00    +0.000 N 
ATOM      7  C   UNL     1      -1.094  12.056  20.324  0.00  0.00    +0.000 A 
ATOM      8  H   UNL     1      -1.600  11.983  17.090  0.00  0.00    +0.000 HD
ATOM      9  H   UNL     1      -2.717  12.576  18.232  0.00  0.00    +0.000 HD
ENDROOT
BRANCH   3  10
ATOM     10  C   UNL     1       1.478   9.148  18.773  0.00  0.00    +0.000 A 
ATOM     11  N   UNL     1       2.109   9.125  17.609  0.00  0.00    +0.000 NA
ATOM     12  C   UNL     1       2.851   7.970  17.652  0.00  0.00    +0.000 A 
ATOM     13  C   UNL     1       2.618   7.310  18.831  0.00  0.00    +0.000 A 
ATOM     14  O   UNL     1       1.748   8.054  19.566  0.00  0.00    +0.000 OA
ENDBRANCH   3  10
BRANCH   7  15
ATOM     15  C   UNL     1      -1.921  13.182  20.842  0.00  0.00    +0.000 C 
ATOM     16  O   UNL     1      -1.823  14.302  20.349  0.00  0.00    +0.000 OA
ATOM     17  N   UNL     1      -2.781  12.911  21.896  0.00  0.00    +0.000 N 
ATOM     18  H   UNL     1      -3.030  11.941  22.062  0.00  0.00    +0.000 HD
BRANCH  17  19
ATOM     19  C   UNL     1      -3.627  13.944  22.470  0.00  0.00    +0.000 C 
BRANCH  19  20
ATOM     20  C   UNL     1      -5.078  13.535  22.609  0.00  0.00    +0.000 A 
ATOM     21  C   UNL     1      -5.562  12.844  23.740  0.00  0.00    +0.000 A 
ATOM     22 CL   UNL     1      -4.539  12.383  25.060  0.00  0.00    +0.000 Cl
ATOM     23  C   UNL     1      -6.920  12.508  23.868  0.00  0.00    +0.000 A 
ATOM     24  C   UNL     1      -7.831  12.857  22.878  0.00  0.00    +0.000 A 
ATOM     25  C   UNL     1      -7.388  13.551  21.762  0.00  0.00    +0.000 A 
ATOM     26  C   UNL     1      -6.028  13.898  21.632  0.00  0.00    +0.000 A 
ATOM     27 CL   UNL     1      -5.604  14.810  20.226  0.00  0.00    +0.000 Cl
ENDBRANCH  19  20
ENDBRANCH  17  19
ENDBRANCH   7  15
BRANCH   1  29
ATOM     28  C   UNL     1      -0.651  10.188  23.209  0.00  0.00    +0.000 C 
ATOM     29  O   UNL     1      -0.377  11.396  22.498  0.00  0.00    +0.000 OA
ENDBRANCH   1  29
TORSDOF 5
ENDMDL
