MODEL 1
REMARK VINA RESULT:      -6.2      0.000      0.000
REMARK  Name = 
REMARK  21 active torsions:
REMARK  status: ('A' for Active; 'I' for Inactive)
REMARK    1  A    between atoms: C_1  and  C_2
REMARK    2  A    between atoms: C_2  and  C_3
REMARK    3  A    between atoms: C_3  and  C_4
REMARK    4  A    between atoms: C_4  and  C_5
REMARK    5  A    between atoms: C_5  and  C_6
REMARK    6  A    between atoms: C_6  and  C_7
REMARK    7  A    between atoms: C_7  and  C_8
REMARK    8  A    between atoms: C_8  and  C_9
REMARK    9  A    between atoms: C_9  and  C_10
REMARK   10  A    between atoms: C_10  and  C_11
REMARK   11  A    between atoms: C_11  and  C_12
REMARK   12  A    between atoms: C_12  and  C_13
REMARK   13  A    between atoms: C_13  and  C_14
REMARK   14  A    between atoms: C_14  and  C_15
REMARK   15  A    between atoms: C_15  and  C_16
REMARK   16  A    between atoms: C_16  and  N_17
REMARK   17  A    between atoms: N_17  and  C_18
REMARK   18  A    between atoms: C_21  and  C_22
REMARK   19  A    between atoms: C_22  and  C_23
REMARK   20  A    between atoms: C_23  and  C_24
REMARK   21  A    between atoms: C_24  and  O_26
REMARK                            x       y       z     vdW  Elec       q    Type
REMARK                         _______ _______ _______ _____ _____    ______ ____
ROOT
ATOM      1  C   UNL     1       2.324   4.397  21.183  0.00  0.00    +0.000 C 
ENDROOT
BRANCH   1   2
ATOM      2  C   UNL     1       1.531   5.666  20.934  0.00  0.00    +0.000 C 
BRANCH   2   3
ATOM      3  N   UNL     1       2.412   6.719  20.464  0.00  0.00    +0.000 N 
ATOM      4  H   UNL     1       3.367   6.741  20.799  0.00  0.00    +0.000 HD
BRANCH   3   5
ATOM      5  C   UNL     1       1.892   7.902  19.971  0.00  0.00    +0.000 A 
ATOM      6  C   UNL     1       1.121   8.754  20.766  0.00  0.00    +0.000 A 
ATOM      7  C   UNL     1       0.557   9.911  20.247  0.00  0.00    +0.000 A 
ATOM      8  C   UNL     1       0.798  10.282  18.925  0.00  0.00    +0.000 A 
ATOM      9  C   UNL     1       1.537   9.415  18.110  0.00  0.00    +0.000 A 
ATOM     10  C   UNL     1       2.068   8.232  18.626  0.00  0.00    +0.000 A 
BRANCH   8  11
ATOM     11  C   UNL     1       0.295  11.613  18.420  0.00  0.00    +0.000 C 
BRANCH  11  12
ATOM     12  C   UNL     1      -1.203  11.821  18.670  0.00  0.00    +0.000 C 
BRANCH  12  13
ATOM     13  C   UNL     1      -2.019  11.076  17.649  0.00  0.00    +0.000 C 
ATOM     14  O   UNL     1      -2.682  10.090  17.883  0.00  0.00    +0.000 OA
BRANCH  13  15
ATOM     15  O   UNL     1      -1.937  11.627  16.412  0.00  0.00    +0.000 OA
ATOM     16  H   UNL     1      -1.034  11.780  16.088  0.00  0.00    +0.000 HD
ENDBRANCH  13  15
ENDBRANCH  12  13
ENDBRANCH  11  12
ENDBRANCH   8  11
ENDBRANCH   3   5
ENDBRANCH   2   3
ENDBRANCH   1   2
BRANCH   1  17
ATOM     17  C   UNL     1       1.405   3.188  21.093  0.00  0.00    +0.000 C 
BRANCH  17  18
ATOM     18  C   UNL     1       0.546   3.271  19.845  0.00  0.00    +0.000 C 
BRANCH  18  19
ATOM     19  C   UNL     1       1.015   2.252  18.820  0.00  0.00    +0.000 C 
BRANCH  19  20
ATOM     20  C   UNL     1       2.384   1.721  19.205  0.00  0.00    +0.000 C 
BRANCH  20  21
ATOM     21  C   UNL     1       3.417   2.164  18.187  0.00  0.00    +0.000 C 
BRANCH  21  22
ATOM     22  C   UNL     1       2.750   2.981  17.095  0.00  0.00    +0.000 C 
BRANCH  22  23
ATOM     23  C   UNL     1       3.609   4.184  16.753  0.00  0.00    +0.000 C 
BRANCH  23  24
ATOM     24  C   UNL     1       3.975   4.934  18.019  0.00  0.00    +0.000 C 
BRANCH  24  25
ATOM     25  C   UNL     1       5.463   5.237  18.031  0.00  0.00    +0.000 C 
BRANCH  25  26
ATOM     26  C   UNL     1       6.153   4.489  16.905  0.00  0.00    +0.000 C 
BRANCH  26  27
ATOM     27  C   UNL     1       6.780   5.475  15.933  0.00  0.00    +0.000 C 
BRANCH  27  28
ATOM     28  C   UNL     1       7.083   4.788  14.611  0.00  0.00    +0.000 C 
BRANCH  28  30
ATOM     29  C   UNL     1       6.068   3.546  12.700  0.00  0.00    +0.000 C 
ATOM     30  C   UNL     1       5.883   3.975  14.143  0.00  0.00    +0.000 C 
ENDBRANCH  28  30
ENDBRANCH  27  28
ENDBRANCH  26  27
ENDBRANCH  25  26
ENDBRANCH  24  25
ENDBRANCH  23  24
ENDBRANCH  22  23
ENDBRANCH  21  22
ENDBRANCH  20  21
ENDBRANCH  19  20
ENDBRANCH  18  19
ENDBRANCH  17  18
ENDBRANCH   1  17
TORSDOF 20
ENDMDL
MODEL 2
REMARK VINA RESULT:      -6.0      1.231      2.452
REMARK  Name = 
REMARK  21 active torsions:
REMARK  status: ('A' for Active; 'I' for Inactive)
REMARK    1  A    between atoms: C_1  and  C_2
REMARK    2  A    between atoms: C_2  and  C_3
REMARK    3  A    between atoms: C_3  and  C_4
REMARK    4  A    between atoms: C_4  and  C_5
REMARK    5  A    between atoms: C_5  and  C_6
REMARK    6  A    between atoms: C_6  and  C_7
REMARK    7  A    between atoms: C_7  and  C_8
REMARK    8  A    between atoms: C_8  and  C_9
REMARK    9  A    between atoms: C_9  and  C_10
REMARK   10  A    between atoms: C_10  and  C_11
REMARK   11  A    between atoms: C_11  and  C_12
REMARK   12  A    between atoms: C_12  and  C_13
REMARK   13  A    between atoms: C_13  and  C_14
REMARK   14  A    between atoms: C_14  and  C_15
REMARK   15  A    between atoms: C_15  and  C_16
REMARK   16  A    between atoms: C_16  and  N_17
REMARK   17  A    between atoms: N_17  and  C_18
REMARK   18  A    between atoms: C_21  and  C_22
REMARK   19  A    between atoms: C_22  and  C_23
REMARK   20  A    between atoms: C_23  and  C_24
REMARK   21  A    between atoms: C_24  and  O_26
REMARK                            x       y       z     vdW  Elec       q    Type
REMARK                         _______ _______ _______ _____ _____    ______ ____
ROOT
ATOM      1  C   UNL     1       1.509   5.085  20.607  0.00  0.00    +0.000 C 
ENDROOT
BRANCH   1   2
ATOM      2  C   UNL     1       2.670   5.668  19.825  0.00  0.00    +0.000 C 
BRANCH   2   3
ATOM      3  N   UNL     1       2.849   7.067  20.166  0.00  0.00    +0.000 N 
ATOM      4  H   UNL     1       3.354   7.301  21.011  0.00  0.00    +0.000 HD
BRANCH   3   5
ATOM      5  C   UNL     1       1.995   8.028  19.658  0.00  0.00    +0.000 A 
ATOM      6  C   UNL     1       1.991   8.367  18.303  0.00  0.00    +0.000 A 
ATOM      7  C   UNL     1       1.169   9.372  17.812  0.00  0.00    +0.000 A 
ATOM      8  C   UNL     1       0.278  10.031  18.658  0.00  0.00    +0.000 A 
ATOM      9  C   UNL     1       0.303   9.725  20.024  0.00  0.00    +0.000 A 
ATOM     10  C   UNL     1       1.160   8.742  20.520  0.00  0.00    +0.000 A 
BRANCH   8  11
ATOM     11  C   UNL     1      -0.706  11.020  18.081  0.00  0.00    +0.000 C 
BRANCH  11  12
ATOM     12  C   UNL     1      -1.947  11.211  18.960  0.00  0.00    +0.000 C 
BRANCH  12  13
ATOM     13  C   UNL     1      -3.201  10.969  18.163  0.00  0.00    +0.000 C 
ATOM     14  O   UNL     1      -4.085  11.782  18.007  0.00  0.00    +0.000 OA
BRANCH  13  15
ATOM     15  O   UNL     1      -3.246   9.725  17.625  0.00  0.00    +0.000 OA
ATOM     16  H   UNL     1      -3.685   9.054  18.175  0.00  0.00    +0.000 HD
ENDBRANCH  13  15
ENDBRANCH  12  13
ENDBRANCH  11  12
ENDBRANCH   8  11
ENDBRANCH   3   5
ENDBRANCH   2   3
ENDBRANCH   1   2
BRANCH   1  17
ATOM     17  C   UNL     1       2.005   3.974  21.520  0.00  0.00    +0.000 C 
BRANCH  17  18
ATOM     18  C   UNL     1       1.633   2.617  20.950  0.00  0.00    +0.000 C 
BRANCH  18  19
ATOM     19  C   UNL     1       0.942   2.786  19.607  0.00  0.00    +0.000 C 
BRANCH  19  20
ATOM     20  C   UNL     1       1.720   2.055  18.529  0.00  0.00    +0.000 C 
BRANCH  20  21
ATOM     21  C   UNL     1       2.234   3.044  17.500  0.00  0.00    +0.000 C 
BRANCH  21  22
ATOM     22  C   UNL     1       3.745   2.944  17.396  0.00  0.00    +0.000 C 
BRANCH  22  23
ATOM     23  C   UNL     1       4.293   4.156  16.667  0.00  0.00    +0.000 C 
BRANCH  23  24
ATOM     24  C   UNL     1       5.636   3.822  16.044  0.00  0.00    +0.000 C 
BRANCH  24  25
ATOM     25  C   UNL     1       6.321   5.093  15.575  0.00  0.00    +0.000 C 
BRANCH  25  26
ATOM     26  C   UNL     1       5.438   6.294  15.860  0.00  0.00    +0.000 C 
BRANCH  26  27
ATOM     27  C   UNL     1       5.795   6.894  17.210  0.00  0.00    +0.000 C 
BRANCH  27  28
ATOM     28  C   UNL     1       7.288   7.172  17.282  0.00  0.00    +0.000 C 
BRANCH  28  30
ATOM     29  C   UNL     1       7.052   5.495  19.114  0.00  0.00    +0.000 C 
ATOM     30  C   UNL     1       7.863   6.669  18.598  0.00  0.00    +0.000 C 
ENDBRANCH  28  30
ENDBRANCH  27  28
ENDBRANCH  26  27
ENDBRANCH  25  26
ENDBRANCH  24  25
ENDBRANCH  23  24
ENDBRANCH  22  23
ENDBRANCH  21  22
ENDBRANCH  20  21
ENDBRANCH  19  20
ENDBRANCH  18  19
ENDBRANCH  17  18
ENDBRANCH   1  17
TORSDOF 20
ENDMDL
MODEL 3
REMARK VINA RESULT:      -5.8      3.158      4.622
REMARK  Name = 
REMARK  21 active torsions:
REMARK  status: ('A' for Active; 'I' for Inactive)
REMARK    1  A    between atoms: C_1  and  C_2
REMARK    2  A    between atoms: C_2  and  C_3
REMARK    3  A    between atoms: C_3  and  C_4
REMARK    4  A    between atoms: C_4  and  C_5
REMARK    5  A    between atoms: C_5  and  C_6
REMARK    6  A    between atoms: C_6  and  C_7
REMARK    7  A    between atoms: C_7  and  C_8
REMARK    8  A    between atoms: C_8  and  C_9
REMARK    9  A    between atoms: C_9  and  C_10
REMARK   10  A    between atoms: C_10  and  C_11
REMARK   11  A    between atoms: C_11  and  C_12
REMARK   12  A    between atoms: C_12  and  C_13
REMARK   13  A    between atoms: C_13  and  C_14
REMARK   14  A    between atoms: C_14  and  C_15
REMARK   15  A    between atoms: C_15  and  C_16
REMARK   16  A    between atoms: C_16  and  N_17
REMARK   17  A    between atoms: N_17  and  C_18
REMARK   18  A    between atoms: C_21  and  C_22
REMARK   19  A    between atoms: C_22  and  C_23
REMARK   20  A    between atoms: C_23  and  C_24
REMARK   21  A    between atoms: C_24  and  O_26
REMARK                            x       y       z     vdW  Elec       q    Type
REMARK                         _______ _______ _______ _____ _____    ______ ____
ROOT
ATOM      1  C   UNL     1       2.065   8.935  17.807  0.00  0.00    +0.000 C 
ENDROOT
BRANCH   1   2
ATOM      2  C   UNL     1       0.827   9.580  18.398  0.00  0.00    +0.000 C 
BRANCH   2   3
ATOM      3  N   UNL     1       1.205  10.569  19.390  0.00  0.00    +0.000 N 
ATOM      4  H   UNL     1       2.188  10.722  19.574  0.00  0.00    +0.000 HD
BRANCH   3   5
ATOM      5  C   UNL     1       0.315  10.952  20.376  0.00  0.00    +0.000 A 
ATOM      6  C   UNL     1       0.299  10.338  21.631  0.00  0.00    +0.000 A 
ATOM      7  C   UNL     1      -0.634  10.691  22.596  0.00  0.00    +0.000 A 
ATOM      8  C   UNL     1      -1.549  11.715  22.352  0.00  0.00    +0.000 A 
ATOM      9  C   UNL     1      -1.566  12.308  21.083  0.00  0.00    +0.000 A 
ATOM     10  C   UNL     1      -0.651  11.922  20.103  0.00  0.00    +0.000 A 
BRANCH   8  11
ATOM     11  C   UNL     1      -2.462  12.180  23.461  0.00  0.00    +0.000 C 
BRANCH  11  12
ATOM     12  C   UNL     1      -3.816  12.685  22.949  0.00  0.00    +0.000 C 
BRANCH  12  13
ATOM     13  C   UNL     1      -4.775  12.880  24.092  0.00  0.00    +0.000 C 
ATOM     14  O   UNL     1      -5.174  11.994  24.815  0.00  0.00    +0.000 OA
BRANCH  13  15
ATOM     15  O   UNL     1      -5.157  14.173  24.239  0.00  0.00    +0.000 OA
ATOM     16  H   UNL     1      -5.971  14.306  24.753  0.00  0.00    +0.000 HD
ENDBRANCH  13  15
ENDBRANCH  12  13
ENDBRANCH  11  12
ENDBRANCH   8  11
ENDBRANCH   3   5
ENDBRANCH   2   3
ENDBRANCH   1   2
BRANCH   1  17
ATOM     17  C   UNL     1       2.073   7.447  18.121  0.00  0.00    +0.000 C 
BRANCH  17  18
ATOM     18  C   UNL     1       2.592   7.208  19.528  0.00  0.00    +0.000 C 
BRANCH  18  19
ATOM     19  C   UNL     1       1.642   6.300  20.288  0.00  0.00    +0.000 C 
BRANCH  19  20
ATOM     20  C   UNL     1       2.343   5.004  20.653  0.00  0.00    +0.000 C 
BRANCH  20  21
ATOM     21  C   UNL     1       1.321   3.903  20.866  0.00  0.00    +0.000 C 
BRANCH  21  22
ATOM     22  C   UNL     1       0.776   3.438  19.528  0.00  0.00    +0.000 C 
BRANCH  22  23
ATOM     23  C   UNL     1       1.339   2.070  19.189  0.00  0.00    +0.000 C 
BRANCH  23  24
ATOM     24  C   UNL     1       2.226   2.165  17.963  0.00  0.00    +0.000 C 
BRANCH  24  25
ATOM     25  C   UNL     1       3.673   2.351  18.382  0.00  0.00    +0.000 C 
BRANCH  25  26
ATOM     26  C   UNL     1       4.432   3.108  17.307  0.00  0.00    +0.000 C 
BRANCH  26  27
ATOM     27  C   UNL     1       3.872   4.515  17.169  0.00  0.00    +0.000 C 
BRANCH  27  28
ATOM     28  C   UNL     1       4.993   5.537  17.255  0.00  0.00    +0.000 C 
BRANCH  28  30
ATOM     29  C   UNL     1       5.943   5.274  14.963  0.00  0.00    +0.000 C 
ATOM     30  C   UNL     1       5.210   6.209  15.907  0.00  0.00    +0.000 C 
ENDBRANCH  28  30
ENDBRANCH  27  28
ENDBRANCH  26  27
ENDBRANCH  25  26
ENDBRANCH  24  25
ENDBRANCH  23  24
ENDBRANCH  22  23
ENDBRANCH  21  22
ENDBRANCH  20  21
ENDBRANCH  19  20
ENDBRANCH  18  19
ENDBRANCH  17  18
ENDBRANCH   1  17
TORSDOF 20
ENDMDL
MODEL 4
REMARK VINA RESULT:      -5.8      1.512      2.133
REMARK  Name = 
REMARK  21 active torsions:
REMARK  status: ('A' for Active; 'I' for Inactive)
REMARK    1  A    between atoms: C_1  and  C_2
REMARK    2  A    between atoms: C_2  and  C_3
REMARK    3  A    between atoms: C_3  and  C_4
REMARK    4  A    between atoms: C_4  and  C_5
REMARK    5  A    between atoms: C_5  and  C_6
REMARK    6  A    between atoms: C_6  and  C_7
REMARK    7  A    between atoms: C_7  and  C_8
REMARK    8  A    between atoms: C_8  and  C_9
REMARK    9  A    between atoms: C_9  and  C_10
REMARK   10  A    between atoms: C_10  and  C_11
REMARK   11  A    between atoms: C_11  and  C_12
REMARK   12  A    between atoms: C_12  and  C_13
REMARK   13  A    between atoms: C_13  and  C_14
REMARK   14  A    between atoms: C_14  and  C_15
REMARK   15  A    between atoms: C_15  and  C_16
REMARK   16  A    between atoms: C_16  and  N_17
REMARK   17  A    between atoms: N_17  and  C_18
REMARK   18  A    between atoms: C_21  and  C_22
REMARK   19  A    between atoms: C_22  and  C_23
REMARK   20  A    between atoms: C_23  and  C_24
REMARK   21  A    between atoms: C_24  and  O_26
REMARK                            x       y       z     vdW  Elec       q    Type
REMARK                         _______ _______ _______ _____ _____    ______ ____
ROOT
ATOM      1  C   UNL     1       1.360   5.066  20.826  0.00  0.00    +0.000 C 
ENDROOT
BRANCH   1   2
ATOM      2  C   UNL     1       1.985   5.773  19.639  0.00  0.00    +0.000 C 
BRANCH   2   3
ATOM      3  N   UNL     1       2.511   7.063  20.047  0.00  0.00    +0.000 N 
ATOM      4  H   UNL     1       3.201   7.095  20.786  0.00  0.00    +0.000 HD
BRANCH   3   5
ATOM      5  C   UNL     1       1.797   8.221  19.804  0.00  0.00    +0.000 A 
ATOM      6  C   UNL     1       1.843   8.868  18.567  0.00  0.00    +0.000 A 
ATOM      7  C   UNL     1       1.166  10.061  18.350  0.00  0.00    +0.000 A 
ATOM      8  C   UNL     1       0.372  10.614  19.353  0.00  0.00    +0.000 A 
ATOM      9  C   UNL     1       0.351   9.993  20.609  0.00  0.00    +0.000 A 
ATOM     10  C   UNL     1       1.065   8.816  20.834  0.00  0.00    +0.000 A 
BRANCH   8  11
ATOM     11  C   UNL     1      -0.467  11.833  19.054  0.00  0.00    +0.000 C 
BRANCH  11  12
ATOM     12  C   UNL     1      -1.959  11.617  19.335  0.00  0.00    +0.000 C 
BRANCH  12  13
ATOM     13  C   UNL     1      -2.415  12.491  20.472  0.00  0.00    +0.000 C 
ATOM     14  O   UNL     1      -2.334  12.195  21.643  0.00  0.00    +0.000 OA
BRANCH  13  15
ATOM     15  O   UNL     1      -2.938  13.669  20.047  0.00  0.00    +0.000 OA
ATOM     16  H   UNL     1      -3.853  13.838  20.329  0.00  0.00    +0.000 HD
ENDBRANCH  13  15
ENDBRANCH  12  13
ENDBRANCH  11  12
ENDBRANCH   8  11
ENDBRANCH   3   5
ENDBRANCH   2   3
ENDBRANCH   1   2
BRANCH   1  17
ATOM     17  C   UNL     1       0.908   3.672  20.417  0.00  0.00    +0.000 C 
BRANCH  17  18
ATOM     18  C   UNL     1       1.710   2.619  21.160  0.00  0.00    +0.000 C 
BRANCH  18  19
ATOM     19  C   UNL     1       3.034   2.378  20.455  0.00  0.00    +0.000 C 
BRANCH  19  20
ATOM     20  C   UNL     1       2.815   2.292  18.956  0.00  0.00    +0.000 C 
BRANCH  20  21
ATOM     21  C   UNL     1       3.988   2.918  18.224  0.00  0.00    +0.000 C 
BRANCH  21  22
ATOM     22  C   UNL     1       4.852   3.694  19.202  0.00  0.00    +0.000 C 
BRANCH  22  23
ATOM     23  C   UNL     1       5.306   4.995  18.568  0.00  0.00    +0.000 C 
BRANCH  23  24
ATOM     24  C   UNL     1       6.813   4.985  18.388  0.00  0.00    +0.000 C 
BRANCH  24  25
ATOM     25  C   UNL     1       7.165   4.522  16.986  0.00  0.00    +0.000 C 
BRANCH  25  26
ATOM     26  C   UNL     1       6.917   5.643  15.993  0.00  0.00    +0.000 C 
BRANCH  26  27
ATOM     27  C   UNL     1       5.633   5.381  15.223  0.00  0.00    +0.000 C 
BRANCH  27  28
ATOM     28  C   UNL     1       5.696   4.023  14.542  0.00  0.00    +0.000 C 
BRANCH  28  30
ATOM     29  C   UNL     1       5.963   3.151  12.220  0.00  0.00    +0.000 C 
ATOM     30  C   UNL     1       6.518   4.103  13.263  0.00  0.00    +0.000 C 
ENDBRANCH  28  30
ENDBRANCH  27  28
ENDBRANCH  26  27
ENDBRANCH  25  26
ENDBRANCH  24  25
ENDBRANCH  23  24
ENDBRANCH  22  23
ENDBRANCH  21  22
ENDBRANCH  20  21
ENDBRANCH  19  20
ENDBRANCH  18  19
ENDBRANCH  17  18
ENDBRANCH   1  17
TORSDOF 20
ENDMDL
MODEL 5
REMARK VINA RESULT:      -5.7      6.944     10.087
REMARK  Name = 
REMARK  21 active torsions:
REMARK  status: ('A' for Active; 'I' for Inactive)
REMARK    1  A    between atoms: C_1  and  C_2
REMARK    2  A    between atoms: C_2  and  C_3
REMARK    3  A    between atoms: C_3  and  C_4
REMARK    4  A    between atoms: C_4  and  C_5
REMARK    5  A    between atoms: C_5  and  C_6
REMARK    6  A    between atoms: C_6  and  C_7
REMARK    7  A    between atoms: C_7  and  C_8
REMARK    8  A    between atoms: C_8  and  C_9
REMARK    9  A    between atoms: C_9  and  C_10
REMARK   10  A    between atoms: C_10  and  C_11
REMARK   11  A    between atoms: C_11  and  C_12
REMARK   12  A    between atoms: C_12  and  C_13
REMARK   13  A    between atoms: C_13  and  C_14
REMARK   14  A    between atoms: C_14  and  C_15
REMARK   15  A    between atoms: C_15  and  C_16
REMARK   16  A    between atoms: C_16  and  N_17
REMARK   17  A    between atoms: N_17  and  C_18
REMARK   18  A    between atoms: C_21  and  C_22
REMARK   19  A    between atoms: C_22  and  C_23
REMARK   20  A    between atoms: C_23  and  C_24
REMARK   21  A    between atoms: C_24  and  O_26
REMARK                            x       y       z     vdW  Elec       q    Type
REMARK                         _______ _______ _______ _____ _____    ______ ____
ROOT
ATOM      1  C   UNL     1       8.330   7.352  18.455  0.00  0.00    +0.000 C 
ENDROOT
BRANCH   1   2
ATOM      2  C   UNL     1       7.319   6.242  18.675  0.00  0.00    +0.000 C 
BRANCH   2   3
ATOM      3  N   UNL     1       6.500   6.071  17.489  0.00  0.00    +0.000 N 
ATOM      4  H   UNL     1       6.683   6.655  16.683  0.00  0.00    +0.000 HD
BRANCH   3   5
ATOM      5  C   UNL     1       5.243   5.502  17.580  0.00  0.00    +0.000 A 
ATOM      6  C   UNL     1       4.925   4.314  16.917  0.00  0.00    +0.000 A 
ATOM      7  C   UNL     1       3.645   3.779  16.969  0.00  0.00    +0.000 A 
ATOM      8  C   UNL     1       2.655   4.390  17.737  0.00  0.00    +0.000 A 
ATOM      9  C   UNL     1       2.955   5.602  18.373  0.00  0.00    +0.000 A 
ATOM     10  C   UNL     1       4.232   6.156  18.285  0.00  0.00    +0.000 A 
BRANCH   8  11
ATOM     11  C   UNL     1       1.312   3.719  17.895  0.00  0.00    +0.000 C 
BRANCH  11  12
ATOM     12  C   UNL     1       1.395   2.381  18.638  0.00  0.00    +0.000 C 
BRANCH  12  13
ATOM     13  C   UNL     1       1.713   2.602  20.093  0.00  0.00    +0.000 C 
ATOM     14  O   UNL     1       2.805   2.441  20.591  0.00  0.00    +0.000 OA
BRANCH  13  15
ATOM     15  O   UNL     1       0.634   3.009  20.807  0.00  0.00    +0.000 OA
ATOM     16  H   UNL     1       0.328   3.911  20.613  0.00  0.00    +0.000 HD
ENDBRANCH  13  15
ENDBRANCH  12  13
ENDBRANCH  11  12
ENDBRANCH   8  11
ENDBRANCH   3   5
ENDBRANCH   2   3
ENDBRANCH   1   2
BRANCH   1  17
ATOM     17  C   UNL     1       7.746   8.404  17.525  0.00  0.00    +0.000 C 
BRANCH  17  18
ATOM     18  C   UNL     1       8.288   9.778  17.878  0.00  0.00    +0.000 C 
BRANCH  18  19
ATOM     19  C   UNL     1       8.989   9.732  19.225  0.00  0.00    +0.000 C 
BRANCH  19  20
ATOM     20  C   UNL     1       9.976  10.880  19.335  0.00  0.00    +0.000 C 
BRANCH  20  21
ATOM     21  C   UNL     1      10.264  11.448  17.959  0.00  0.00    +0.000 C 
BRANCH  21  22
ATOM     22  C   UNL     1      11.543  12.266  17.994  0.00  0.00    +0.000 C 
BRANCH  22  23
ATOM     23  C   UNL     1      11.218  13.720  18.280  0.00  0.00    +0.000 C 
BRANCH  23  24
ATOM     24  C   UNL     1       9.889  14.086  17.647  0.00  0.00    +0.000 C 
BRANCH  24  25
ATOM     25  C   UNL     1       9.042  14.869  18.635  0.00  0.00    +0.000 C 
BRANCH  25  26
ATOM     26  C   UNL     1       8.359  16.026  17.929  0.00  0.00    +0.000 C 
BRANCH  26  27
ATOM     27  C   UNL     1       8.291  17.232  18.852  0.00  0.00    +0.000 C 
BRANCH  27  28
ATOM     28  C   UNL     1       9.657  17.892  18.954  0.00  0.00    +0.000 C 
BRANCH  28  30
ATOM     29  C   UNL     1      11.694  17.611  17.542  0.00  0.00    +0.000 C 
ATOM     30  C   UNL     1      10.258  18.096  17.570  0.00  0.00    +0.000 C 
ENDBRANCH  28  30
ENDBRANCH  27  28
ENDBRANCH  26  27
ENDBRANCH  25  26
ENDBRANCH  24  25
ENDBRANCH  23  24
ENDBRANCH  22  23
ENDBRANCH  21  22
ENDBRANCH  20  21
ENDBRANCH  19  20
ENDBRANCH  18  19
ENDBRANCH  17  18
ENDBRANCH   1  17
TORSDOF 20
ENDMDL
MODEL 6
REMARK VINA RESULT:      -5.7      3.468      7.876
REMARK  Name = 
REMARK  21 active torsions:
REMARK  status: ('A' for Active; 'I' for Inactive)
REMARK    1  A    between atoms: C_1  and  C_2
REMARK    2  A    between atoms: C_2  and  C_3
REMARK    3  A    between atoms: C_3  and  C_4
REMARK    4  A    between atoms: C_4  and  C_5
REMARK    5  A    between atoms: C_5  and  C_6
REMARK    6  A    between atoms: C_6  and  C_7
REMARK    7  A    between atoms: C_7  and  C_8
REMARK    8  A    between atoms: C_8  and  C_9
REMARK    9  A    between atoms: C_9  and  C_10
REMARK   10  A    between atoms: C_10  and  C_11
REMARK   11  A    between atoms: C_11  and  C_12
REMARK   12  A    between atoms: C_12  and  C_13
REMARK   13  A    between atoms: C_13  and  C_14
REMARK   14  A    between atoms: C_14  and  C_15
REMARK   15  A    between atoms: C_15  and  C_16
REMARK   16  A    between atoms: C_16  and  N_17
REMARK   17  A    between atoms: N_17  and  C_18
REMARK   18  A    between atoms: C_21  and  C_22
REMARK   19  A    between atoms: C_22  and  C_23
REMARK   20  A    between atoms: C_23  and  C_24
REMARK   21  A    between atoms: C_24  and  O_26
REMARK                            x       y       z     vdW  Elec       q    Type
REMARK                         _______ _______ _______ _____ _____    ______ ____
ROOT
ATOM      1  C   UNL     1       1.307   3.310  18.839  0.00  0.00    +0.000 C 
ENDROOT
BRANCH   1   2
ATOM      2  C   UNL     1       2.678   2.801  18.437  0.00  0.00    +0.000 C 
BRANCH   2   3
ATOM      3  N   UNL     1       3.216   3.615  17.362  0.00  0.00    +0.000 N 
ATOM      4  H   UNL     1       3.010   3.355  16.406  0.00  0.00    +0.000 HD
BRANCH   3   5
ATOM      5  C   UNL     1       4.327   4.409  17.571  0.00  0.00    +0.000 A 
ATOM      6  C   UNL     1       4.898   4.557  18.838  0.00  0.00    +0.000 A 
ATOM      7  C   UNL     1       5.981   5.401  19.048  0.00  0.00    +0.000 A 
ATOM      8  C   UNL     1       6.563   6.081  17.980  0.00  0.00    +0.000 A 
ATOM      9  C   UNL     1       5.973   5.969  16.714  0.00  0.00    +0.000 A 
ATOM     10  C   UNL     1       4.861   5.151  16.515  0.00  0.00    +0.000 A 
BRANCH   8  11
ATOM     11  C   UNL     1       7.824   6.881  18.203  0.00  0.00    +0.000 C 
BRANCH  11  12
ATOM     12  C   UNL     1       7.858   8.182  17.392  0.00  0.00    +0.000 C 
BRANCH  12  13
ATOM     13  C   UNL     1       8.395   9.312  18.227  0.00  0.00    +0.000 C 
ATOM     14  O   UNL     1       9.128   9.176  19.182  0.00  0.00    +0.000 OA
BRANCH  13  15
ATOM     15  O   UNL     1       7.967  10.527  17.799  0.00  0.00    +0.000 OA
ATOM     16  H   UNL     1       8.570  10.983  17.188  0.00  0.00    +0.000 HD
ENDBRANCH  13  15
ENDBRANCH  12  13
ENDBRANCH  11  12
ENDBRANCH   8  11
ENDBRANCH   3   5
ENDBRANCH   2   3
ENDBRANCH   1   2
BRANCH   1  17
ATOM     17  C   UNL     1       1.148   3.228  20.349  0.00  0.00    +0.000 C 
BRANCH  17  18
ATOM     18  C   UNL     1       2.035   4.254  21.030  0.00  0.00    +0.000 C 
BRANCH  18  19
ATOM     19  C   UNL     1       1.959   5.580  20.293  0.00  0.00    +0.000 C 
BRANCH  19  20
ATOM     20  C   UNL     1       1.111   6.563  21.080  0.00  0.00    +0.000 C 
BRANCH  20  21
ATOM     21  C   UNL     1       1.505   7.985  20.727  0.00  0.00    +0.000 C 
BRANCH  21  22
ATOM     22  C   UNL     1       1.082   8.930  21.838  0.00  0.00    +0.000 C 
BRANCH  22  23
ATOM     23  C   UNL     1       0.773  10.299  21.261  0.00  0.00    +0.000 C 
BRANCH  23  24
ATOM     24  C   UNL     1       0.694  10.216  19.748  0.00  0.00    +0.000 C 
BRANCH  24  25
ATOM     25  C   UNL     1      -0.334  11.205  19.228  0.00  0.00    +0.000 C 
BRANCH  25  26
ATOM     26  C   UNL     1      -1.430  10.468  18.479  0.00  0.00    +0.000 C 
BRANCH  26  27
ATOM     27  C   UNL     1      -2.345  11.462  17.784  0.00  0.00    +0.000 C 
BRANCH  27  28
ATOM     28  C   UNL     1      -3.472  10.730  17.074  0.00  0.00    +0.000 C 
BRANCH  28  30
ATOM     29  C   UNL     1      -2.949  10.165  14.701  0.00  0.00    +0.000 C 
ATOM     30  C   UNL     1      -2.914   9.670  16.134  0.00  0.00    +0.000 C 
ENDBRANCH  28  30
ENDBRANCH  27  28
ENDBRANCH  26  27
ENDBRANCH  25  26
ENDBRANCH  24  25
ENDBRANCH  23  24
ENDBRANCH  22  23
ENDBRANCH  21  22
ENDBRANCH  20  21
ENDBRANCH  19  20
ENDBRANCH  18  19
ENDBRANCH  17  18
ENDBRANCH   1  17
TORSDOF 20
ENDMDL
MODEL 7
REMARK VINA RESULT:      -5.7      3.828      8.387
REMARK  Name = 
REMARK  21 active torsions:
REMARK  status: ('A' for Active; 'I' for Inactive)
REMARK    1  A    between atoms: C_1  and  C_2
REMARK    2  A    between atoms: C_2  and  C_3
REMARK    3  A    between atoms: C_3  and  C_4
REMARK    4  A    between atoms: C_4  and  C_5
REMARK    5  A    between atoms: C_5  and  C_6
REMARK    6  A    between atoms: C_6  and  C_7
REMARK    7  A    between atoms: C_7  and  C_8
REMARK    8  A    between atoms: C_8  and  C_9
REMARK    9  A    between atoms: C_9  and  C_10
REMARK   10  A    between atoms: C_10  and  C_11
REMARK   11  A    between atoms: C_11  and  C_12
REMARK   12  A    between atoms: C_12  and  C_13
REMARK   13  A    between atoms: C_13  and  C_14
REMARK   14  A    between atoms: C_14  and  C_15
REMARK   15  A    between atoms: C_15  and  C_16
REMARK   16  A    between atoms: C_16  and  N_17
REMARK   17  A    between atoms: N_17  and  C_18
REMARK   18  A    between atoms: C_21  and  C_22
REMARK   19  A    between atoms: C_22  and  C_23
REMARK   20  A    between atoms: C_23  and  C_24
REMARK   21  A    between atoms: C_24  and  O_26
REMARK                            x       y       z     vdW  Elec       q    Type
REMARK                         _______ _______ _______ _____ _____    ______ ____
ROOT
ATOM      1  C   UNL     1       1.019   4.170  20.183  0.00  0.00    +0.000 C 
ENDROOT
BRANCH   1   2
ATOM      2  C   UNL     1       1.242   2.703  20.499  0.00  0.00    +0.000 C 
BRANCH   2   3
ATOM      3  N   UNL     1       2.110   2.105  19.501  0.00  0.00    +0.000 N 
ATOM      4  H   UNL     1       2.302   1.113  19.556  0.00  0.00    +0.000 HD
BRANCH   3   5
ATOM      5  C   UNL     1       3.011   2.882  18.798  0.00  0.00    +0.000 A 
ATOM      6  C   UNL     1       2.826   3.182  17.446  0.00  0.00    +0.000 A 
ATOM      7  C   UNL     1       3.765   3.916  16.734  0.00  0.00    +0.000 A 
ATOM      8  C   UNL     1       4.896   4.424  17.373  0.00  0.00    +0.000 A 
ATOM      9  C   UNL     1       5.109   4.094  18.717  0.00  0.00    +0.000 A 
ATOM     10  C   UNL     1       4.182   3.322  19.418  0.00  0.00    +0.000 A 
BRANCH   8  11
ATOM     11  C   UNL     1       5.832   5.337  16.619  0.00  0.00    +0.000 C 
BRANCH  11  12
ATOM     12  C   UNL     1       5.552   5.370  15.112  0.00  0.00    +0.000 C 
BRANCH  12  13
ATOM     13  C   UNL     1       6.703   4.776  14.346  0.00  0.00    +0.000 C 
ATOM     14  O   UNL     1       7.814   5.255  14.292  0.00  0.00    +0.000 OA
BRANCH  13  15
ATOM     15  O   UNL     1       6.369   3.627  13.708  0.00  0.00    +0.000 OA
ATOM     16  H   UNL     1       5.868   3.745  12.883  0.00  0.00    +0.000 HD
ENDBRANCH  13  15
ENDBRANCH  12  13
ENDBRANCH  11  12
ENDBRANCH   8  11
ENDBRANCH   3   5
ENDBRANCH   2   3
ENDBRANCH   1   2
BRANCH   1  17
ATOM     17  C   UNL     1       1.748   5.034  21.200  0.00  0.00    +0.000 C 
BRANCH  17  18
ATOM     18  C   UNL     1       2.184   6.342  20.565  0.00  0.00    +0.000 C 
BRANCH  18  19
ATOM     19  C   UNL     1       1.946   6.299  19.065  0.00  0.00    +0.000 C 
BRANCH  19  20
ATOM     20  C   UNL     1       2.792   7.354  18.375  0.00  0.00    +0.000 C 
BRANCH  20  21
ATOM     21  C   UNL     1       1.913   8.241  17.514  0.00  0.00    +0.000 C 
BRANCH  21  22
ATOM     22  C   UNL     1       1.901   9.653  18.071  0.00  0.00    +0.000 C 
BRANCH  22  23
ATOM     23  C   UNL     1       0.767   9.804  19.068  0.00  0.00    +0.000 C 
BRANCH  23  24
ATOM     24  C   UNL     1       0.811  11.185  19.695  0.00  0.00    +0.000 C 
BRANCH  24  25
ATOM     25  C   UNL     1       0.094  12.183  18.803  0.00  0.00    +0.000 C 
BRANCH  25  26
ATOM     26  C   UNL     1       1.015  13.347  18.484  0.00  0.00    +0.000 C 
BRANCH  26  27
ATOM     27  C   UNL     1       0.373  14.653  18.922  0.00  0.00    +0.000 C 
BRANCH  27  28
ATOM     28  C   UNL     1       1.420  15.752  18.998  0.00  0.00    +0.000 C 
BRANCH  28  30
ATOM     29  C   UNL     1       3.231  16.465  17.437  0.00  0.00    +0.000 C 
ATOM     30  C   UNL     1       2.696  15.327  18.285  0.00  0.00    +0.000 C 
ENDBRANCH  28  30
ENDBRANCH  27  28
ENDBRANCH  26  27
ENDBRANCH  25  26
ENDBRANCH  24  25
ENDBRANCH  23  24
ENDBRANCH  22  23
ENDBRANCH  21  22
ENDBRANCH  20  21
ENDBRANCH  19  20
ENDBRANCH  18  19
ENDBRANCH  17  18
ENDBRANCH   1  17
TORSDOF 20
ENDMDL
MODEL 8
REMARK VINA RESULT:      -5.6      3.352      4.942
REMARK  Name = 
REMARK  21 active torsions:
REMARK  status: ('A' for Active; 'I' for Inactive)
REMARK    1  A    between atoms: C_1  and  C_2
REMARK    2  A    between atoms: C_2  and  C_3
REMARK    3  A    between atoms: C_3  and  C_4
REMARK    4  A    between atoms: C_4  and  C_5
REMARK    5  A    between atoms: C_5  and  C_6
REMARK    6  A    between atoms: C_6  and  C_7
REMARK    7  A    between atoms: C_7  and  C_8
REMARK    8  A    between atoms: C_8  and  C_9
REMARK    9  A    between atoms: C_9  and  C_10
REMARK   10  A    between atoms: C_10  and  C_11
REMARK   11  A    between atoms: C_11  and  C_12
REMARK   12  A    between atoms: C_12  and  C_13
REMARK   13  A    between atoms: C_13  and  C_14
REMARK   14  A    between atoms: C_14  and  C_15
REMARK   15  A    between atoms: C_15  and  C_16
REMARK   16  A    between atoms: C_16  and  N_17
REMARK   17  A    between atoms: N_17  and  C_18
REMARK   18  A    between atoms: C_21  and  C_22
REMARK   19  A    between atoms: C_22  and  C_23
REMARK   20  A    between atoms: C_23  and  C_24
REMARK   21  A    between atoms: C_24  and  O_26
REMARK                            x       y       z     vdW  Elec       q    Type
REMARK                         _______ _______ _______ _____ _____    ______ ____
ROOT
ATOM      1  C   UNL     1       1.767   9.628  17.967  0.00  0.00    +0.000 C 
ENDROOT
BRANCH   1   2
ATOM      2  C   UNL     1       0.635   9.737  18.970  0.00  0.00    +0.000 C 
BRANCH   2   3
ATOM      3  N   UNL     1       1.008  10.636  20.047  0.00  0.00    +0.000 N 
ATOM      4  H   UNL     1       1.967  10.636  20.371  0.00  0.00    +0.000 HD
BRANCH   3   5
ATOM      5  C   UNL     1       0.051  11.123  20.919  0.00  0.00    +0.000 A 
ATOM      6  C   UNL     1      -0.606  12.333  20.687  0.00  0.00    +0.000 A 
ATOM      7  C   UNL     1      -1.525  12.842  21.595  0.00  0.00    +0.000 A 
ATOM      8  C   UNL     1      -1.857  12.121  22.741  0.00  0.00    +0.000 A 
ATOM      9  C   UNL     1      -1.174  10.926  23.001  0.00  0.00    +0.000 A 
ATOM     10  C   UNL     1      -0.222  10.439  22.105  0.00  0.00    +0.000 A 
BRANCH   8  11
ATOM     11  C   UNL     1      -2.959  12.620  23.644  0.00  0.00    +0.000 C 
BRANCH  11  12
ATOM     12  C   UNL     1      -4.257  12.929  22.890  0.00  0.00    +0.000 C 
BRANCH  12  13
ATOM     13  C   UNL     1      -5.417  13.016  23.846  0.00  0.00    +0.000 C 
ATOM     14  O   UNL     1      -6.129  12.086  24.151  0.00  0.00    +0.000 OA
BRANCH  13  15
ATOM     15  O   UNL     1      -5.590  14.267  24.343  0.00  0.00    +0.000 OA
ATOM     16  H   UNL     1      -5.647  14.320  25.312  0.00  0.00    +0.000 HD
ENDBRANCH  13  15
ENDBRANCH  12  13
ENDBRANCH  11  12
ENDBRANCH   8  11
ENDBRANCH   3   5
ENDBRANCH   2   3
ENDBRANCH   1   2
BRANCH   1  17
ATOM     17  C   UNL     1       2.274   8.195  17.915  0.00  0.00    +0.000 C 
BRANCH  17  18
ATOM     18  C   UNL     1       2.271   7.584  19.304  0.00  0.00    +0.000 C 
BRANCH  18  19
ATOM     19  C   UNL     1       1.888   6.116  19.228  0.00  0.00    +0.000 C 
BRANCH  19  20
ATOM     20  C   UNL     1       1.804   5.529  20.626  0.00  0.00    +0.000 C 
BRANCH  20  21
ATOM     21  C   UNL     1       1.893   4.016  20.558  0.00  0.00    +0.000 C 
BRANCH  21  22
ATOM     22  C   UNL     1       1.519   3.537  19.167  0.00  0.00    +0.000 C 
BRANCH  22  23
ATOM     23  C   UNL     1       2.057   2.136  18.941  0.00  0.00    +0.000 C 
BRANCH  23  24
ATOM     24  C   UNL     1       3.118   2.158  17.858  0.00  0.00    +0.000 C 
BRANCH  24  25
ATOM     25  C   UNL     1       4.153   3.226  18.166  0.00  0.00    +0.000 C 
BRANCH  25  26
ATOM     26  C   UNL     1       4.714   3.792  16.874  0.00  0.00    +0.000 C 
BRANCH  26  27
ATOM     27  C   UNL     1       4.604   5.308  16.879  0.00  0.00    +0.000 C 
BRANCH  27  28
ATOM     28  C   UNL     1       5.415   5.889  18.025  0.00  0.00    +0.000 C 
BRANCH  28  30
ATOM     29  C   UNL     1       7.721   5.769  18.969  0.00  0.00    +0.000 C 
ATOM     30  C   UNL     1       6.901   5.865  17.696  0.00  0.00    +0.000 C 
ENDBRANCH  28  30
ENDBRANCH  27  28
ENDBRANCH  26  27
ENDBRANCH  25  26
ENDBRANCH  24  25
ENDBRANCH  23  24
ENDBRANCH  22  23
ENDBRANCH  21  22
ENDBRANCH  20  21
ENDBRANCH  19  20
ENDBRANCH  18  19
ENDBRANCH  17  18
ENDBRANCH   1  17
TORSDOF 20
ENDMDL
MODEL 9
REMARK VINA RESULT:      -5.6      3.757      8.244
REMARK  Name = 
REMARK  21 active torsions:
REMARK  status: ('A' for Active; 'I' for Inactive)
REMARK    1  A    between atoms: C_1  and  C_2
REMARK    2  A    between atoms: C_2  and  C_3
REMARK    3  A    between atoms: C_3  and  C_4
REMARK    4  A    between atoms: C_4  and  C_5
REMARK    5  A    between atoms: C_5  and  C_6
REMARK    6  A    between atoms: C_6  and  C_7
REMARK    7  A    between atoms: C_7  and  C_8
REMARK    8  A    between atoms: C_8  and  C_9
REMARK    9  A    between atoms: C_9  and  C_10
REMARK   10  A    between atoms: C_10  and  C_11
REMARK   11  A    between atoms: C_11  and  C_12
REMARK   12  A    between atoms: C_12  and  C_13
REMARK   13  A    between atoms: C_13  and  C_14
REMARK   14  A    between atoms: C_14  and  C_15
REMARK   15  A    between atoms: C_15  and  C_16
REMARK   16  A    between atoms: C_16  and  N_17
REMARK   17  A    between atoms: N_17  and  C_18
REMARK   18  A    between atoms: C_21  and  C_22
REMARK   19  A    between atoms: C_22  and  C_23
REMARK   20  A    between atoms: C_23  and  C_24
REMARK   21  A    between atoms: C_24  and  O_26
REMARK                            x       y       z     vdW  Elec       q    Type
REMARK                         _______ _______ _______ _____ _____    ______ ____
ROOT
ATOM      1  C   UNL     1       3.151   2.429  20.653  0.00  0.00    +0.000 C 
ENDROOT
BRANCH   1   2
ATOM      2  C   UNL     1       4.542   2.359  20.052  0.00  0.00    +0.000 C 
BRANCH   2   3
ATOM      3  N   UNL     1       4.958   3.674  19.601  0.00  0.00    +0.000 N 
ATOM      4  H   UNL     1       4.653   4.486  20.122  0.00  0.00    +0.000 HD
BRANCH   3   5
ATOM      5  C   UNL     1       5.340   3.878  18.288  0.00  0.00    +0.000 A 
ATOM      6  C   UNL     1       6.616   4.342  17.958  0.00  0.00    +0.000 A 
ATOM      7  C   UNL     1       6.973   4.596  16.640  0.00  0.00    +0.000 A 
ATOM      8  C   UNL     1       6.077   4.337  15.604  0.00  0.00    +0.000 A 
ATOM      9  C   UNL     1       4.783   3.910  15.929  0.00  0.00    +0.000 A 
ATOM     10  C   UNL     1       4.416   3.694  17.258  0.00  0.00    +0.000 A 
BRANCH   8  11
ATOM     11  C   UNL     1       6.530   4.486  14.171  0.00  0.00    +0.000 C 
BRANCH  11  12
ATOM     12  C   UNL     1       5.475   4.022  13.160  0.00  0.00    +0.000 C 
BRANCH  12  13
ATOM     13  C   UNL     1       6.107   3.176  12.087  0.00  0.00    +0.000 C 
ATOM     14  O   UNL     1       5.613   2.175  11.619  0.00  0.00    +0.000 OA
BRANCH  13  15
ATOM     15  O   UNL     1       7.312   3.655  11.686  0.00  0.00    +0.000 OA
ATOM     16  H   UNL     1       7.591   4.480  12.118  0.00  0.00    +0.000 HD
ENDBRANCH  13  15
ENDBRANCH  12  13
ENDBRANCH  11  12
ENDBRANCH   8  11
ENDBRANCH   3   5
ENDBRANCH   2   3
ENDBRANCH   1   2
BRANCH   1  17
ATOM     17  C   UNL     1       2.108   2.220  19.567  0.00  0.00    +0.000 C 
BRANCH  17  18
ATOM     18  C   UNL     1       1.171   3.413  19.499  0.00  0.00    +0.000 C 
BRANCH  18  19
ATOM     19  C   UNL     1       1.381   4.311  20.706  0.00  0.00    +0.000 C 
BRANCH  19  20
ATOM     20  C   UNL     1       1.264   5.768  20.296  0.00  0.00    +0.000 C 
BRANCH  20  21
ATOM     21  C   UNL     1       2.636   6.416  20.291  0.00  0.00    +0.000 C 
BRANCH  21  22
ATOM     22  C   UNL     1       3.076   6.684  18.863  0.00  0.00    +0.000 C 
BRANCH  22  23
ATOM     23  C   UNL     1       1.931   7.296  18.077  0.00  0.00    +0.000 C 
BRANCH  23  24
ATOM     24  C   UNL     1       2.091   8.803  18.019  0.00  0.00    +0.000 C 
BRANCH  24  25
ATOM     25  C   UNL     1       1.157   9.463  19.018  0.00  0.00    +0.000 C 
BRANCH  25  26
ATOM     26  C   UNL     1       0.426  10.618  18.359  0.00  0.00    +0.000 C 
BRANCH  26  27
ATOM     27  C   UNL     1      -1.047  10.279  18.202  0.00  0.00    +0.000 C 
BRANCH  27  28
ATOM     28  C   UNL     1      -1.885  11.547  18.243  0.00  0.00    +0.000 C 
BRANCH  28  30
ATOM     29  C   UNL     1      -1.681  13.290  20.017  0.00  0.00    +0.000 C 
ATOM     30  C   UNL     1      -1.059  12.718  18.756  0.00  0.00    +0.000 C 
ENDBRANCH  28  30
ENDBRANCH  27  28
ENDBRANCH  26  27
ENDBRANCH  25  26
ENDBRANCH  24  25
ENDBRANCH  23  24
ENDBRANCH  22  23
ENDBRANCH  21  22
ENDBRANCH  20  21
ENDBRANCH  19  20
ENDBRANCH  18  19
ENDBRANCH  17  18
ENDBRANCH   1  17
TORSDOF 20
ENDMDL
