MODEL 1
REMARK VINA RESULT:      -7.4      0.000      0.000
REMARK  Name = 
REMARK  7 active torsions:
REMARK  status: ('A' for Active; 'I' for Inactive)
REMARK    1  A    between atoms: O_1  and  C_2
REMARK    2  A    between atoms: C_5  and  C_6
REMARK    3  A    between atoms: C_6  and  N_7
REMARK    4  A    between atoms: N_7  and  C_8
REMARK    5  A    between atoms: C_11  and  O_12
REMARK    6  A    between atoms: C_13  and  O_14
REMARK    7  A    between atoms: C_15  and  O_16
REMARK                            x       y       z     vdW  Elec       q    Type
REMARK                         _______ _______ _______ _____ _____    ______ ____
ROOT
ATOM      1  C   UNL     1       3.849   3.901  18.260  0.00  0.00    +0.000 C 
ATOM      2  C   UNL     1       2.457   3.972  17.706  0.00  0.00    +0.000 C 
ATOM      3  C   UNL     1       1.376   3.430  18.265  0.00  0.00    +0.000 C 
ATOM      4  C   UNL     1       1.377   2.649  19.526  0.00  0.00    +0.000 C 
ATOM      5  C   UNL     1       2.679   2.679  20.358  0.00  0.00    +0.000 C 
ATOM      6  C   UNL     1       3.961   3.244  19.683  0.00  0.00    +0.000 C 
ENDROOT
BRANCH   1   7
ATOM      7  N   UNL     1       4.765   3.197  17.342  0.00  0.00    +0.000 NA
ATOM      8  H   UNL     1       5.502   2.779  17.915  0.00  0.00    +0.000 HD
BRANCH   7   9
ATOM      9  C   UNL     1       5.440   4.054  16.363  0.00  0.00    +0.000 C 
BRANCH   9  13
ATOM     10  C   UNL     1       7.910   6.949  18.377  0.00  0.00    +0.000 A 
ATOM     11  C   UNL     1       7.963   5.619  18.761  0.00  0.00    +0.000 A 
ATOM     12  C   UNL     1       7.156   4.685  18.106  0.00  0.00    +0.000 A 
ATOM     13  C   UNL     1       6.289   5.084  17.074  0.00  0.00    +0.000 A 
ATOM     14  C   UNL     1       6.248   6.437  16.707  0.00  0.00    +0.000 A 
ATOM     15  C   UNL     1       7.060   7.368  17.360  0.00  0.00    +0.000 A 
BRANCH  10  16
ATOM     16  O   UNL     1       8.690   7.893  18.982  0.00  0.00    +0.000 OA
ATOM     17  H   UNL     1       8.946   8.550  18.315  0.00  0.00    +0.000 HD
ENDBRANCH  10  16
ENDBRANCH   9  13
ENDBRANCH   7   9
ENDBRANCH   1   7
BRANCH   4  18
ATOM     18  O   UNL     1       0.253   3.139  20.266  0.00  0.00    +0.000 OA
ATOM     19  H   UNL     1      -0.522   2.659  19.941  0.00  0.00    +0.000 HD
ENDBRANCH   4  18
BRANCH   5  20
ATOM     20  O   UNL     1       2.450   3.356  21.617  0.00  0.00    +0.000 OA
ATOM     21  H   UNL     1       2.015   2.744  22.229  0.00  0.00    +0.000 HD
ENDBRANCH   5  20
BRANCH   6  22
ATOM     22  O   UNL     1       4.963   2.196  19.661  0.00  0.00    +0.000 OA
ATOM     23  H   UNL     1       5.714   2.571  19.155  0.00  0.00    +0.000 HD
ENDBRANCH   6  22
TORSDOF 7
ENDMDL
MODEL 2
REMARK VINA RESULT:      -7.4      0.167      1.150
REMARK  Name = 
REMARK  7 active torsions:
REMARK  status: ('A' for Active; 'I' for Inactive)
REMARK    1  A    between atoms: O_1  and  C_2
REMARK    2  A    between atoms: C_5  and  C_6
REMARK    3  A    between atoms: C_6  and  N_7
REMARK    4  A    between atoms: N_7  and  C_8
REMARK    5  A    between atoms: C_11  and  O_12
REMARK    6  A    between atoms: C_13  and  O_14
REMARK    7  A    between atoms: C_15  and  O_16
REMARK                            x       y       z     vdW  Elec       q    Type
REMARK                         _______ _______ _______ _____ _____    ______ ____
ROOT
ATOM      1  C   UNL     1       3.742   3.894  18.101  0.00  0.00    +0.000 C 
ATOM      2  C   UNL     1       2.337   3.795  17.585  0.00  0.00    +0.000 C 
ATOM      3  C   UNL     1       1.317   3.230  18.229  0.00  0.00    +0.000 C 
ATOM      4  C   UNL     1       1.409   2.588  19.563  0.00  0.00    +0.000 C 
ATOM      5  C   UNL     1       2.723   2.809  20.348  0.00  0.00    +0.000 C 
ATOM      6  C   UNL     1       3.938   3.401  19.580  0.00  0.00    +0.000 C 
ENDROOT
BRANCH   1   7
ATOM      7  N   UNL     1       4.693   3.173  17.233  0.00  0.00    +0.000 NA
ATOM      8  H   UNL     1       5.412   2.775  17.841  0.00  0.00    +0.000 HD
BRANCH   7   9
ATOM      9  C   UNL     1       5.396   4.010  16.256  0.00  0.00    +0.000 C 
BRANCH   9  13
ATOM     10  C   UNL     1       7.849   6.898  18.302  0.00  0.00    +0.000 A 
ATOM     11  C   UNL     1       6.953   7.324  17.335  0.00  0.00    +0.000 A 
ATOM     12  C   UNL     1       6.162   6.381  16.672  0.00  0.00    +0.000 A 
ATOM     13  C   UNL     1       6.276   5.012  16.970  0.00  0.00    +0.000 A 
ATOM     14  C   UNL     1       7.194   4.604  17.948  0.00  0.00    +0.000 A 
ATOM     15  C   UNL     1       7.979   5.549  18.613  0.00  0.00    +0.000 A 
BRANCH  10  16
ATOM     16  O   UNL     1       8.632   7.785  18.983  0.00  0.00    +0.000 OA
ATOM     17  H   UNL     1       9.525   7.759  18.602  0.00  0.00    +0.000 HD
ENDBRANCH  10  16
ENDBRANCH   9  13
ENDBRANCH   7   9
ENDBRANCH   1   7
BRANCH   4  18
ATOM     18  O   UNL     1       0.265   3.061  20.282  0.00  0.00    +0.000 OA
ATOM     19  H   UNL     1      -0.290   3.528  19.640  0.00  0.00    +0.000 HD
ENDBRANCH   4  18
BRANCH   5  20
ATOM     20  O   UNL     1       2.465   3.594  21.536  0.00  0.00    +0.000 OA
ATOM     21  H   UNL     1       2.716   3.077  22.316  0.00  0.00    +0.000 HD
ENDBRANCH   5  20
BRANCH   6  22
ATOM     22  O   UNL     1       5.022   2.441  19.635  0.00  0.00    +0.000 OA
ATOM     23  H   UNL     1       4.907   1.974  20.489  0.00  0.00    +0.000 HD
ENDBRANCH   6  22
TORSDOF 7
ENDMDL
MODEL 3
REMARK VINA RESULT:      -6.9      2.136      2.748
REMARK  Name = 
REMARK  7 active torsions:
REMARK  status: ('A' for Active; 'I' for Inactive)
REMARK    1  A    between atoms: O_1  and  C_2
REMARK    2  A    between atoms: C_5  and  C_6
REMARK    3  A    between atoms: C_6  and  N_7
REMARK    4  A    between atoms: N_7  and  C_8
REMARK    5  A    between atoms: C_11  and  O_12
REMARK    6  A    between atoms: C_13  and  O_14
REMARK    7  A    between atoms: C_15  and  O_16
REMARK                            x       y       z     vdW  Elec       q    Type
REMARK                         _______ _______ _______ _____ _____    ______ ____
ROOT
ATOM      1  C   UNL     1       1.784   5.602  18.847  0.00  0.00    +0.000 C 
ATOM      2  C   UNL     1       2.011   4.678  17.687  0.00  0.00    +0.000 C 
ATOM      3  C   UNL     1       2.219   3.365  17.777  0.00  0.00    +0.000 C 
ATOM      4  C   UNL     1       2.277   2.601  19.047  0.00  0.00    +0.000 C 
ATOM      5  C   UNL     1       1.825   3.347  20.324  0.00  0.00    +0.000 C 
ATOM      6  C   UNL     1       1.652   4.890  20.242  0.00  0.00    +0.000 C 
ENDROOT
BRANCH   1   7
ATOM      7  N   UNL     1       2.838   6.629  18.939  0.00  0.00    +0.000 NA
ATOM      8  H   UNL     1       2.379   7.510  19.185  0.00  0.00    +0.000 HD
BRANCH   7   9
ATOM      9  C   UNL     1       3.568   6.880  17.693  0.00  0.00    +0.000 C 
BRANCH   9  13
ATOM     10  C   UNL     1       7.277   4.692  17.630  0.00  0.00    +0.000 A 
ATOM     11  C   UNL     1       6.766   5.207  16.449  0.00  0.00    +0.000 A 
ATOM     12  C   UNL     1       5.560   5.913  16.476  0.00  0.00    +0.000 A 
ATOM     13  C   UNL     1       4.861   6.094  17.682  0.00  0.00    +0.000 A 
ATOM     14  C   UNL     1       5.394   5.559  18.863  0.00  0.00    +0.000 A 
ATOM     15  C   UNL     1       6.603   4.858  18.834  0.00  0.00    +0.000 A 
BRANCH  10  16
ATOM     16  O   UNL     1       8.458   4.006  17.652  0.00  0.00    +0.000 OA
ATOM     17  H   UNL     1       8.395   3.313  18.328  0.00  0.00    +0.000 HD
ENDBRANCH  10  16
ENDBRANCH   9  13
ENDBRANCH   7   9
ENDBRANCH   1   7
BRANCH   4  18
ATOM     18  O   UNL     1       1.498   1.424  18.807  0.00  0.00    +0.000 OA
ATOM     19  H   UNL     1       2.056   0.670  19.048  0.00  0.00    +0.000 HD
ENDBRANCH   4  18
BRANCH   5  20
ATOM     20  O   UNL     1       0.618   2.746  20.850  0.00  0.00    +0.000 OA
ATOM     21  H   UNL     1       0.115   2.359  20.118  0.00  0.00    +0.000 HD
ENDBRANCH   5  20
BRANCH   6  22
ATOM     22  O   UNL     1       2.562   5.501  21.190  0.00  0.00    +0.000 OA
ATOM     23  H   UNL     1       1.989   5.875  21.891  0.00  0.00    +0.000 HD
ENDBRANCH   6  22
TORSDOF 7
ENDMDL
MODEL 4
REMARK VINA RESULT:      -6.9      2.175      2.615
REMARK  Name = 
REMARK  7 active torsions:
REMARK  status: ('A' for Active; 'I' for Inactive)
REMARK    1  A    between atoms: O_1  and  C_2
REMARK    2  A    between atoms: C_5  and  C_6
REMARK    3  A    between atoms: C_6  and  N_7
REMARK    4  A    between atoms: N_7  and  C_8
REMARK    5  A    between atoms: C_11  and  O_12
REMARK    6  A    between atoms: C_13  and  O_14
REMARK    7  A    between atoms: C_15  and  O_16
REMARK                            x       y       z     vdW  Elec       q    Type
REMARK                         _______ _______ _______ _____ _____    ______ ____
ROOT
ATOM      1  C   UNL     1       1.743   5.608  18.955  0.00  0.00    +0.000 C 
ATOM      2  C   UNL     1       1.920   4.729  17.753  0.00  0.00    +0.000 C 
ATOM      3  C   UNL     1       2.114   3.412  17.783  0.00  0.00    +0.000 C 
ATOM      4  C   UNL     1       2.205   2.597  19.019  0.00  0.00    +0.000 C 
ATOM      5  C   UNL     1       1.806   3.296  20.339  0.00  0.00    +0.000 C 
ATOM      6  C   UNL     1       1.649   4.842  20.324  0.00  0.00    +0.000 C 
ENDROOT
BRANCH   1   7
ATOM      7  N   UNL     1       2.813   6.620  19.053  0.00  0.00    +0.000 NA
ATOM      8  H   UNL     1       2.380   7.484  19.390  0.00  0.00    +0.000 HD
BRANCH   7   9
ATOM      9  C   UNL     1       3.466   6.953  17.783  0.00  0.00    +0.000 C 
BRANCH   9  13
ATOM     10  C   UNL     1       7.156   4.757  17.458  0.00  0.00    +0.000 A 
ATOM     11  C   UNL     1       6.527   4.861  18.688  0.00  0.00    +0.000 A 
ATOM     12  C   UNL     1       5.332   5.579  18.788  0.00  0.00    +0.000 A 
ATOM     13  C   UNL     1       4.771   6.200  17.658  0.00  0.00    +0.000 A 
ATOM     14  C   UNL     1       5.428   6.086  16.425  0.00  0.00    +0.000 A 
ATOM     15  C   UNL     1       6.620   5.364  16.327  0.00  0.00    +0.000 A 
BRANCH  10  16
ATOM     16  O   UNL     1       8.318   4.056  17.312  0.00  0.00    +0.000 OA
ATOM     17  H   UNL     1       8.515   3.985  16.364  0.00  0.00    +0.000 HD
ENDBRANCH  10  16
ENDBRANCH   9  13
ENDBRANCH   7   9
ENDBRANCH   1   7
BRANCH   4  18
ATOM     18  O   UNL     1       1.405   1.439  18.758  0.00  0.00    +0.000 OA
ATOM     19  H   UNL     1       0.717   1.419  19.440  0.00  0.00    +0.000 HD
ENDBRANCH   4  18
BRANCH   5  20
ATOM     20  O   UNL     1       0.610   2.687  20.881  0.00  0.00    +0.000 OA
ATOM     21  H   UNL     1       0.762   1.737  20.992  0.00  0.00    +0.000 HD
ENDBRANCH   5  20
BRANCH   6  22
ATOM     22  O   UNL     1       2.598   5.404  21.265  0.00  0.00    +0.000 OA
ATOM     23  H   UNL     1       3.481   5.199  20.892  0.00  0.00    +0.000 HD
ENDBRANCH   6  22
TORSDOF 7
ENDMDL
MODEL 5
REMARK VINA RESULT:      -6.8      4.037      5.916
REMARK  Name = 
REMARK  7 active torsions:
REMARK  status: ('A' for Active; 'I' for Inactive)
REMARK    1  A    between atoms: O_1  and  C_2
REMARK    2  A    between atoms: C_5  and  C_6
REMARK    3  A    between atoms: C_6  and  N_7
REMARK    4  A    between atoms: N_7  and  C_8
REMARK    5  A    between atoms: C_11  and  O_12
REMARK    6  A    between atoms: C_13  and  O_14
REMARK    7  A    between atoms: C_15  and  O_16
REMARK                            x       y       z     vdW  Elec       q    Type
REMARK                         _______ _______ _______ _____ _____    ______ ____
ROOT
ATOM      1  C   UNL     1       4.836   4.991  18.405  0.00  0.00    +0.000 C 
ATOM      2  C   UNL     1       4.525   5.539  17.044  0.00  0.00    +0.000 C 
ATOM      3  C   UNL     1       5.427   5.949  16.153  0.00  0.00    +0.000 C 
ATOM      4  C   UNL     1       6.894   5.946  16.371  0.00  0.00    +0.000 C 
ATOM      5  C   UNL     1       7.406   5.192  17.619  0.00  0.00    +0.000 C 
ATOM      6  C   UNL     1       6.365   4.776  18.696  0.00  0.00    +0.000 C 
ENDROOT
BRANCH   1   7
ATOM      7  N   UNL     1       4.265   5.833  19.474  0.00  0.00    +0.000 NA
ATOM      8  H   UNL     1       4.645   5.492  20.361  0.00  0.00    +0.000 HD
BRANCH   7   9
ATOM      9  C   UNL     1       2.806   5.770  19.599  0.00  0.00    +0.000 C 
BRANCH   9  13
ATOM     10  C   UNL     1       1.150   9.728  19.223  0.00  0.00    +0.000 A 
ATOM     11  C   UNL     1       1.063   9.061  20.435  0.00  0.00    +0.000 A 
ATOM     12  C   UNL     1       1.599   7.776  20.549  0.00  0.00    +0.000 A 
ATOM     13  C   UNL     1       2.213   7.153  19.448  0.00  0.00    +0.000 A 
ATOM     14  C   UNL     1       2.284   7.845  18.230  0.00  0.00    +0.000 A 
ATOM     15  C   UNL     1       1.753   9.132  18.120  0.00  0.00    +0.000 A 
BRANCH  10  16
ATOM     16  O   UNL     1       0.651  10.989  19.070  0.00  0.00    +0.000 OA
ATOM     17  H   UNL     1       0.878  11.301  18.179  0.00  0.00    +0.000 HD
ENDBRANCH  10  16
ENDBRANCH   9  13
ENDBRANCH   7   9
ENDBRANCH   1   7
BRANCH   4  18
ATOM     18  O   UNL     1       7.446   5.420  15.159  0.00  0.00    +0.000 OA
ATOM     19  H   UNL     1       6.729   5.412  14.509  0.00  0.00    +0.000 HD
ENDBRANCH   4  18
BRANCH   5  20
ATOM     20  O   UNL     1       8.184   4.038  17.219  0.00  0.00    +0.000 OA
ATOM     21  H   UNL     1       9.015   4.341  16.824  0.00  0.00    +0.000 HD
ENDBRANCH   5  20
BRANCH   6  22
ATOM     22  O   UNL     1       6.720   5.421  19.945  0.00  0.00    +0.000 OA
ATOM     23  H   UNL     1       7.336   4.801  20.388  0.00  0.00    +0.000 HD
ENDBRANCH   6  22
TORSDOF 7
ENDMDL
MODEL 6
REMARK VINA RESULT:      -6.8      3.999      5.907
REMARK  Name = 
REMARK  7 active torsions:
REMARK  status: ('A' for Active; 'I' for Inactive)
REMARK    1  A    between atoms: O_1  and  C_2
REMARK    2  A    between atoms: C_5  and  C_6
REMARK    3  A    between atoms: C_6  and  N_7
REMARK    4  A    between atoms: N_7  and  C_8
REMARK    5  A    between atoms: C_11  and  O_12
REMARK    6  A    between atoms: C_13  and  O_14
REMARK    7  A    between atoms: C_15  and  O_16
REMARK                            x       y       z     vdW  Elec       q    Type
REMARK                         _______ _______ _______ _____ _____    ______ ____
ROOT
ATOM      1  C   UNL     1       4.786   4.827  18.344  0.00  0.00    +0.000 C 
ATOM      2  C   UNL     1       4.475   5.322  16.962  0.00  0.00    +0.000 C 
ATOM      3  C   UNL     1       5.372   5.757  16.079  0.00  0.00    +0.000 C 
ATOM      4  C   UNL     1       6.833   5.840  16.325  0.00  0.00    +0.000 C 
ATOM      5  C   UNL     1       7.358   5.148  17.604  0.00  0.00    +0.000 C 
ATOM      6  C   UNL     1       6.318   4.704  18.671  0.00  0.00    +0.000 C 
ENDROOT
BRANCH   1   7
ATOM      7  N   UNL     1       4.148   5.664  19.378  0.00  0.00    +0.000 NA
ATOM      8  H   UNL     1       4.415   5.275  20.286  0.00  0.00    +0.000 HD
BRANCH   7   9
ATOM      9  C   UNL     1       2.683   5.676  19.347  0.00  0.00    +0.000 C 
BRANCH   9  13
ATOM     10  C   UNL     1       1.205   9.714  19.116  0.00  0.00    +0.000 A 
ATOM     11  C   UNL     1       1.718   9.107  17.981  0.00  0.00    +0.000 A 
ATOM     12  C   UNL     1       2.199   7.797  18.064  0.00  0.00    +0.000 A 
ATOM     13  C   UNL     1       2.177   7.100  19.284  0.00  0.00    +0.000 A 
ATOM     14  C   UNL     1       1.659   7.737  20.421  0.00  0.00    +0.000 A 
ATOM     15  C   UNL     1       1.173   9.044  20.334  0.00  0.00    +0.000 A 
BRANCH  10  16
ATOM     16  O   UNL     1       0.713  10.987  19.078  0.00  0.00    +0.000 OA
ATOM     17  H   UNL     1       0.292  11.126  18.215  0.00  0.00    +0.000 HD
ENDBRANCH  10  16
ENDBRANCH   9  13
ENDBRANCH   7   9
ENDBRANCH   1   7
BRANCH   4  18
ATOM     18  O   UNL     1       7.438   5.314  15.139  0.00  0.00    +0.000 OA
ATOM     19  H   UNL     1       7.978   6.026  14.766  0.00  0.00    +0.000 HD
ENDBRANCH   4  18
BRANCH   5  20
ATOM     20  O   UNL     1       8.205   4.028  17.250  0.00  0.00    +0.000 OA
ATOM     21  H   UNL     1       9.132   4.307  17.300  0.00  0.00    +0.000 HD
ENDBRANCH   5  20
BRANCH   6  22
ATOM     22  O   UNL     1       6.611   5.399  19.908  0.00  0.00    +0.000 OA
ATOM     23  H   UNL     1       5.936   5.085  20.545  0.00  0.00    +0.000 HD
ENDBRANCH   6  22
TORSDOF 7
ENDMDL
MODEL 7
REMARK VINA RESULT:      -6.8      1.975      6.392
REMARK  Name = 
REMARK  7 active torsions:
REMARK  status: ('A' for Active; 'I' for Inactive)
REMARK    1  A    between atoms: O_1  and  C_2
REMARK    2  A    between atoms: C_5  and  C_6
REMARK    3  A    between atoms: C_6  and  N_7
REMARK    4  A    between atoms: N_7  and  C_8
REMARK    5  A    between atoms: C_11  and  O_12
REMARK    6  A    between atoms: C_13  and  O_14
REMARK    7  A    between atoms: C_15  and  O_16
REMARK                            x       y       z     vdW  Elec       q    Type
REMARK                         _______ _______ _______ _____ _____    ______ ____
ROOT
ATOM      1  C   UNL     1       4.602   4.627  16.265  0.00  0.00    +0.000 C 
ATOM      2  C   UNL     1       4.744   5.791  17.201  0.00  0.00    +0.000 C 
ATOM      3  C   UNL     1       5.889   6.403  17.502  0.00  0.00    +0.000 C 
ATOM      4  C   UNL     1       7.219   6.019  16.970  0.00  0.00    +0.000 C 
ATOM      5  C   UNL     1       7.232   4.999  15.808  0.00  0.00    +0.000 C 
ATOM      6  C   UNL     1       5.917   4.230  15.501  0.00  0.00    +0.000 C 
ENDROOT
BRANCH   1   7
ATOM      7  N   UNL     1       4.078   3.434  16.956  0.00  0.00    +0.000 NA
ATOM      8  H   UNL     1       4.323   2.622  16.382  0.00  0.00    +0.000 HD
BRANCH   7   9
ATOM      9  C   UNL     1       2.622   3.401  17.116  0.00  0.00    +0.000 C 
BRANCH   9  13
ATOM     10  C   UNL     1       1.552   2.748  21.236  0.00  0.00    +0.000 A 
ATOM     11  C   UNL     1       0.610   3.257  20.357  0.00  0.00    +0.000 A 
ATOM     12  C   UNL     1       0.965   3.471  19.022  0.00  0.00    +0.000 A 
ATOM     13  C   UNL     1       2.265   3.183  18.570  0.00  0.00    +0.000 A 
ATOM     14  C   UNL     1       3.202   2.674  19.479  0.00  0.00    +0.000 A 
ATOM     15  C   UNL     1       2.844   2.457  20.812  0.00  0.00    +0.000 A 
BRANCH  10  16
ATOM     16  O   UNL     1       1.245   2.513  22.546  0.00  0.00    +0.000 OA
ATOM     17  H   UNL     1       0.463   3.039  22.775  0.00  0.00    +0.000 HD
ENDBRANCH  10  16
ENDBRANCH   9  13
ENDBRANCH   7   9
ENDBRANCH   1   7
BRANCH   4  18
ATOM     18  O   UNL     1       7.844   7.256  16.608  0.00  0.00    +0.000 OA
ATOM     19  H   UNL     1       7.632   7.410  15.677  0.00  0.00    +0.000 HD
ENDBRANCH   4  18
BRANCH   5  20
ATOM     20  O   UNL     1       7.726   5.627  14.601  0.00  0.00    +0.000 OA
ATOM     21  H   UNL     1       7.291   5.222  13.835  0.00  0.00    +0.000 HD
ENDBRANCH   5  20
BRANCH   6  22
ATOM     22  O   UNL     1       6.169   2.812  15.668  0.00  0.00    +0.000 OA
ATOM     23  H   UNL     1       7.133   2.705  15.527  0.00  0.00    +0.000 HD
ENDBRANCH   6  22
TORSDOF 7
ENDMDL
MODEL 8
REMARK VINA RESULT:      -6.8      1.008      1.560
REMARK  Name = 
REMARK  7 active torsions:
REMARK  status: ('A' for Active; 'I' for Inactive)
REMARK    1  A    between atoms: O_1  and  C_2
REMARK    2  A    between atoms: C_5  and  C_6
REMARK    3  A    between atoms: C_6  and  N_7
REMARK    4  A    between atoms: N_7  and  C_8
REMARK    5  A    between atoms: C_11  and  O_12
REMARK    6  A    between atoms: C_13  and  O_14
REMARK    7  A    between atoms: C_15  and  O_16
REMARK                            x       y       z     vdW  Elec       q    Type
REMARK                         _______ _______ _______ _____ _____    ______ ____
ROOT
ATOM      1  C   UNL     1       4.286   3.948  18.801  0.00  0.00    +0.000 C 
ATOM      2  C   UNL     1       3.297   4.188  17.698  0.00  0.00    +0.000 C 
ATOM      3  C   UNL     1       2.191   3.478  17.486  0.00  0.00    +0.000 C 
ATOM      4  C   UNL     1       1.762   2.315  18.301  0.00  0.00    +0.000 C 
ATOM      5  C   UNL     1       2.530   2.075  19.621  0.00  0.00    +0.000 C 
ATOM      6  C   UNL     1       3.861   2.848  19.839  0.00  0.00    +0.000 C 
ENDROOT
BRANCH   1   7
ATOM      7  N   UNL     1       5.620   3.607  18.271  0.00  0.00    +0.000 NA
ATOM      8  H   UNL     1       6.294   3.778  19.021  0.00  0.00    +0.000 HD
BRANCH   7   9
ATOM      9  C   UNL     1       6.058   4.416  17.130  0.00  0.00    +0.000 C 
BRANCH   9  13
ATOM     10  C   UNL     1       8.261   7.850  18.507  0.00  0.00    +0.000 A 
ATOM     11  C   UNL     1       7.469   7.954  17.375  0.00  0.00    +0.000 A 
ATOM     12  C   UNL     1       6.759   6.835  16.931  0.00  0.00    +0.000 A 
ATOM     13  C   UNL     1       6.851   5.609  17.614  0.00  0.00    +0.000 A 
ATOM     14  C   UNL     1       7.663   5.527  18.754  0.00  0.00    +0.000 A 
ATOM     15  C   UNL     1       8.367   6.648  19.198  0.00  0.00    +0.000 A 
BRANCH  10  16
ATOM     16  O   UNL     1       8.962   8.921  18.982  0.00  0.00    +0.000 OA
ATOM     17  H   UNL     1       9.895   8.666  19.057  0.00  0.00    +0.000 HD
ENDBRANCH  10  16
ENDBRANCH   9  13
ENDBRANCH   7   9
ENDBRANCH   1   7
BRANCH   4  18
ATOM     18  O   UNL     1       0.361   2.514  18.521  0.00  0.00    +0.000 OA
ATOM     19  H   UNL     1      -0.022   2.752  17.665  0.00  0.00    +0.000 HD
ENDBRANCH   4  18
BRANCH   5  20
ATOM     20  O   UNL     1       1.652   2.282  20.753  0.00  0.00    +0.000 OA
ATOM     21  H   UNL     1       2.082   2.883  21.379  0.00  0.00    +0.000 HD
ENDBRANCH   5  20
BRANCH   6  22
ATOM     22  O   UNL     1       4.930   1.881  19.992  0.00  0.00    +0.000 OA
ATOM     23  H   UNL     1       4.494   1.006  19.934  0.00  0.00    +0.000 HD
ENDBRANCH   6  22
TORSDOF 7
ENDMDL
MODEL 9
REMARK VINA RESULT:      -6.7      1.702      6.342
REMARK  Name = 
REMARK  7 active torsions:
REMARK  status: ('A' for Active; 'I' for Inactive)
REMARK    1  A    between atoms: O_1  and  C_2
REMARK    2  A    between atoms: C_5  and  C_6
REMARK    3  A    between atoms: C_6  and  N_7
REMARK    4  A    between atoms: N_7  and  C_8
REMARK    5  A    between atoms: C_11  and  O_12
REMARK    6  A    between atoms: C_13  and  O_14
REMARK    7  A    between atoms: C_15  and  O_16
REMARK                            x       y       z     vdW  Elec       q    Type
REMARK                         _______ _______ _______ _____ _____    ______ ____
ROOT
ATOM      1  C   UNL     1       5.022   5.431  17.920  0.00  0.00    +0.000 C 
ATOM      2  C   UNL     1       5.775   5.217  19.200  0.00  0.00    +0.000 C 
ATOM      3  C   UNL     1       7.040   5.571  19.419  0.00  0.00    +0.000 C 
ATOM      4  C   UNL     1       7.922   6.222  18.420  0.00  0.00    +0.000 C 
ATOM      5  C   UNL     1       7.244   6.735  17.129  0.00  0.00    +0.000 C 
ATOM      6  C   UNL     1       5.792   6.266  16.834  0.00  0.00    +0.000 C 
ENDROOT
BRANCH   1   7
ATOM      7  N   UNL     1       4.597   4.152  17.319  0.00  0.00    +0.000 NA
ATOM      8  H   UNL     1       4.905   4.162  16.343  0.00  0.00    +0.000 HD
BRANCH   7   9
ATOM      9  C   UNL     1       3.148   3.933  17.292  0.00  0.00    +0.000 C 
BRANCH   9  13
ATOM     10  C   UNL     1       1.675   2.904  21.206  0.00  0.00    +0.000 A 
ATOM     11  C   UNL     1       0.993   3.836  20.441  0.00  0.00    +0.000 A 
ATOM     12  C   UNL     1       1.478   4.169  19.173  0.00  0.00    +0.000 A 
ATOM     13  C   UNL     1       2.652   3.575  18.675  0.00  0.00    +0.000 A 
ATOM     14  C   UNL     1       3.328   2.639  19.470  0.00  0.00    +0.000 A 
ATOM     15  C   UNL     1       2.838   2.304  20.734  0.00  0.00    +0.000 A 
BRANCH  10  16
ATOM     16  O   UNL     1       1.230   2.541  22.445  0.00  0.00    +0.000 OA
ATOM     17  H   UNL     1       1.916   2.766  23.093  0.00  0.00    +0.000 HD
ENDBRANCH  10  16
ENDBRANCH   9  13
ENDBRANCH   7   9
ENDBRANCH   1   7
BRANCH   4  18
ATOM     18  O   UNL     1       8.582   7.271  19.137  0.00  0.00    +0.000 OA
ATOM     19  H   UNL     1       9.314   7.569  18.578  0.00  0.00    +0.000 HD
ENDBRANCH   4  18
BRANCH   5  20
ATOM     20  O   UNL     1       7.313   8.180  17.072  0.00  0.00    +0.000 OA
ATOM     21  H   UNL     1       7.882   8.439  16.333  0.00  0.00    +0.000 HD
ENDBRANCH   5  20
BRANCH   6  22
ATOM     22  O   UNL     1       5.793   5.547  15.575  0.00  0.00    +0.000 OA
ATOM     23  H   UNL     1       6.623   5.815  15.128  0.00  0.00    +0.000 HD
ENDBRANCH   6  22
TORSDOF 7
ENDMDL
