MODEL 1
REMARK VINA RESULT:      -7.9      0.000      0.000
REMARK  Name = 
REMARK  6 active torsions:
REMARK  status: ('A' for Active; 'I' for Inactive)
REMARK    1  A    between atoms: C_2  and  C_3
REMARK    2  A    between atoms: N_5  and  C_6
REMARK    3  A    between atoms: C_9  and  C_10
REMARK    4  A    between atoms: C_10  and  O_12
REMARK    5  A    between atoms: C_13  and  O_14
REMARK    6  A    between atoms: C_17  and  C_18
REMARK                            x       y       z     vdW  Elec       q    Type
REMARK                         _______ _______ _______ _____ _____    ______ ____
ROOT
ATOM      1  C   UNL     1       2.836   4.997  19.946  0.00  0.00    +0.000 A 
ATOM      2  C   UNL     1       1.984   5.887  20.565  0.00  0.00    +0.000 A 
ATOM      3  N   UNL     1       2.127   7.130  19.983  0.00  0.00    +0.000 N 
ATOM      4  C   UNL     1       3.075   6.998  18.986  0.00  0.00    +0.000 A 
ATOM      5  C   UNL     1       3.565   5.705  18.953  0.00  0.00    +0.000 A 
ENDROOT
BRANCH   5   6
ATOM      6  C   UNL     1       4.622   5.272  18.041  0.00  0.00    +0.000 A 
ATOM      7  C   UNL     1       4.323   4.976  16.702  0.00  0.00    +0.000 A 
ATOM      8  C   UNL     1       5.310   4.496  15.832  0.00  0.00    +0.000 A 
ATOM      9  C   UNL     1       6.615   4.328  16.283  0.00  0.00    +0.000 A 
ATOM     10  C   UNL     1       6.928   4.645  17.599  0.00  0.00    +0.000 A 
ATOM     11  F   UNL     1       8.189   4.488  18.027  0.00  0.00    +0.000 F 
ATOM     12  C   UNL     1       5.949   5.109  18.472  0.00  0.00    +0.000 A 
ATOM     13  F   UNL     1       6.305   5.377  19.739  0.00  0.00    +0.000 F 
ENDBRANCH   5   6
BRANCH   3  14
ATOM     14  C   UNL     1       1.433   8.329  20.339  0.00  0.00    +0.000 A 
ATOM     15  C   UNL     1       1.087   9.265  19.353  0.00  0.00    +0.000 A 
ATOM     16  C   UNL     1       0.423  10.446  19.696  0.00  0.00    +0.000 A 
ATOM     17  C   UNL     1       0.104  10.722  21.027  0.00  0.00    +0.000 A 
ATOM     18  C   UNL     1       0.463   9.798  22.012  0.00  0.00    +0.000 A 
ATOM     19  C   UNL     1       1.104   8.601  21.677  0.00  0.00    +0.000 A 
BRANCH  17  20
ATOM     20  C   UNL     1      -0.561  12.016  21.307  0.00  0.00    +0.000 C 
ATOM     21  O   UNL     1      -1.599  12.346  20.758  0.00  0.00    +0.000 OA
BRANCH  20  22
ATOM     22  O   UNL     1       0.062  12.779  22.225  0.00  0.00    +0.000 OA
ATOM     23  H   UNL     1       0.516  13.563  21.856  0.00  0.00    +0.000 HD
ENDBRANCH  20  22
ENDBRANCH  17  20
BRANCH  18  24
ATOM     24  O   UNL     1       0.231  10.015  23.343  0.00  0.00    +0.000 OA
ATOM     25  H   UNL     1       0.965  10.567  23.681  0.00  0.00    +0.000 HD
ENDBRANCH  18  24
ENDBRANCH   3  14
BRANCH   1  27
ATOM     26  N   UNL     1       3.012   2.505  20.622  0.00  0.00    +0.000 NA
ATOM     27  C   UNL     1       2.933   3.611  20.299  0.00  0.00    +0.000 C 
ENDBRANCH   1  27
TORSDOF 6
ENDMDL
MODEL 2
REMARK VINA RESULT:      -7.7      2.061      2.860
REMARK  Name = 
REMARK  6 active torsions:
REMARK  status: ('A' for Active; 'I' for Inactive)
REMARK    1  A    between atoms: C_2  and  C_3
REMARK    2  A    between atoms: N_5  and  C_6
REMARK    3  A    between atoms: C_9  and  C_10
REMARK    4  A    between atoms: C_10  and  O_12
REMARK    5  A    between atoms: C_13  and  O_14
REMARK    6  A    between atoms: C_17  and  C_18
REMARK                            x       y       z     vdW  Elec       q    Type
REMARK                         _______ _______ _______ _____ _____    ______ ____
ROOT
ATOM      1  C   UNL     1       3.515   6.881  17.775  0.00  0.00    +0.000 A 
ATOM      2  C   UNL     1       2.975   8.073  18.210  0.00  0.00    +0.000 A 
ATOM      3  N   UNL     1       2.107   7.823  19.253  0.00  0.00    +0.000 N 
ATOM      4  C   UNL     1       2.120   6.457  19.466  0.00  0.00    +0.000 A 
ATOM      5  C   UNL     1       2.950   5.834  18.551  0.00  0.00    +0.000 A 
ENDROOT
BRANCH   5   6
ATOM      6  C   UNL     1       3.126   4.385  18.488  0.00  0.00    +0.000 A 
ATOM      7  C   UNL     1       2.351   3.616  17.606  0.00  0.00    +0.000 A 
ATOM      8  C   UNL     1       2.458   2.220  17.579  0.00  0.00    +0.000 A 
ATOM      9  C   UNL     1       3.361   1.575  18.419  0.00  0.00    +0.000 A 
ATOM     10  C   UNL     1       4.153   2.328  19.276  0.00  0.00    +0.000 A 
ATOM     11  F   UNL     1       5.026   1.702  20.079  0.00  0.00    +0.000 F 
ATOM     12  C   UNL     1       4.041   3.714  19.317  0.00  0.00    +0.000 A 
ATOM     13  F   UNL     1       4.816   4.388  20.182  0.00  0.00    +0.000 F 
ENDBRANCH   5   6
BRANCH   3  14
ATOM     14  C   UNL     1       1.335   8.785  19.976  0.00  0.00    +0.000 A 
ATOM     15  C   UNL     1       0.643   9.796  19.292  0.00  0.00    +0.000 A 
ATOM     16  C   UNL     1      -0.100  10.749  19.994  0.00  0.00    +0.000 A 
ATOM     17  C   UNL     1      -0.158  10.720  21.389  0.00  0.00    +0.000 A 
ATOM     18  C   UNL     1       0.544   9.724  22.072  0.00  0.00    +0.000 A 
ATOM     19  C   UNL     1       1.269   8.750  21.379  0.00  0.00    +0.000 A 
BRANCH  17  20
ATOM     20  C   UNL     1      -0.934  11.793  22.054  0.00  0.00    +0.000 C 
ATOM     21  O   UNL     1      -0.593  12.276  23.121  0.00  0.00    +0.000 OA
BRANCH  20  22
ATOM     22  O   UNL     1      -2.024  12.198  21.374  0.00  0.00    +0.000 OA
ATOM     23  H   UNL     1      -1.913  12.203  20.402  0.00  0.00    +0.000 HD
ENDBRANCH  20  22
ENDBRANCH  17  20
BRANCH  18  24
ATOM     24  O   UNL     1       0.580   9.655  23.438  0.00  0.00    +0.000 OA
ATOM     25  H   UNL     1       1.367  10.154  23.735  0.00  0.00    +0.000 HD
ENDBRANCH  18  24
ENDBRANCH   3  14
BRANCH   1  27
ATOM     26  N   UNL     1       5.212   6.672  15.832  0.00  0.00    +0.000 NA
ATOM     27  C   UNL     1       4.467   6.781  16.708  0.00  0.00    +0.000 C 
ENDBRANCH   1  27
TORSDOF 6
ENDMDL
MODEL 3
REMARK VINA RESULT:      -7.7      1.422      1.955
REMARK  Name = 
REMARK  6 active torsions:
REMARK  status: ('A' for Active; 'I' for Inactive)
REMARK    1  A    between atoms: C_2  and  C_3
REMARK    2  A    between atoms: N_5  and  C_6
REMARK    3  A    between atoms: C_9  and  C_10
REMARK    4  A    between atoms: C_10  and  O_12
REMARK    5  A    between atoms: C_13  and  O_14
REMARK    6  A    between atoms: C_17  and  C_18
REMARK                            x       y       z     vdW  Elec       q    Type
REMARK                         _______ _______ _______ _____ _____    ______ ____
ROOT
ATOM      1  C   UNL     1       2.671   4.930  17.979  0.00  0.00    +0.000 A 
ATOM      2  C   UNL     1       1.792   5.747  18.659  0.00  0.00    +0.000 A 
ATOM      3  N   UNL     1       2.315   7.021  18.726  0.00  0.00    +0.000 N 
ATOM      4  C   UNL     1       3.531   6.989  18.069  0.00  0.00    +0.000 A 
ATOM      5  C   UNL     1       3.805   5.708  17.624  0.00  0.00    +0.000 A 
ENDROOT
BRANCH   5   6
ATOM      6  C   UNL     1       5.047   5.346  16.943  0.00  0.00    +0.000 A 
ATOM      7  C   UNL     1       5.123   5.390  15.541  0.00  0.00    +0.000 A 
ATOM      8  C   UNL     1       6.282   4.983  14.869  0.00  0.00    +0.000 A 
ATOM      9  C   UNL     1       7.390   4.549  15.590  0.00  0.00    +0.000 A 
ATOM     10  C   UNL     1       7.335   4.528  16.977  0.00  0.00    +0.000 A 
ATOM     11  F   UNL     1       8.408   4.115  17.669  0.00  0.00    +0.000 F 
ATOM     12  C   UNL     1       6.181   4.918  17.651  0.00  0.00    +0.000 A 
ATOM     13  F   UNL     1       6.179   4.855  18.993  0.00  0.00    +0.000 F 
ENDBRANCH   5   6
BRANCH   3  14
ATOM     14  C   UNL     1       1.722   8.161  19.354  0.00  0.00    +0.000 A 
ATOM     15  C   UNL     1       1.444   8.146  20.729  0.00  0.00    +0.000 A 
ATOM     16  C   UNL     1       0.850   9.250  21.346  0.00  0.00    +0.000 A 
ATOM     17  C   UNL     1       0.511  10.383  20.604  0.00  0.00    +0.000 A 
ATOM     18  C   UNL     1       0.773  10.393  19.231  0.00  0.00    +0.000 A 
ATOM     19  C   UNL     1       1.391   9.304  18.608  0.00  0.00    +0.000 A 
BRANCH  17  20
ATOM     20  C   UNL     1      -0.154  11.491  21.330  0.00  0.00    +0.000 C 
ATOM     21  O   UNL     1      -0.730  12.395  20.749  0.00  0.00    +0.000 OA
BRANCH  20  22
ATOM     22  O   UNL     1      -0.084  11.401  22.672  0.00  0.00    +0.000 OA
ATOM     23  H   UNL     1       0.285  12.194  23.110  0.00  0.00    +0.000 HD
ENDBRANCH  20  22
ENDBRANCH  17  20
BRANCH  18  24
ATOM     24  O   UNL     1       0.427  11.443  18.425  0.00  0.00    +0.000 OA
ATOM     25  H   UNL     1       0.958  11.370  17.607  0.00  0.00    +0.000 HD
ENDBRANCH  18  24
ENDBRANCH   3  14
BRANCH   1  27
ATOM     26  N   UNL     1       2.271   2.420  17.490  0.00  0.00    +0.000 NA
ATOM     27  C   UNL     1       2.430   3.542  17.719  0.00  0.00    +0.000 C 
ENDBRANCH   1  27
TORSDOF 6
ENDMDL
MODEL 4
REMARK VINA RESULT:      -7.7      0.849      1.512
REMARK  Name = 
REMARK  6 active torsions:
REMARK  status: ('A' for Active; 'I' for Inactive)
REMARK    1  A    between atoms: C_2  and  C_3
REMARK    2  A    between atoms: N_5  and  C_6
REMARK    3  A    between atoms: C_9  and  C_10
REMARK    4  A    between atoms: C_10  and  O_12
REMARK    5  A    between atoms: C_13  and  O_14
REMARK    6  A    between atoms: C_17  and  C_18
REMARK                            x       y       z     vdW  Elec       q    Type
REMARK                         _______ _______ _______ _____ _____    ______ ____
ROOT
ATOM      1  C   UNL     1       3.114   5.002  19.522  0.00  0.00    +0.000 A 
ATOM      2  C   UNL     1       2.202   5.848  20.119  0.00  0.00    +0.000 A 
ATOM      3  N   UNL     1       2.307   7.101  19.552  0.00  0.00    +0.000 N 
ATOM      4  C   UNL     1       3.293   7.022  18.586  0.00  0.00    +0.000 A 
ATOM      5  C   UNL     1       3.841   5.752  18.560  0.00  0.00    +0.000 A 
ENDROOT
BRANCH   5   6
ATOM      6  C   UNL     1       4.947   5.377  17.680  0.00  0.00    +0.000 A 
ATOM      7  C   UNL     1       4.766   5.352  16.288  0.00  0.00    +0.000 A 
ATOM      8  C   UNL     1       5.793   4.931  15.435  0.00  0.00    +0.000 A 
ATOM      9  C   UNL     1       7.024   4.550  15.960  0.00  0.00    +0.000 A 
ATOM     10  C   UNL     1       7.223   4.597  17.334  0.00  0.00    +0.000 A 
ATOM     11  F   UNL     1       8.413   4.236  17.835  0.00  0.00    +0.000 F 
ATOM     12  C   UNL     1       6.202   5.002  18.189  0.00  0.00    +0.000 A 
ATOM     13  F   UNL     1       6.444   5.005  19.510  0.00  0.00    +0.000 F 
ENDBRANCH   5   6
BRANCH   3  14
ATOM     14  C   UNL     1       1.548   8.263  19.894  0.00  0.00    +0.000 A 
ATOM     15  C   UNL     1       0.991   8.393  21.175  0.00  0.00    +0.000 A 
ATOM     16  C   UNL     1       0.235   9.520  21.512  0.00  0.00    +0.000 A 
ATOM     17  C   UNL     1       0.010  10.530  20.575  0.00  0.00    +0.000 A 
ATOM     18  C   UNL     1       0.550  10.395  19.293  0.00  0.00    +0.000 A 
ATOM     19  C   UNL     1       1.330   9.285  18.955  0.00  0.00    +0.000 A 
BRANCH  17  20
ATOM     20  C   UNL     1      -0.838  11.668  21.002  0.00  0.00    +0.000 C 
ATOM     21  O   UNL     1      -1.694  12.149  20.278  0.00  0.00    +0.000 OA
BRANCH  20  22
ATOM     22  O   UNL     1      -0.597  12.106  22.253  0.00  0.00    +0.000 OA
ATOM     23  H   UNL     1       0.239  11.777  22.641  0.00  0.00    +0.000 HD
ENDBRANCH  20  22
ENDBRANCH  17  20
BRANCH  18  24
ATOM     24  O   UNL     1       0.335  11.315  18.305  0.00  0.00    +0.000 OA
ATOM     25  H   UNL     1       0.542  12.197  18.675  0.00  0.00    +0.000 HD
ENDBRANCH  18  24
ENDBRANCH   3  14
BRANCH   1  27
ATOM     26  N   UNL     1       3.370   2.495  20.109  0.00  0.00    +0.000 NA
ATOM     27  C   UNL     1       3.262   3.619  19.867  0.00  0.00    +0.000 C 
ENDBRANCH   1  27
TORSDOF 6
ENDMDL
MODEL 5
REMARK VINA RESULT:      -7.6      4.865      8.212
REMARK  Name = 
REMARK  6 active torsions:
REMARK  status: ('A' for Active; 'I' for Inactive)
REMARK    1  A    between atoms: C_2  and  C_3
REMARK    2  A    between atoms: N_5  and  C_6
REMARK    3  A    between atoms: C_9  and  C_10
REMARK    4  A    between atoms: C_10  and  O_12
REMARK    5  A    between atoms: C_13  and  O_14
REMARK    6  A    between atoms: C_17  and  C_18
REMARK                            x       y       z     vdW  Elec       q    Type
REMARK                         _______ _______ _______ _____ _____    ______ ____
ROOT
ATOM      1  C   UNL     1       0.643   9.120  21.442  0.00  0.00    +0.000 A 
ATOM      2  C   UNL     1       1.150   7.844  21.569  0.00  0.00    +0.000 A 
ATOM      3  N   UNL     1       1.639   7.427  20.348  0.00  0.00    +0.000 N 
ATOM      4  C   UNL     1       1.435   8.466  19.460  0.00  0.00    +0.000 A 
ATOM      5  C   UNL     1       0.791   9.517  20.087  0.00  0.00    +0.000 A 
ENDROOT
BRANCH   5   6
ATOM      6  C   UNL     1       0.388  10.738  19.391  0.00  0.00    +0.000 A 
ATOM      7  C   UNL     1       1.242  11.853  19.366  0.00  0.00    +0.000 A 
ATOM      8  C   UNL     1       0.846  13.052  18.762  0.00  0.00    +0.000 A 
ATOM      9  C   UNL     1      -0.402  13.147  18.154  0.00  0.00    +0.000 A 
ATOM     10  C   UNL     1      -1.243  12.042  18.148  0.00  0.00    +0.000 A 
ATOM     11  F   UNL     1      -2.442  12.136  17.554  0.00  0.00    +0.000 F 
ATOM     12  C   UNL     1      -0.861  10.851  18.758  0.00  0.00    +0.000 A 
ATOM     13  F   UNL     1      -1.725   9.823  18.741  0.00  0.00    +0.000 F 
ENDBRANCH   5   6
BRANCH   3  14
ATOM     14  C   UNL     1       2.238   6.163  20.050  0.00  0.00    +0.000 A 
ATOM     15  C   UNL     1       1.641   4.974  20.497  0.00  0.00    +0.000 A 
ATOM     16  C   UNL     1       2.230   3.737  20.223  0.00  0.00    +0.000 A 
ATOM     17  C   UNL     1       3.428   3.661  19.510  0.00  0.00    +0.000 A 
ATOM     18  C   UNL     1       4.032   4.845  19.078  0.00  0.00    +0.000 A 
ATOM     19  C   UNL     1       3.438   6.087  19.325  0.00  0.00    +0.000 A 
BRANCH  17  20
ATOM     20  C   UNL     1       4.004   2.312  19.301  0.00  0.00    +0.000 C 
ATOM     21  O   UNL     1       3.431   1.454  18.652  0.00  0.00    +0.000 OA
BRANCH  20  22
ATOM     22  O   UNL     1       5.212   2.126  19.867  0.00  0.00    +0.000 OA
ATOM     23  H   UNL     1       5.261   2.390  20.808  0.00  0.00    +0.000 HD
ENDBRANCH  20  22
ENDBRANCH  17  20
BRANCH  18  24
ATOM     24  O   UNL     1       5.230   4.861  18.418  0.00  0.00    +0.000 OA
ATOM     25  H   UNL     1       5.492   5.797  18.310  0.00  0.00    +0.000 HD
ENDBRANCH  18  24
ENDBRANCH   3  14
BRANCH   1  27
ATOM     26  N   UNL     1      -0.386  10.427  23.425  0.00  0.00    +0.000 NA
ATOM     27  C   UNL     1       0.067   9.859  22.526  0.00  0.00    +0.000 C 
ENDBRANCH   1  27
TORSDOF 6
ENDMDL
MODEL 6
REMARK VINA RESULT:      -7.6      1.208      1.654
REMARK  Name = 
REMARK  6 active torsions:
REMARK  status: ('A' for Active; 'I' for Inactive)
REMARK    1  A    between atoms: C_2  and  C_3
REMARK    2  A    between atoms: N_5  and  C_6
REMARK    3  A    between atoms: C_9  and  C_10
REMARK    4  A    between atoms: C_10  and  O_12
REMARK    5  A    between atoms: C_13  and  O_14
REMARK    6  A    between atoms: C_17  and  C_18
REMARK                            x       y       z     vdW  Elec       q    Type
REMARK                         _______ _______ _______ _____ _____    ______ ____
ROOT
ATOM      1  C   UNL     1       2.800   4.847  19.884  0.00  0.00    +0.000 A 
ATOM      2  C   UNL     1       1.893   5.728  20.436  0.00  0.00    +0.000 A 
ATOM      3  N   UNL     1       2.200   7.010  20.030  0.00  0.00    +0.000 N 
ATOM      4  C   UNL     1       3.309   6.914  19.210  0.00  0.00    +0.000 A 
ATOM      5  C   UNL     1       3.733   5.601  19.122  0.00  0.00    +0.000 A 
ENDROOT
BRANCH   5   6
ATOM      6  C   UNL     1       4.918   5.191  18.372  0.00  0.00    +0.000 A 
ATOM      7  C   UNL     1       6.200   5.521  18.840  0.00  0.00    +0.000 A 
ATOM      8  C   UNL     1       7.344   5.196  18.101  0.00  0.00    +0.000 A 
ATOM      9  C   UNL     1       7.223   4.514  16.894  0.00  0.00    +0.000 A 
ATOM     10  C   UNL     1       5.961   4.158  16.435  0.00  0.00    +0.000 A 
ATOM     11  F   UNL     1       5.850   3.495  15.275  0.00  0.00    +0.000 F 
ATOM     12  C   UNL     1       4.820   4.490  17.159  0.00  0.00    +0.000 A 
ATOM     13  F   UNL     1       3.625   4.140  16.654  0.00  0.00    +0.000 F 
ENDBRANCH   5   6
BRANCH   3  14
ATOM     14  C   UNL     1       1.512   8.211  20.388  0.00  0.00    +0.000 A 
ATOM     15  C   UNL     1       1.173   9.152  19.403  0.00  0.00    +0.000 A 
ATOM     16  C   UNL     1       0.514  10.335  19.748  0.00  0.00    +0.000 A 
ATOM     17  C   UNL     1       0.192  10.609  21.079  0.00  0.00    +0.000 A 
ATOM     18  C   UNL     1       0.544   9.680  22.062  0.00  0.00    +0.000 A 
ATOM     19  C   UNL     1       1.180   8.481  21.725  0.00  0.00    +0.000 A 
BRANCH  17  20
ATOM     20  C   UNL     1      -0.468  11.906  21.360  0.00  0.00    +0.000 C 
ATOM     21  O   UNL     1      -0.108  12.634  22.270  0.00  0.00    +0.000 OA
BRANCH  20  22
ATOM     22  O   UNL     1      -1.473  12.215  20.519  0.00  0.00    +0.000 OA
ATOM     23  H   UNL     1      -1.228  12.849  19.814  0.00  0.00    +0.000 HD
ENDBRANCH  20  22
ENDBRANCH  17  20
BRANCH  18  24
ATOM     24  O   UNL     1       0.309   9.895  23.392  0.00  0.00    +0.000 OA
ATOM     25  H   UNL     1       1.179   9.941  23.839  0.00  0.00    +0.000 HD
ENDBRANCH  18  24
ENDBRANCH   3  14
BRANCH   1  27
ATOM     26  N   UNL     1       2.712   2.284  20.228  0.00  0.00    +0.000 NA
ATOM     27  C   UNL     1       2.763   3.430  20.093  0.00  0.00    +0.000 C 
ENDBRANCH   1  27
TORSDOF 6
ENDMDL
MODEL 7
REMARK VINA RESULT:      -7.6      4.802      8.142
REMARK  Name = 
REMARK  6 active torsions:
REMARK  status: ('A' for Active; 'I' for Inactive)
REMARK    1  A    between atoms: C_2  and  C_3
REMARK    2  A    between atoms: N_5  and  C_6
REMARK    3  A    between atoms: C_9  and  C_10
REMARK    4  A    between atoms: C_10  and  O_12
REMARK    5  A    between atoms: C_13  and  O_14
REMARK    6  A    between atoms: C_17  and  C_18
REMARK                            x       y       z     vdW  Elec       q    Type
REMARK                         _______ _______ _______ _____ _____    ______ ____
ROOT
ATOM      1  C   UNL     1       0.652   9.127  21.410  0.00  0.00    +0.000 A 
ATOM      2  C   UNL     1       1.167   7.853  21.521  0.00  0.00    +0.000 A 
ATOM      3  N   UNL     1       1.649   7.449  20.293  0.00  0.00    +0.000 N 
ATOM      4  C   UNL     1       1.433   8.496  19.416  0.00  0.00    +0.000 A 
ATOM      5  C   UNL     1       0.787   9.538  20.057  0.00  0.00    +0.000 A 
ENDROOT
BRANCH   5   6
ATOM      6  C   UNL     1       0.373  10.763  19.376  0.00  0.00    +0.000 A 
ATOM      7  C   UNL     1       1.209  11.890  19.377  0.00  0.00    +0.000 A 
ATOM      8  C   UNL     1       0.800  13.093  18.788  0.00  0.00    +0.000 A 
ATOM      9  C   UNL     1      -0.443  13.177  18.167  0.00  0.00    +0.000 A 
ATOM     10  C   UNL     1      -1.266  12.059  18.135  0.00  0.00    +0.000 A 
ATOM     11  F   UNL     1      -2.460  12.143  17.530  0.00  0.00    +0.000 F 
ATOM     12  C   UNL     1      -0.871  10.865  18.731  0.00  0.00    +0.000 A 
ATOM     13  F   UNL     1      -1.719   9.825  18.689  0.00  0.00    +0.000 F 
ENDBRANCH   5   6
BRANCH   3  14
ATOM     14  C   UNL     1       2.252   6.192  19.979  0.00  0.00    +0.000 A 
ATOM     15  C   UNL     1       2.921   6.014  18.758  0.00  0.00    +0.000 A 
ATOM     16  C   UNL     1       3.500   4.782  18.438  0.00  0.00    +0.000 A 
ATOM     17  C   UNL     1       3.412   3.704  19.321  0.00  0.00    +0.000 A 
ATOM     18  C   UNL     1       2.733   3.875  20.530  0.00  0.00    +0.000 A 
ATOM     19  C   UNL     1       2.173   5.111  20.871  0.00  0.00    +0.000 A 
BRANCH  17  20
ATOM     20  C   UNL     1       4.017   2.424  18.883  0.00  0.00    +0.000 C 
ATOM     21  O   UNL     1       3.661   1.851  17.867  0.00  0.00    +0.000 OA
BRANCH  20  22
ATOM     22  O   UNL     1       4.996   1.965  19.686  0.00  0.00    +0.000 OA
ATOM     23  H   UNL     1       5.736   2.592  19.818  0.00  0.00    +0.000 HD
ENDBRANCH  20  22
ENDBRANCH  17  20
BRANCH  18  24
ATOM     24  O   UNL     1       2.560   2.857  21.426  0.00  0.00    +0.000 OA
ATOM     25  H   UNL     1       2.561   3.252  22.321  0.00  0.00    +0.000 HD
ENDBRANCH  18  24
ENDBRANCH   3  14
BRANCH   1  27
ATOM     26  N   UNL     1      -0.352  10.465  23.385  0.00  0.00    +0.000 NA
ATOM     27  C   UNL     1       0.080   9.853  22.505  0.00  0.00    +0.000 C 
ENDBRANCH   1  27
TORSDOF 6
ENDMDL
MODEL 8
REMARK VINA RESULT:      -7.5      0.992      1.026
REMARK  Name = 
REMARK  6 active torsions:
REMARK  status: ('A' for Active; 'I' for Inactive)
REMARK    1  A    between atoms: C_2  and  C_3
REMARK    2  A    between atoms: N_5  and  C_6
REMARK    3  A    between atoms: C_9  and  C_10
REMARK    4  A    between atoms: C_10  and  O_12
REMARK    5  A    between atoms: C_13  and  O_14
REMARK    6  A    between atoms: C_17  and  C_18
REMARK                            x       y       z     vdW  Elec       q    Type
REMARK                         _______ _______ _______ _____ _____    ______ ____
ROOT
ATOM      1  C   UNL     1       2.833   4.976  18.563  0.00  0.00    +0.000 A 
ATOM      2  C   UNL     1       1.950   5.811  19.217  0.00  0.00    +0.000 A 
ATOM      3  N   UNL     1       2.330   7.121  19.013  0.00  0.00    +0.000 N 
ATOM      4  C   UNL     1       3.459   7.091  18.216  0.00  0.00    +0.000 A 
ATOM      5  C   UNL     1       3.823   5.784  17.945  0.00  0.00    +0.000 A 
ENDROOT
BRANCH   5   6
ATOM      6  C   UNL     1       5.012   5.429  17.171  0.00  0.00    +0.000 A 
ATOM      7  C   UNL     1       4.999   5.524  15.771  0.00  0.00    +0.000 A 
ATOM      8  C   UNL     1       6.104   5.125  15.010  0.00  0.00    +0.000 A 
ATOM      9  C   UNL     1       7.248   4.647  15.641  0.00  0.00    +0.000 A 
ATOM     10  C   UNL     1       7.282   4.574  17.027  0.00  0.00    +0.000 A 
ATOM     11  F   UNL     1       8.390   4.119  17.631  0.00  0.00    +0.000 F 
ATOM     12  C   UNL     1       6.182   4.957  17.788  0.00  0.00    +0.000 A 
ATOM     13  F   UNL     1       6.265   4.843  19.124  0.00  0.00    +0.000 F 
ENDBRANCH   5   6
BRANCH   3  14
ATOM     14  C   UNL     1       1.688   8.290  19.527  0.00  0.00    +0.000 A 
ATOM     15  C   UNL     1       1.268   9.308  18.657  0.00  0.00    +0.000 A 
ATOM     16  C   UNL     1       0.654  10.460  19.154  0.00  0.00    +0.000 A 
ATOM     17  C   UNL     1       0.457  10.626  20.526  0.00  0.00    +0.000 A 
ATOM     18  C   UNL     1       0.889   9.621  21.396  0.00  0.00    +0.000 A 
ATOM     19  C   UNL     1       1.481   8.452  20.907  0.00  0.00    +0.000 A 
BRANCH  17  20
ATOM     20  C   UNL     1      -0.163  11.897  20.970  0.00  0.00    +0.000 C 
ATOM     21  O   UNL     1      -1.295  12.216  20.646  0.00  0.00    +0.000 OA
BRANCH  20  22
ATOM     22  O   UNL     1       0.616  12.650  21.769  0.00  0.00    +0.000 OA
ATOM     23  H   UNL     1       0.246  13.532  21.978  0.00  0.00    +0.000 HD
ENDBRANCH  20  22
ENDBRANCH  17  20
BRANCH  18  24
ATOM     24  O   UNL     1       0.779   9.728  22.755  0.00  0.00    +0.000 OA
ATOM     25  H   UNL     1       1.557  10.229  23.073  0.00  0.00    +0.000 HD
ENDBRANCH  18  24
ENDBRANCH   3  14
BRANCH   1  27
ATOM     26  N   UNL     1       2.667   2.393  18.533  0.00  0.00    +0.000 NA
ATOM     27  C   UNL     1       2.723   3.547  18.559  0.00  0.00    +0.000 C 
ENDBRANCH   1  27
TORSDOF 6
ENDMDL
MODEL 9
REMARK VINA RESULT:      -7.5      4.959      8.189
REMARK  Name = 
REMARK  6 active torsions:
REMARK  status: ('A' for Active; 'I' for Inactive)
REMARK    1  A    between atoms: C_2  and  C_3
REMARK    2  A    between atoms: N_5  and  C_6
REMARK    3  A    between atoms: C_9  and  C_10
REMARK    4  A    between atoms: C_10  and  O_12
REMARK    5  A    between atoms: C_13  and  O_14
REMARK    6  A    between atoms: C_17  and  C_18
REMARK                            x       y       z     vdW  Elec       q    Type
REMARK                         _______ _______ _______ _____ _____    ______ ____
ROOT
ATOM      1  C   UNL     1       1.239   8.399  20.210  0.00  0.00    +0.000 A 
ATOM      2  C   UNL     1       2.215   7.443  20.020  0.00  0.00    +0.000 A 
ATOM      3  N   UNL     1       2.704   7.542  18.734  0.00  0.00    +0.000 N 
ATOM      4  C   UNL     1       2.023   8.580  18.127  0.00  0.00    +0.000 A 
ATOM      5  C   UNL     1       1.085   9.113  18.992  0.00  0.00    +0.000 A 
ENDROOT
BRANCH   5   6
ATOM      6  C   UNL     1       0.170  10.190  18.616  0.00  0.00    +0.000 A 
ATOM      7  C   UNL     1      -1.007   9.901  17.905  0.00  0.00    +0.000 A 
ATOM      8  C   UNL     1      -1.861  10.925  17.478  0.00  0.00    +0.000 A 
ATOM      9  C   UNL     1      -1.563  12.251  17.776  0.00  0.00    +0.000 A 
ATOM     10  C   UNL     1      -0.416  12.545  18.503  0.00  0.00    +0.000 A 
ATOM     11  F   UNL     1      -0.136  13.824  18.793  0.00  0.00    +0.000 F 
ATOM     12  C   UNL     1       0.444  11.533  18.918  0.00  0.00    +0.000 A 
ATOM     13  F   UNL     1       1.550  11.880  19.597  0.00  0.00    +0.000 F 
ENDBRANCH   5   6
BRANCH   3  14
ATOM     14  C   UNL     1       3.716   6.729  18.136  0.00  0.00    +0.000 A 
ATOM     15  C   UNL     1       4.192   7.023  16.849  0.00  0.00    +0.000 A 
ATOM     16  C   UNL     1       5.170   6.223  16.252  0.00  0.00    +0.000 A 
ATOM     17  C   UNL     1       5.683   5.109  16.921  0.00  0.00    +0.000 A 
ATOM     18  C   UNL     1       5.199   4.805  18.196  0.00  0.00    +0.000 A 
ATOM     19  C   UNL     1       4.239   5.614  18.812  0.00  0.00    +0.000 A 
BRANCH  17  20
ATOM     20  C   UNL     1       6.686   4.293  16.197  0.00  0.00    +0.000 C 
ATOM     21  O   UNL     1       6.475   3.839  15.085  0.00  0.00    +0.000 OA
BRANCH  20  22
ATOM     22  O   UNL     1       7.846   4.115  16.859  0.00  0.00    +0.000 OA
ATOM     23  H   UNL     1       8.322   4.945  17.066  0.00  0.00    +0.000 HD
ENDBRANCH  20  22
ENDBRANCH  17  20
BRANCH  18  24
ATOM     24  O   UNL     1       5.613   3.706  18.896  0.00  0.00    +0.000 OA
ATOM     25  H   UNL     1       6.588   3.664  18.824  0.00  0.00    +0.000 HD
ENDBRANCH  18  24
ENDBRANCH   3  14
BRANCH   1  27
ATOM     26  N   UNL     1      -0.057   8.760  22.420  0.00  0.00    +0.000 NA
ATOM     27  C   UNL     1       0.530   8.580  21.442  0.00  0.00    +0.000 C 
ENDBRANCH   1  27
TORSDOF 6
ENDMDL
