MODEL 1
REMARK VINA RESULT:      -6.8      0.000      0.000
REMARK  Name = 
REMARK  2 active torsions:
REMARK  status: ('A' for Active; 'I' for Inactive)
REMARK    1  A    between atoms: C_1  and  C_2
REMARK    2  A    between atoms: C_6  and  C_7
REMARK                            x       y       z     vdW  Elec       q    Type
REMARK                         _______ _______ _______ _____ _____    ______ ____
ROOT
ATOM      1  C   UNL     1       5.344   4.609  18.427  0.00  0.00    +0.000 C 
ATOM      2  O   UNL     1       6.056   4.093  19.279  0.00  0.00    +0.000 OA
ATOM      3  N   UNL     1       3.998   4.753  18.691  0.00  0.00    +0.000 N 
ATOM      4  C   UNL     1       3.472   4.521  20.043  0.00  0.00    +0.000 C 
ATOM      5  C   UNL     1       2.372   3.457  20.019  0.00  0.00    +0.000 C 
ATOM      6  C   UNL     1       1.277   3.881  19.038  0.00  0.00    +0.000 C 
ATOM      7  C   UNL     1       1.887   4.046  17.646  0.00  0.00    +0.000 C 
ATOM      8  C   UNL     1       3.014   5.091  17.672  0.00  0.00    +0.000 C 
ENDROOT
BRANCH   1  14
ATOM      9  C   UNL     1       7.574   7.005  18.019  0.00  0.00    +0.000 C 
ATOM     10  C   UNL     1       7.030   6.049  16.995  0.00  0.00    +0.000 A 
ATOM     11  N   UNL     1       7.608   6.019  15.781  0.00  0.00    +0.000 NA
ATOM     12  N   UNL     1       7.177   5.068  14.973  0.00  0.00    +0.000 NA
ATOM     13 SE   UNL     1       5.950   3.991  15.689  0.00  0.00    +0.000 Se
ATOM     14  C   UNL     1       6.057   5.045  17.178  0.00  0.00    +0.000 A 
ENDBRANCH   1  14
TORSDOF 1
ENDMDL
MODEL 2
REMARK VINA RESULT:      -6.6      2.026      2.709
REMARK  Name = 
REMARK  2 active torsions:
REMARK  status: ('A' for Active; 'I' for Inactive)
REMARK    1  A    between atoms: C_1  and  C_2
REMARK    2  A    between atoms: C_6  and  C_7
REMARK                            x       y       z     vdW  Elec       q    Type
REMARK                         _______ _______ _______ _____ _____    ______ ____
ROOT
ATOM      1  C   UNL     1       3.897   4.756  18.022  0.00  0.00    +0.000 C 
ATOM      2  O   UNL     1       3.367   5.768  17.580  0.00  0.00    +0.000 OA
ATOM      3  N   UNL     1       3.106   3.817  18.650  0.00  0.00    +0.000 N 
ATOM      4  C   UNL     1       1.641   3.904  18.578  0.00  0.00    +0.000 C 
ATOM      5  C   UNL     1       1.034   3.948  19.983  0.00  0.00    +0.000 C 
ATOM      6  C   UNL     1       1.500   2.726  20.775  0.00  0.00    +0.000 C 
ATOM      7  C   UNL     1       3.027   2.734  20.856  0.00  0.00    +0.000 C 
ATOM      8  C   UNL     1       3.642   2.722  19.447  0.00  0.00    +0.000 C 
ENDROOT
BRANCH   1  14
ATOM      9  C   UNL     1       5.556   4.016  15.269  0.00  0.00    +0.000 C 
ATOM     10  C   UNL     1       6.102   4.374  16.623  0.00  0.00    +0.000 A 
ATOM     11  N   UNL     1       7.425   4.589  16.740  0.00  0.00    +0.000 NA
ATOM     12  N   UNL     1       7.823   5.030  17.919  0.00  0.00    +0.000 NA
ATOM     13 SE   UNL     1       6.506   5.295  19.092  0.00  0.00    +0.000 Se
ATOM     14  C   UNL     1       5.380   4.663  17.800  0.00  0.00    +0.000 A 
ENDBRANCH   1  14
TORSDOF 1
ENDMDL
MODEL 3
REMARK VINA RESULT:      -6.5      1.683      2.050
REMARK  Name = 
REMARK  2 active torsions:
REMARK  status: ('A' for Active; 'I' for Inactive)
REMARK    1  A    between atoms: C_1  and  C_2
REMARK    2  A    between atoms: C_6  and  C_7
REMARK                            x       y       z     vdW  Elec       q    Type
REMARK                         _______ _______ _______ _____ _____    ______ ____
ROOT
ATOM      1  C   UNL     1       3.903   5.191  17.427  0.00  0.00    +0.000 C 
ATOM      2  O   UNL     1       3.454   6.316  17.609  0.00  0.00    +0.000 OA
ATOM      3  N   UNL     1       3.071   4.108  17.619  0.00  0.00    +0.000 N 
ATOM      4  C   UNL     1       1.626   4.299  17.799  0.00  0.00    +0.000 C 
ATOM      5  C   UNL     1       1.159   3.672  19.115  0.00  0.00    +0.000 C 
ATOM      6  C   UNL     1       1.554   2.195  19.142  0.00  0.00    +0.000 C 
ATOM      7  C   UNL     1       3.072   2.079  19.008  0.00  0.00    +0.000 C 
ATOM      8  C   UNL     1       3.550   2.736  17.703  0.00  0.00    +0.000 C 
ENDROOT
BRANCH   1  14
ATOM      9  C   UNL     1       6.653   5.329  19.244  0.00  0.00    +0.000 C 
ATOM     10  C   UNL     1       6.523   5.173  17.755  0.00  0.00    +0.000 A 
ATOM     11  N   UNL     1       7.630   4.891  17.045  0.00  0.00    +0.000 NA
ATOM     12  N   UNL     1       7.429   4.633  15.766  0.00  0.00    +0.000 NA
ATOM     13 SE   UNL     1       5.718   4.666  15.265  0.00  0.00    +0.000 Se
ATOM     14  C   UNL     1       5.340   5.141  16.987  0.00  0.00    +0.000 A 
ENDBRANCH   1  14
TORSDOF 1
ENDMDL
MODEL 4
REMARK VINA RESULT:      -6.4      1.993      2.561
REMARK  Name = 
REMARK  2 active torsions:
REMARK  status: ('A' for Active; 'I' for Inactive)
REMARK    1  A    between atoms: C_1  and  C_2
REMARK    2  A    between atoms: C_6  and  C_7
REMARK                            x       y       z     vdW  Elec       q    Type
REMARK                         _______ _______ _______ _____ _____    ______ ____
ROOT
ATOM      1  C   UNL     1       3.988   4.945  17.627  0.00  0.00    +0.000 C 
ATOM      2  O   UNL     1       3.640   6.103  17.819  0.00  0.00    +0.000 OA
ATOM      3  N   UNL     1       3.032   3.951  17.676  0.00  0.00    +0.000 N 
ATOM      4  C   UNL     1       1.604   4.290  17.716  0.00  0.00    +0.000 C 
ATOM      5  C   UNL     1       0.935   3.665  18.942  0.00  0.00    +0.000 C 
ATOM      6  C   UNL     1       1.170   2.153  18.933  0.00  0.00    +0.000 C 
ATOM      7  C   UNL     1       2.674   1.880  18.951  0.00  0.00    +0.000 C 
ATOM      8  C   UNL     1       3.355   2.533  17.738  0.00  0.00    +0.000 C 
ENDROOT
BRANCH   1  14
ATOM      9  C   UNL     1       5.489   4.335  14.754  0.00  0.00    +0.000 C 
ATOM     10  C   UNL     1       6.107   4.523  16.111  0.00  0.00    +0.000 A 
ATOM     11  N   UNL     1       7.446   4.623  16.193  0.00  0.00    +0.000 NA
ATOM     12  N   UNL     1       7.918   4.922  17.390  0.00  0.00    +0.000 NA
ATOM     13 SE   UNL     1       6.667   5.179  18.634  0.00  0.00    +0.000 Se
ATOM     14  C   UNL     1       5.451   4.758  17.337  0.00  0.00    +0.000 A 
ENDBRANCH   1  14
TORSDOF 1
ENDMDL
MODEL 5
REMARK VINA RESULT:      -6.3      1.423      1.587
REMARK  Name = 
REMARK  2 active torsions:
REMARK  status: ('A' for Active; 'I' for Inactive)
REMARK    1  A    between atoms: C_1  and  C_2
REMARK    2  A    between atoms: C_6  and  C_7
REMARK                            x       y       z     vdW  Elec       q    Type
REMARK                         _______ _______ _______ _____ _____    ______ ____
ROOT
ATOM      1  C   UNL     1       4.562   4.372  18.438  0.00  0.00    +0.000 C 
ATOM      2  O   UNL     1       5.508   3.946  19.089  0.00  0.00    +0.000 OA
ATOM      3  N   UNL     1       3.292   4.255  18.964  0.00  0.00    +0.000 N 
ATOM      4  C   UNL     1       3.097   3.853  20.364  0.00  0.00    +0.000 C 
ATOM      5  C   UNL     1       2.208   2.611  20.449  0.00  0.00    +0.000 C 
ATOM      6  C   UNL     1       0.882   2.885  19.738  0.00  0.00    +0.000 C 
ATOM      7  C   UNL     1       1.161   3.238  18.276  0.00  0.00    +0.000 C 
ATOM      8  C   UNL     1       2.080   4.467  18.185  0.00  0.00    +0.000 C 
ENDROOT
BRANCH   1  14
ATOM      9  C   UNL     1       4.024   7.447  17.371  0.00  0.00    +0.000 C 
ATOM     10  C   UNL     1       4.724   6.321  16.664  0.00  0.00    +0.000 A 
ATOM     11  N   UNL     1       5.370   6.592  15.516  0.00  0.00    +0.000 NA
ATOM     12  N   UNL     1       6.075   5.595  15.015  0.00  0.00    +0.000 NA
ATOM     13 SE   UNL     1       6.060   4.110  16.003  0.00  0.00    +0.000 Se
ATOM     14  C   UNL     1       4.924   5.002  17.122  0.00  0.00    +0.000 A 
ENDBRANCH   1  14
TORSDOF 1
ENDMDL
MODEL 6
REMARK VINA RESULT:      -6.3      1.322      1.771
REMARK  Name = 
REMARK  2 active torsions:
REMARK  status: ('A' for Active; 'I' for Inactive)
REMARK    1  A    between atoms: C_1  and  C_2
REMARK    2  A    between atoms: C_6  and  C_7
REMARK                            x       y       z     vdW  Elec       q    Type
REMARK                         _______ _______ _______ _____ _____    ______ ____
ROOT
ATOM      1  C   UNL     1       5.356   4.424  18.733  0.00  0.00    +0.000 C 
ATOM      2  O   UNL     1       5.915   3.756  19.593  0.00  0.00    +0.000 OA
ATOM      3  N   UNL     1       3.986   4.574  18.800  0.00  0.00    +0.000 N 
ATOM      4  C   UNL     1       3.245   4.151  19.996  0.00  0.00    +0.000 C 
ATOM      5  C   UNL     1       2.153   3.145  19.626  0.00  0.00    +0.000 C 
ATOM      6  C   UNL     1       1.236   3.757  18.566  0.00  0.00    +0.000 C 
ATOM      7  C   UNL     1       2.066   4.117  17.333  0.00  0.00    +0.000 C 
ATOM      8  C   UNL     1       3.184   5.104  17.706  0.00  0.00    +0.000 C 
ENDROOT
BRANCH   1  14
ATOM      9  C   UNL     1       5.743   3.612  15.560  0.00  0.00    +0.000 C 
ATOM     10  C   UNL     1       6.423   4.705  16.335  0.00  0.00    +0.000 A 
ATOM     11  N   UNL     1       7.173   5.594  15.659  0.00  0.00    +0.000 NA
ATOM     12  N   UNL     1       7.632   6.604  16.374  0.00  0.00    +0.000 NA
ATOM     13 SE   UNL     1       7.112   6.600  18.080  0.00  0.00    +0.000 Se
ATOM     14  C   UNL     1       6.266   5.025  17.700  0.00  0.00    +0.000 A 
ENDBRANCH   1  14
TORSDOF 1
ENDMDL
MODEL 7
REMARK VINA RESULT:      -6.3      2.206      5.025
REMARK  Name = 
REMARK  2 active torsions:
REMARK  status: ('A' for Active; 'I' for Inactive)
REMARK    1  A    between atoms: C_1  and  C_2
REMARK    2  A    between atoms: C_6  and  C_7
REMARK                            x       y       z     vdW  Elec       q    Type
REMARK                         _______ _______ _______ _____ _____    ______ ____
ROOT
ATOM      1  C   UNL     1       5.100   4.162  18.615  0.00  0.00    +0.000 C 
ATOM      2  O   UNL     1       5.424   3.658  19.683  0.00  0.00    +0.000 OA
ATOM      3  N   UNL     1       6.019   4.946  17.949  0.00  0.00    +0.000 N 
ATOM      4  C   UNL     1       7.423   4.981  18.380  0.00  0.00    +0.000 C 
ATOM      5  C   UNL     1       7.857   6.416  18.686  0.00  0.00    +0.000 C 
ATOM      6  C   UNL     1       7.608   7.295  17.459  0.00  0.00    +0.000 C 
ATOM      7  C   UNL     1       6.121   7.254  17.107  0.00  0.00    +0.000 C 
ATOM      8  C   UNL     1       5.672   5.810  16.830  0.00  0.00    +0.000 C 
ENDROOT
BRANCH   1  14
ATOM      9  C   UNL     1       3.682   1.217  18.170  0.00  0.00    +0.000 C 
ATOM     10  C   UNL     1       3.082   2.582  17.981  0.00  0.00    +0.000 A 
ATOM     11  N   UNL     1       1.759   2.671  17.758  0.00  0.00    +0.000 NA
ATOM     12  N   UNL     1       1.271   3.898  17.735  0.00  0.00    +0.000 NA
ATOM     13 SE   UNL     1       2.471   5.176  18.059  0.00  0.00    +0.000 Se
ATOM     14  C   UNL     1       3.708   3.835  18.151  0.00  0.00    +0.000 A 
ENDBRANCH   1  14
TORSDOF 1
ENDMDL
MODEL 8
REMARK VINA RESULT:      -6.2      2.185      4.983
REMARK  Name = 
REMARK  2 active torsions:
REMARK  status: ('A' for Active; 'I' for Inactive)
REMARK    1  A    between atoms: C_1  and  C_2
REMARK    2  A    between atoms: C_6  and  C_7
REMARK                            x       y       z     vdW  Elec       q    Type
REMARK                         _______ _______ _______ _____ _____    ______ ____
ROOT
ATOM      1  C   UNL     1       4.604   3.685  18.979  0.00  0.00    +0.000 C 
ATOM      2  O   UNL     1       5.321   3.164  19.824  0.00  0.00    +0.000 OA
ATOM      3  N   UNL     1       5.178   4.541  18.063  0.00  0.00    +0.000 N 
ATOM      4  C   UNL     1       6.639   4.639  17.944  0.00  0.00    +0.000 C 
ATOM      5  C   UNL     1       7.100   6.085  18.143  0.00  0.00    +0.000 C 
ATOM      6  C   UNL     1       6.379   6.990  17.143  0.00  0.00    +0.000 C 
ATOM      7  C   UNL     1       4.870   6.879  17.365  0.00  0.00    +0.000 C 
ATOM      8  C   UNL     1       4.406   5.423  17.198  0.00  0.00    +0.000 C 
ENDROOT
BRANCH   1  14
ATOM      9  C   UNL     1       2.173   4.980  20.795  0.00  0.00    +0.000 C 
ATOM     10  C   UNL     1       2.100   3.858  19.798  0.00  0.00    +0.000 A 
ATOM     11  N   UNL     1       0.886   3.396  19.447  0.00  0.00    +0.000 NA
ATOM     12  N   UNL     1       0.882   2.507  18.470  0.00  0.00    +0.000 NA
ATOM     13 SE   UNL     1       2.490   2.148  17.790  0.00  0.00    +0.000 Se
ATOM     14  C   UNL     1       3.153   3.297  19.046  0.00  0.00    +0.000 A 
ENDBRANCH   1  14
TORSDOF 1
ENDMDL
MODEL 9
REMARK VINA RESULT:      -6.2      1.390      1.620
REMARK  Name = 
REMARK  2 active torsions:
REMARK  status: ('A' for Active; 'I' for Inactive)
REMARK    1  A    between atoms: C_1  and  C_2
REMARK    2  A    between atoms: C_6  and  C_7
REMARK                            x       y       z     vdW  Elec       q    Type
REMARK                         _______ _______ _______ _____ _____    ______ ____
ROOT
ATOM      1  C   UNL     1       4.917   4.602  18.923  0.00  0.00    +0.000 C 
ATOM      2  O   UNL     1       5.587   4.510  19.944  0.00  0.00    +0.000 OA
ATOM      3  N   UNL     1       3.615   4.145  18.944  0.00  0.00    +0.000 N 
ATOM      4  C   UNL     1       2.971   3.782  20.214  0.00  0.00    +0.000 C 
ATOM      5  C   UNL     1       2.462   2.340  20.168  0.00  0.00    +0.000 C 
ATOM      6  C   UNL     1       1.521   2.171  18.974  0.00  0.00    +0.000 C 
ATOM      7  C   UNL     1       2.276   2.509  17.688  0.00  0.00    +0.000 C 
ATOM      8  C   UNL     1       2.817   3.947  17.743  0.00  0.00    +0.000 C 
ENDROOT
BRANCH   1  14
ATOM      9  C   UNL     1       4.132   7.329  17.242  0.00  0.00    +0.000 C 
ATOM     10  C   UNL     1       5.307   6.414  17.044  0.00  0.00    +0.000 A 
ATOM     11  N   UNL     1       6.277   6.797  16.193  0.00  0.00    +0.000 NA
ATOM     12  N   UNL     1       7.343   6.018  16.165  0.00  0.00    +0.000 NA
ATOM     13 SE   UNL     1       7.288   4.648  17.304  0.00  0.00    +0.000 Se
ATOM     14  C   UNL     1       5.617   5.236  17.754  0.00  0.00    +0.000 A 
ENDBRANCH   1  14
TORSDOF 1
ENDMDL
