MODEL 1
REMARK VINA RESULT:      -7.6      0.000      0.000
REMARK  Name = 
REMARK  12 active torsions:
REMARK  status: ('A' for Active; 'I' for Inactive)
REMARK    1  A    between atoms: C_1  and  N_2
REMARK    2  A    between atoms: N_2  and  C_3
REMARK    3  A    between atoms: N_2  and  C_4
REMARK    4  A    between atoms: C_4  and  C_5
REMARK    5  A    between atoms: C_5  and  C_6
REMARK    6  A    between atoms: C_6  and  O_7
REMARK    7  A    between atoms: O_7  and  C_8
REMARK    8  A    between atoms: C_8  and  C_10
REMARK    9  A    between atoms: C_11  and  C_12
REMARK   10  A    between atoms: C_12  and  C_14
REMARK   11  A    between atoms: C_14  and  C_15
REMARK   12  A    between atoms: N_23  and  C_24
REMARK                            x       y       z     vdW  Elec       q    Type
REMARK                         _______ _______ _______ _____ _____    ______ ____
ROOT
ATOM      1  C   UNL     1       4.482   4.718  16.817  0.00  0.00    +0.000 A 
ATOM      2  C   UNL     1       4.566   3.392  17.243  0.00  0.00    +0.000 A 
ATOM      3  C   UNL     1       3.960   2.996  18.444  0.00  0.00    +0.000 A 
ATOM      4  C   UNL     1       3.234   3.883  19.231  0.00  0.00    +0.000 A 
ATOM      5  N   UNL     1       2.663   3.433  20.352  0.00  0.00    +0.000 NA
ATOM      6  C   UNL     1       1.958   4.324  21.059  0.00  0.00    +0.000 A 
ATOM      7  N   UNL     1       1.771   5.608  20.745  0.00  0.00    +0.000 NA
ATOM      8  C   UNL     1       2.344   6.053  19.611  0.00  0.00    +0.000 A 
ATOM      9  N   UNL     1       2.129   7.407  19.221  0.00  0.00    +0.000 N 
ATOM     10  C   UNL     1       3.126   5.214  18.802  0.00  0.00    +0.000 A 
ATOM     11  C   UNL     1       3.785   5.628  17.619  0.00  0.00    +0.000 A 
ATOM     12  H   UNL     1       1.747   7.439  18.281  0.00  0.00    +0.000 HD
ENDROOT
BRANCH   9  13
ATOM     13  C   UNL     1       1.595   8.403  20.069  0.00  0.00    +0.000 A 
ATOM     14  C   UNL     1       1.473   8.158  21.446  0.00  0.00    +0.000 A 
ATOM     15  C   UNL     1       0.868   9.082  22.294  0.00  0.00    +0.000 A 
ATOM     16  C   UNL     1       0.383  10.279  21.776  0.00  0.00    +0.000 A 
ATOM     17  C   UNL     1       0.535  10.552  20.417  0.00  0.00    +0.000 A 
ATOM     18 BR   UNL     1      -0.130  12.181  19.723  0.00  0.00    +0.000 Br
ATOM     19  C   UNL     1       1.148   9.629  19.563  0.00  0.00    +0.000 A 
ENDBRANCH   9  13
BRANCH   1  20
ATOM     20  C   UNL     1       5.047   5.158  15.489  0.00  0.00    +0.000 C 
BRANCH  20  21
ATOM     21  C   UNL     1       6.561   5.100  15.409  0.00  0.00    +0.000 C 
ATOM     22  O   UNL     1       7.145   4.637  14.435  0.00  0.00    +0.000 OA
BRANCH  21  24
ATOM     23  C   UNL     1       7.239   6.951  16.868  0.00  0.00    +0.000 C 
ATOM     24  C   UNL     1       7.317   5.646  16.570  0.00  0.00    +0.000 C 
BRANCH  23  25
ATOM     25  C   UNL     1       7.892   7.454  18.093  0.00  0.00    +0.000 C 
ATOM     26  O   UNL     1       8.007   6.823  19.130  0.00  0.00    +0.000 OA
BRANCH  25  27
ATOM     27  O   UNL     1       8.177   8.766  17.900  0.00  0.00    +0.000 OA
BRANCH  27  28
ATOM     28  C   UNL     1       8.905   9.370  18.979  0.00  0.00    +0.000 C 
BRANCH  28  29
ATOM     29  C   UNL     1       9.527  10.709  18.598  0.00  0.00    +0.000 C 
BRANCH  29  30
ATOM     30  C   UNL     1       8.484  11.651  17.964  0.00  0.00    +0.000 C 
BRANCH  30  32
ATOM     31  C   UNL     1      10.046  13.497  17.672  0.00  0.00    +0.000 C 
ATOM     32  N   UNL     1       8.742  13.083  18.199  0.00  0.00    +0.000 NA
ATOM     33  C   UNL     1       7.689  13.909  17.600  0.00  0.00    +0.000 C 
ENDBRANCH  30  32
ENDBRANCH  29  30
ENDBRANCH  28  29
ENDBRANCH  27  28
ENDBRANCH  25  27
ENDBRANCH  23  25
ENDBRANCH  21  24
ENDBRANCH  20  21
ENDBRANCH   1  20
TORSDOF 10
ENDMDL
MODEL 2
REMARK VINA RESULT:      -7.6      1.803      2.459
REMARK  Name = 
REMARK  12 active torsions:
REMARK  status: ('A' for Active; 'I' for Inactive)
REMARK    1  A    between atoms: C_1  and  N_2
REMARK    2  A    between atoms: N_2  and  C_3
REMARK    3  A    between atoms: N_2  and  C_4
REMARK    4  A    between atoms: C_4  and  C_5
REMARK    5  A    between atoms: C_5  and  C_6
REMARK    6  A    between atoms: C_6  and  O_7
REMARK    7  A    between atoms: O_7  and  C_8
REMARK    8  A    between atoms: C_8  and  C_10
REMARK    9  A    between atoms: C_11  and  C_12
REMARK   10  A    between atoms: C_12  and  C_14
REMARK   11  A    between atoms: C_14  and  C_15
REMARK   12  A    between atoms: N_23  and  C_24
REMARK                            x       y       z     vdW  Elec       q    Type
REMARK                         _______ _______ _______ _____ _____    ______ ____
ROOT
ATOM      1  C   UNL     1       5.875   5.027  18.612  0.00  0.00    +0.000 A 
ATOM      2  C   UNL     1       5.712   3.687  18.966  0.00  0.00    +0.000 A 
ATOM      3  C   UNL     1       4.515   3.251  19.549  0.00  0.00    +0.000 A 
ATOM      4  C   UNL     1       3.444   4.112  19.767  0.00  0.00    +0.000 A 
ATOM      5  N   UNL     1       2.323   3.625  20.307  0.00  0.00    +0.000 NA
ATOM      6  C   UNL     1       1.318   4.493  20.473  0.00  0.00    +0.000 A 
ATOM      7  N   UNL     1       1.332   5.787  20.146  0.00  0.00    +0.000 NA
ATOM      8  C   UNL     1       2.463   6.269  19.598  0.00  0.00    +0.000 A 
ATOM      9  N   UNL     1       2.499   7.636  19.195  0.00  0.00    +0.000 N 
ATOM     10  C   UNL     1       3.590   5.457  19.398  0.00  0.00    +0.000 A 
ATOM     11  C   UNL     1       4.819   5.910  18.860  0.00  0.00    +0.000 A 
ATOM     12  H   UNL     1       2.758   7.701  18.216  0.00  0.00    +0.000 HD
ENDROOT
BRANCH   9  13
ATOM     13  C   UNL     1       1.544   8.603  19.580  0.00  0.00    +0.000 A 
ATOM     14  C   UNL     1       1.063   9.526  18.638  0.00  0.00    +0.000 A 
ATOM     15  C   UNL     1       0.190  10.547  19.006  0.00  0.00    +0.000 A 
ATOM     16  C   UNL     1      -0.227  10.655  20.329  0.00  0.00    +0.000 A 
ATOM     17  C   UNL     1       0.212   9.719  21.265  0.00  0.00    +0.000 A 
ATOM     18 BR   UNL     1      -0.360   9.875  23.062  0.00  0.00    +0.000 Br
ATOM     19  C   UNL     1       1.082   8.688  20.898  0.00  0.00    +0.000 A 
ENDBRANCH   9  13
BRANCH   1  20
ATOM     20  C   UNL     1       7.116   5.511  17.903  0.00  0.00    +0.000 C 
BRANCH  20  21
ATOM     21  C   UNL     1       7.071   6.973  17.499  0.00  0.00    +0.000 C 
ATOM     22  O   UNL     1       6.388   7.369  16.561  0.00  0.00    +0.000 OA
BRANCH  21  24
ATOM     23  C   UNL     1       8.242   9.108  17.794  0.00  0.00    +0.000 C 
ATOM     24  C   UNL     1       7.892   7.919  18.305  0.00  0.00    +0.000 C 
BRANCH  23  25
ATOM     25  C   UNL     1       8.947  10.083  18.648  0.00  0.00    +0.000 C 
ATOM     26  O   UNL     1       9.176   9.932  19.836  0.00  0.00    +0.000 OA
BRANCH  25  27
ATOM     27  O   UNL     1       9.136  11.211  17.919  0.00  0.00    +0.000 OA
BRANCH  27  28
ATOM     28  C   UNL     1      10.513  11.574  17.747  0.00  0.00    +0.000 C 
BRANCH  28  29
ATOM     29  C   UNL     1      10.692  12.988  17.208  0.00  0.00    +0.000 C 
BRANCH  29  30
ATOM     30  C   UNL     1       9.887  14.010  18.035  0.00  0.00    +0.000 C 
BRANCH  30  32
ATOM     31  C   UNL     1      11.556  15.297  19.254  0.00  0.00    +0.000 C 
ATOM     32  N   UNL     1      10.549  15.317  18.190  0.00  0.00    +0.000 NA
ATOM     33  C   UNL     1      11.175  15.738  16.933  0.00  0.00    +0.000 C 
ENDBRANCH  30  32
ENDBRANCH  29  30
ENDBRANCH  28  29
ENDBRANCH  27  28
ENDBRANCH  25  27
ENDBRANCH  23  25
ENDBRANCH  21  24
ENDBRANCH  20  21
ENDBRANCH   1  20
TORSDOF 10
ENDMDL
MODEL 3
REMARK VINA RESULT:      -7.6      4.572      7.999
REMARK  Name = 
REMARK  12 active torsions:
REMARK  status: ('A' for Active; 'I' for Inactive)
REMARK    1  A    between atoms: C_1  and  N_2
REMARK    2  A    between atoms: N_2  and  C_3
REMARK    3  A    between atoms: N_2  and  C_4
REMARK    4  A    between atoms: C_4  and  C_5
REMARK    5  A    between atoms: C_5  and  C_6
REMARK    6  A    between atoms: C_6  and  O_7
REMARK    7  A    between atoms: O_7  and  C_8
REMARK    8  A    between atoms: C_8  and  C_10
REMARK    9  A    between atoms: C_11  and  C_12
REMARK   10  A    between atoms: C_12  and  C_14
REMARK   11  A    between atoms: C_14  and  C_15
REMARK   12  A    between atoms: N_23  and  C_24
REMARK                            x       y       z     vdW  Elec       q    Type
REMARK                         _______ _______ _______ _____ _____    ______ ____
ROOT
ATOM      1  C   UNL     1       1.087   8.905  20.309  0.00  0.00    +0.000 A 
ATOM      2  C   UNL     1       1.397   9.129  18.967  0.00  0.00    +0.000 A 
ATOM      3  C   UNL     1       0.957  10.295  18.325  0.00  0.00    +0.000 A 
ATOM      4  C   UNL     1       0.234  11.277  18.995  0.00  0.00    +0.000 A 
ATOM      5  N   UNL     1      -0.134  12.375  18.328  0.00  0.00    +0.000 NA
ATOM      6  C   UNL     1      -0.808  13.296  19.028  0.00  0.00    +0.000 A 
ATOM      7  N   UNL     1      -1.137  13.220  20.319  0.00  0.00    +0.000 NA
ATOM      8  C   UNL     1      -0.758  12.114  20.985  0.00  0.00    +0.000 A 
ATOM      9  N   UNL     1      -1.052  12.018  22.377  0.00  0.00    +0.000 N 
ATOM     10  C   UNL     1      -0.067  11.071  20.349  0.00  0.00    +0.000 A 
ATOM     11  C   UNL     1       0.329   9.868  20.983  0.00  0.00    +0.000 A 
ATOM     12  H   UNL     1      -0.200  11.847  22.900  0.00  0.00    +0.000 HD
ENDROOT
BRANCH   9  13
ATOM     13  C   UNL     1      -1.958  12.862  23.057  0.00  0.00    +0.000 A 
ATOM     14  C   UNL     1      -1.480  13.976  23.765  0.00  0.00    +0.000 A 
ATOM     15  C   UNL     1      -2.337  14.775  24.519  0.00  0.00    +0.000 A 
ATOM     16  C   UNL     1      -3.695  14.477  24.568  0.00  0.00    +0.000 A 
ATOM     17  C   UNL     1      -4.187  13.397  23.835  0.00  0.00    +0.000 A 
ATOM     18 BR   UNL     1      -6.035  12.999  23.910  0.00  0.00    +0.000 Br
ATOM     19  C   UNL     1      -3.332  12.596  23.071  0.00  0.00    +0.000 A 
ENDBRANCH   9  13
BRANCH   1  20
ATOM     20  C   UNL     1       1.619   7.703  21.052  0.00  0.00    +0.000 C 
BRANCH  20  21
ATOM     21  C   UNL     1       2.114   6.586  20.152  0.00  0.00    +0.000 C 
ATOM     22  O   UNL     1       2.982   6.769  19.304  0.00  0.00    +0.000 OA
BRANCH  21  24
ATOM     23  C   UNL     1       2.269   4.207  20.726  0.00  0.00    +0.000 C 
ATOM     24  C   UNL     1       1.505   5.242  20.350  0.00  0.00    +0.000 C 
BRANCH  23  25
ATOM     25  C   UNL     1       1.633   2.913  21.040  0.00  0.00    +0.000 C 
ATOM     26  O   UNL     1       1.480   2.467  22.165  0.00  0.00    +0.000 OA
BRANCH  25  27
ATOM     27  O   UNL     1       1.413   2.265  19.869  0.00  0.00    +0.000 OA
BRANCH  27  28
ATOM     28  C   UNL     1       2.602   2.016  19.106  0.00  0.00    +0.000 C 
BRANCH  28  29
ATOM     29  C   UNL     1       2.466   2.426  17.644  0.00  0.00    +0.000 C 
BRANCH  29  30
ATOM     30  C   UNL     1       3.226   3.735  17.355  0.00  0.00    +0.000 C 
BRANCH  30  32
ATOM     31  C   UNL     1       5.262   3.959  16.037  0.00  0.00    +0.000 C 
ATOM     32  N   UNL     1       4.692   3.589  17.335  0.00  0.00    +0.000 NA
ATOM     33  C   UNL     1       5.313   4.399  18.389  0.00  0.00    +0.000 C 
ENDBRANCH  30  32
ENDBRANCH  29  30
ENDBRANCH  28  29
ENDBRANCH  27  28
ENDBRANCH  25  27
ENDBRANCH  23  25
ENDBRANCH  21  24
ENDBRANCH  20  21
ENDBRANCH   1  20
TORSDOF 10
ENDMDL
MODEL 4
REMARK VINA RESULT:      -7.6      1.837      2.287
REMARK  Name = 
REMARK  12 active torsions:
REMARK  status: ('A' for Active; 'I' for Inactive)
REMARK    1  A    between atoms: C_1  and  N_2
REMARK    2  A    between atoms: N_2  and  C_3
REMARK    3  A    between atoms: N_2  and  C_4
REMARK    4  A    between atoms: C_4  and  C_5
REMARK    5  A    between atoms: C_5  and  C_6
REMARK    6  A    between atoms: C_6  and  O_7
REMARK    7  A    between atoms: O_7  and  C_8
REMARK    8  A    between atoms: C_8  and  C_10
REMARK    9  A    between atoms: C_11  and  C_12
REMARK   10  A    between atoms: C_12  and  C_14
REMARK   11  A    between atoms: C_14  and  C_15
REMARK   12  A    between atoms: N_23  and  C_24
REMARK                            x       y       z     vdW  Elec       q    Type
REMARK                         _______ _______ _______ _____ _____    ______ ____
ROOT
ATOM      1  C   UNL     1       5.743   4.690  18.812  0.00  0.00    +0.000 A 
ATOM      2  C   UNL     1       5.503   3.340  19.069  0.00  0.00    +0.000 A 
ATOM      3  C   UNL     1       4.258   2.925  19.563  0.00  0.00    +0.000 A 
ATOM      4  C   UNL     1       3.217   3.821  19.783  0.00  0.00    +0.000 A 
ATOM      5  N   UNL     1       2.048   3.355  20.233  0.00  0.00    +0.000 NA
ATOM      6  C   UNL     1       1.075   4.257  20.405  0.00  0.00    +0.000 A 
ATOM      7  N   UNL     1       1.163   5.567  20.163  0.00  0.00    +0.000 NA
ATOM      8  C   UNL     1       2.342   6.029  19.704  0.00  0.00    +0.000 A 
ATOM      9  N   UNL     1       2.460   7.415  19.392  0.00  0.00    +0.000 N 
ATOM     10  C   UNL     1       3.441   5.178  19.508  0.00  0.00    +0.000 A 
ATOM     11  C   UNL     1       4.715   5.605  19.063  0.00  0.00    +0.000 A 
ATOM     12  H   UNL     1       2.772   7.528  18.434  0.00  0.00    +0.000 HD
ENDROOT
BRANCH   9  13
ATOM     13  C   UNL     1       1.529   8.400  19.791  0.00  0.00    +0.000 A 
ATOM     14  C   UNL     1       1.067   9.344  18.860  0.00  0.00    +0.000 A 
ATOM     15  C   UNL     1       0.220  10.382  19.242  0.00  0.00    +0.000 A 
ATOM     16  C   UNL     1      -0.189  10.485  20.568  0.00  0.00    +0.000 A 
ATOM     17  C   UNL     1       0.230   9.529  21.493  0.00  0.00    +0.000 A 
ATOM     18 BR   UNL     1      -0.332   9.681  23.293  0.00  0.00    +0.000 Br
ATOM     19  C   UNL     1       1.074   8.482  21.112  0.00  0.00    +0.000 A 
ENDBRANCH   9  13
BRANCH   1  20
ATOM     20  C   UNL     1       7.040   5.157  18.198  0.00  0.00    +0.000 C 
BRANCH  20  21
ATOM     21  C   UNL     1       6.874   6.217  17.125  0.00  0.00    +0.000 C 
ATOM     22  O   UNL     1       6.606   5.932  15.963  0.00  0.00    +0.000 OA
BRANCH  21  24
ATOM     23  C   UNL     1       8.229   8.070  17.988  0.00  0.00    +0.000 C 
ATOM     24  C   UNL     1       7.040   7.635  17.549  0.00  0.00    +0.000 C 
BRANCH  23  25
ATOM     25  C   UNL     1       8.412   9.504  18.286  0.00  0.00    +0.000 C 
ATOM     26  O   UNL     1       7.898  10.416  17.660  0.00  0.00    +0.000 OA
BRANCH  25  27
ATOM     27  O   UNL     1       9.361   9.609  19.249  0.00  0.00    +0.000 OA
BRANCH  27  28
ATOM     28  C   UNL     1       9.294  10.826  20.006  0.00  0.00    +0.000 C 
BRANCH  28  29
ATOM     29  C   UNL     1      10.612  11.592  20.016  0.00  0.00    +0.000 C 
BRANCH  29  30
ATOM     30  C   UNL     1      10.375  13.115  20.008  0.00  0.00    +0.000 C 
BRANCH  30  32
ATOM     31  C   UNL     1      12.332  13.321  18.573  0.00  0.00    +0.000 C 
ATOM     32  N   UNL     1      11.570  13.910  19.677  0.00  0.00    +0.000 NA
ATOM     33  C   UNL     1      11.204  15.289  19.337  0.00  0.00    +0.000 C 
ENDBRANCH  30  32
ENDBRANCH  29  30
ENDBRANCH  28  29
ENDBRANCH  27  28
ENDBRANCH  25  27
ENDBRANCH  23  25
ENDBRANCH  21  24
ENDBRANCH  20  21
ENDBRANCH   1  20
TORSDOF 10
ENDMDL
MODEL 5
REMARK VINA RESULT:      -7.4      0.953      1.066
REMARK  Name = 
REMARK  12 active torsions:
REMARK  status: ('A' for Active; 'I' for Inactive)
REMARK    1  A    between atoms: C_1  and  N_2
REMARK    2  A    between atoms: N_2  and  C_3
REMARK    3  A    between atoms: N_2  and  C_4
REMARK    4  A    between atoms: C_4  and  C_5
REMARK    5  A    between atoms: C_5  and  C_6
REMARK    6  A    between atoms: C_6  and  O_7
REMARK    7  A    between atoms: O_7  and  C_8
REMARK    8  A    between atoms: C_8  and  C_10
REMARK    9  A    between atoms: C_11  and  C_12
REMARK   10  A    between atoms: C_12  and  C_14
REMARK   11  A    between atoms: C_14  and  C_15
REMARK   12  A    between atoms: N_23  and  C_24
REMARK                            x       y       z     vdW  Elec       q    Type
REMARK                         _______ _______ _______ _____ _____    ______ ____
ROOT
ATOM      1  C   UNL     1       4.468   4.480  16.733  0.00  0.00    +0.000 A 
ATOM      2  C   UNL     1       4.545   3.186  17.249  0.00  0.00    +0.000 A 
ATOM      3  C   UNL     1       3.934   2.875  18.472  0.00  0.00    +0.000 A 
ATOM      4  C   UNL     1       3.209   3.816  19.194  0.00  0.00    +0.000 A 
ATOM      5  N   UNL     1       2.632   3.446  20.341  0.00  0.00    +0.000 NA
ATOM      6  C   UNL     1       1.928   4.387  20.983  0.00  0.00    +0.000 A 
ATOM      7  N   UNL     1       1.747   5.647  20.581  0.00  0.00    +0.000 NA
ATOM      8  C   UNL     1       2.327   6.011  19.422  0.00  0.00    +0.000 A 
ATOM      9  N   UNL     1       2.118   7.336  18.939  0.00  0.00    +0.000 N 
ATOM     10  C   UNL     1       3.108   5.115  18.675  0.00  0.00    +0.000 A 
ATOM     11  C   UNL     1       3.772   5.445  17.468  0.00  0.00    +0.000 A 
ATOM     12  H   UNL     1       1.740   7.305  17.998  0.00  0.00    +0.000 HD
ENDROOT
BRANCH   9  13
ATOM     13  C   UNL     1       1.585   8.389  19.715  0.00  0.00    +0.000 A 
ATOM     14  C   UNL     1       1.461   8.241  21.106  0.00  0.00    +0.000 A 
ATOM     15  C   UNL     1       0.857   9.223  21.887  0.00  0.00    +0.000 A 
ATOM     16  C   UNL     1       0.376  10.382  21.286  0.00  0.00    +0.000 A 
ATOM     17  C   UNL     1       0.531  10.559  19.912  0.00  0.00    +0.000 A 
ATOM     18 BR   UNL     1      -0.129  12.138  19.106  0.00  0.00    +0.000 Br
ATOM     19  C   UNL     1       1.142   9.579  19.125  0.00  0.00    +0.000 A 
ENDBRANCH   9  13
BRANCH   1  20
ATOM     20  C   UNL     1       5.040   4.825  15.380  0.00  0.00    +0.000 C 
BRANCH  20  21
ATOM     21  C   UNL     1       6.546   5.013  15.371  0.00  0.00    +0.000 C 
ATOM     22  O   UNL     1       7.223   4.801  14.371  0.00  0.00    +0.000 OA
BRANCH  21  24
ATOM     23  C   UNL     1       7.331   6.792  16.866  0.00  0.00    +0.000 C 
ATOM     24  C   UNL     1       7.172   5.480  16.639  0.00  0.00    +0.000 C 
BRANCH  23  25
ATOM     25  C   UNL     1       7.837   7.244  18.176  0.00  0.00    +0.000 C 
ATOM     26  O   UNL     1       8.122   6.507  19.105  0.00  0.00    +0.000 OA
BRANCH  25  27
ATOM     27  O   UNL     1       7.767   8.598  18.201  0.00  0.00    +0.000 OA
BRANCH  27  28
ATOM     28  C   UNL     1       9.045   9.251  18.183  0.00  0.00    +0.000 C 
BRANCH  28  29
ATOM     29  C   UNL     1       8.962  10.729  18.546  0.00  0.00    +0.000 C 
BRANCH  29  30
ATOM     30  C   UNL     1       9.699  11.024  19.867  0.00  0.00    +0.000 C 
BRANCH  30  32
ATOM     31  C   UNL     1      11.199  12.178  18.333  0.00  0.00    +0.000 C 
ATOM     32  N   UNL     1      10.822  11.969  19.734  0.00  0.00    +0.000 NA
ATOM     33  C   UNL     1      10.495  13.260  20.348  0.00  0.00    +0.000 C 
ENDBRANCH  30  32
ENDBRANCH  29  30
ENDBRANCH  28  29
ENDBRANCH  27  28
ENDBRANCH  25  27
ENDBRANCH  23  25
ENDBRANCH  21  24
ENDBRANCH  20  21
ENDBRANCH   1  20
TORSDOF 10
ENDMDL
MODEL 6
REMARK VINA RESULT:      -7.4      3.316      9.128
REMARK  Name = 
REMARK  12 active torsions:
REMARK  status: ('A' for Active; 'I' for Inactive)
REMARK    1  A    between atoms: C_1  and  N_2
REMARK    2  A    between atoms: N_2  and  C_3
REMARK    3  A    between atoms: N_2  and  C_4
REMARK    4  A    between atoms: C_4  and  C_5
REMARK    5  A    between atoms: C_5  and  C_6
REMARK    6  A    between atoms: C_6  and  O_7
REMARK    7  A    between atoms: O_7  and  C_8
REMARK    8  A    between atoms: C_8  and  C_10
REMARK    9  A    between atoms: C_11  and  C_12
REMARK   10  A    between atoms: C_12  and  C_14
REMARK   11  A    between atoms: C_14  and  C_15
REMARK   12  A    between atoms: N_23  and  C_24
REMARK                            x       y       z     vdW  Elec       q    Type
REMARK                         _______ _______ _______ _____ _____    ______ ____
ROOT
ATOM      1  C   UNL     1       9.525  11.025  18.536  0.00  0.00    +0.000 A 
ATOM      2  C   UNL     1      10.775  11.362  18.015  0.00  0.00    +0.000 A 
ATOM      3  C   UNL     1      11.037  12.676  17.601  0.00  0.00    +0.000 A 
ATOM      4  C   UNL     1      10.092  13.689  17.720  0.00  0.00    +0.000 A 
ATOM      5  N   UNL     1      10.416  14.924  17.328  0.00  0.00    +0.000 NA
ATOM      6  C   UNL     1       9.476  15.864  17.486  0.00  0.00    +0.000 A 
ATOM      7  N   UNL     1       8.258  15.681  18.001  0.00  0.00    +0.000 NA
ATOM      8  C   UNL     1       7.941  14.435  18.400  0.00  0.00    +0.000 A 
ATOM      9  N   UNL     1       6.665  14.211  18.997  0.00  0.00    +0.000 N 
ATOM     10  C   UNL     1       8.839  13.365  18.261  0.00  0.00    +0.000 A 
ATOM     11  C   UNL     1       8.554  12.027  18.627  0.00  0.00    +0.000 A 
ATOM     12  H   UNL     1       6.781  13.783  19.909  0.00  0.00    +0.000 HD
ENDROOT
BRANCH   9  13
ATOM     13  C   UNL     1       5.594  15.131  18.949  0.00  0.00    +0.000 A 
ATOM     14  C   UNL     1       4.717  15.128  17.853  0.00  0.00    +0.000 A 
ATOM     15  C   UNL     1       3.707  16.080  17.732  0.00  0.00    +0.000 A 
ATOM     16  C   UNL     1       3.551  17.049  18.718  0.00  0.00    +0.000 A 
ATOM     17  C   UNL     1       4.390  17.036  19.832  0.00  0.00    +0.000 A 
ATOM     18 BR   UNL     1       4.170  18.359  21.167  0.00  0.00    +0.000 Br
ATOM     19  C   UNL     1       5.401  16.078  19.961  0.00  0.00    +0.000 A 
ENDBRANCH   9  13
BRANCH   1  20
ATOM     20  C   UNL     1       9.240   9.643  19.070  0.00  0.00    +0.000 C 
BRANCH  20  21
ATOM     21  C   UNL     1       8.287   8.830  18.213  0.00  0.00    +0.000 C 
ATOM     22  O   UNL     1       7.546   9.352  17.389  0.00  0.00    +0.000 OA
BRANCH  21  24
ATOM     23  C   UNL     1       7.295   6.605  17.934  0.00  0.00    +0.000 C 
ATOM     24  C   UNL     1       8.299   7.354  18.410  0.00  0.00    +0.000 C 
BRANCH  23  25
ATOM     25  C   UNL     1       7.381   5.134  18.026  0.00  0.00    +0.000 C 
ATOM     26  O   UNL     1       8.081   4.432  17.316  0.00  0.00    +0.000 OA
BRANCH  25  27
ATOM     27  O   UNL     1       6.438   4.719  18.908  0.00  0.00    +0.000 OA
BRANCH  27  28
ATOM     28  C   UNL     1       5.109   4.679  18.368  0.00  0.00    +0.000 C 
BRANCH  28  29
ATOM     29  C   UNL     1       4.030   4.791  19.439  0.00  0.00    +0.000 C 
BRANCH  29  30
ATOM     30  C   UNL     1       3.543   3.401  19.892  0.00  0.00    +0.000 C 
BRANCH  30  32
ATOM     31  C   UNL     1       1.472   2.363  19.139  0.00  0.00    +0.000 C 
ATOM     32  N   UNL     1       2.085   3.304  20.081  0.00  0.00    +0.000 NA
ATOM     33  C   UNL     1       1.761   2.901  21.453  0.00  0.00    +0.000 C 
ENDBRANCH  30  32
ENDBRANCH  29  30
ENDBRANCH  28  29
ENDBRANCH  27  28
ENDBRANCH  25  27
ENDBRANCH  23  25
ENDBRANCH  21  24
ENDBRANCH  20  21
ENDBRANCH   1  20
TORSDOF 10
ENDMDL
MODEL 7
REMARK VINA RESULT:      -7.4      1.941      2.862
REMARK  Name = 
REMARK  12 active torsions:
REMARK  status: ('A' for Active; 'I' for Inactive)
REMARK    1  A    between atoms: C_1  and  N_2
REMARK    2  A    between atoms: N_2  and  C_3
REMARK    3  A    between atoms: N_2  and  C_4
REMARK    4  A    between atoms: C_4  and  C_5
REMARK    5  A    between atoms: C_5  and  C_6
REMARK    6  A    between atoms: C_6  and  O_7
REMARK    7  A    between atoms: O_7  and  C_8
REMARK    8  A    between atoms: C_8  and  C_10
REMARK    9  A    between atoms: C_11  and  C_12
REMARK   10  A    between atoms: C_12  and  C_14
REMARK   11  A    between atoms: C_14  and  C_15
REMARK   12  A    between atoms: N_23  and  C_24
REMARK                            x       y       z     vdW  Elec       q    Type
REMARK                         _______ _______ _______ _____ _____    ______ ____
ROOT
ATOM      1  C   UNL     1       6.276   5.632  18.460  0.00  0.00    +0.000 A 
ATOM      2  C   UNL     1       6.154   4.275  18.156  0.00  0.00    +0.000 A 
ATOM      3  C   UNL     1       4.886   3.695  18.009  0.00  0.00    +0.000 A 
ATOM      4  C   UNL     1       3.717   4.439  18.125  0.00  0.00    +0.000 A 
ATOM      5  N   UNL     1       2.542   3.827  17.950  0.00  0.00    +0.000 NA
ATOM      6  C   UNL     1       1.451   4.596  18.050  0.00  0.00    +0.000 A 
ATOM      7  N   UNL     1       1.431   5.907  18.301  0.00  0.00    +0.000 NA
ATOM      8  C   UNL     1       2.619   6.518  18.470  0.00  0.00    +0.000 A 
ATOM      9  N   UNL     1       2.639   7.926  18.695  0.00  0.00    +0.000 N 
ATOM     10  C   UNL     1       3.828   5.808  18.411  0.00  0.00    +0.000 A 
ATOM     11  C   UNL     1       5.106   6.383  18.615  0.00  0.00    +0.000 A 
ATOM     12  H   UNL     1       3.230   8.377  18.005  0.00  0.00    +0.000 HD
ENDROOT
BRANCH   9  13
ATOM     13  C   UNL     1       1.502   8.691  19.037  0.00  0.00    +0.000 A 
ATOM     14  C   UNL     1       0.765   9.336  18.031  0.00  0.00    +0.000 A 
ATOM     15  C   UNL     1      -0.306  10.171  18.342  0.00  0.00    +0.000 A 
ATOM     16  C   UNL     1      -0.665  10.366  19.672  0.00  0.00    +0.000 A 
ATOM     17  C   UNL     1       0.034   9.699  20.677  0.00  0.00    +0.000 A 
ATOM     18 BR   UNL     1      -0.461   9.973  22.482  0.00  0.00    +0.000 Br
ATOM     19  C   UNL     1       1.105   8.854  20.369  0.00  0.00    +0.000 A 
ENDBRANCH   9  13
BRANCH   1  20
ATOM     20  C   UNL     1       7.624   6.304  18.538  0.00  0.00    +0.000 C 
BRANCH  20  21
ATOM     21  C   UNL     1       7.876   7.321  17.440  0.00  0.00    +0.000 C 
ATOM     22  O   UNL     1       7.886   7.011  16.255  0.00  0.00    +0.000 OA
BRANCH  21  24
ATOM     23  C   UNL     1       8.862   8.993  18.939  0.00  0.00    +0.000 C 
ATOM     24  C   UNL     1       8.101   8.730  17.868  0.00  0.00    +0.000 C 
BRANCH  23  25
ATOM     25  C   UNL     1       9.178  10.395  19.276  0.00  0.00    +0.000 C 
ATOM     26  O   UNL     1       9.335  10.820  20.409  0.00  0.00    +0.000 OA
BRANCH  25  27
ATOM     27  O   UNL     1       9.097  11.124  18.136  0.00  0.00    +0.000 OA
BRANCH  27  28
ATOM     28  C   UNL     1      10.217  11.993  17.916  0.00  0.00    +0.000 C 
BRANCH  28  29
ATOM     29  C   UNL     1       9.983  13.406  18.436  0.00  0.00    +0.000 C 
BRANCH  29  30
ATOM     30  C   UNL     1      10.806  14.440  17.642  0.00  0.00    +0.000 C 
BRANCH  30  32
ATOM     31  C   UNL     1       9.380  16.146  18.637  0.00  0.00    +0.000 C 
ATOM     32  N   UNL     1      10.124  15.731  17.444  0.00  0.00    +0.000 NA
ATOM     33  C   UNL     1      11.083  16.778  17.079  0.00  0.00    +0.000 C 
ENDBRANCH  30  32
ENDBRANCH  29  30
ENDBRANCH  28  29
ENDBRANCH  27  28
ENDBRANCH  25  27
ENDBRANCH  23  25
ENDBRANCH  21  24
ENDBRANCH  20  21
ENDBRANCH   1  20
TORSDOF 10
ENDMDL
MODEL 8
REMARK VINA RESULT:      -7.4      6.209     10.479
REMARK  Name = 
REMARK  12 active torsions:
REMARK  status: ('A' for Active; 'I' for Inactive)
REMARK    1  A    between atoms: C_1  and  N_2
REMARK    2  A    between atoms: N_2  and  C_3
REMARK    3  A    between atoms: N_2  and  C_4
REMARK    4  A    between atoms: C_4  and  C_5
REMARK    5  A    between atoms: C_5  and  C_6
REMARK    6  A    between atoms: C_6  and  O_7
REMARK    7  A    between atoms: O_7  and  C_8
REMARK    8  A    between atoms: C_8  and  C_10
REMARK    9  A    between atoms: C_11  and  C_12
REMARK   10  A    between atoms: C_12  and  C_14
REMARK   11  A    between atoms: C_14  and  C_15
REMARK   12  A    between atoms: N_23  and  C_24
REMARK                            x       y       z     vdW  Elec       q    Type
REMARK                         _______ _______ _______ _____ _____    ______ ____
ROOT
ATOM      1  C   UNL     1      -1.329  11.365  18.955  0.00  0.00    +0.000 A 
ATOM      2  C   UNL     1      -1.704  12.084  20.091  0.00  0.00    +0.000 A 
ATOM      3  C   UNL     1      -1.215  11.717  21.353  0.00  0.00    +0.000 A 
ATOM      4  C   UNL     1      -0.326  10.660  21.520  0.00  0.00    +0.000 A 
ATOM      5  N   UNL     1       0.118  10.379  22.748  0.00  0.00    +0.000 NA
ATOM      6  C   UNL     1       0.988   9.366  22.848  0.00  0.00    +0.000 A 
ATOM      7  N   UNL     1       1.452   8.624  21.840  0.00  0.00    +0.000 NA
ATOM      8  C   UNL     1       1.005   8.918  20.604  0.00  0.00    +0.000 A 
ATOM      9  N   UNL     1       1.512   8.175  19.498  0.00  0.00    +0.000 N 
ATOM     10  C   UNL     1       0.072   9.943  20.383  0.00  0.00    +0.000 A 
ATOM     11  C   UNL     1      -0.464  10.277  19.115  0.00  0.00    +0.000 A 
ATOM     12  H   UNL     1       1.905   8.808  18.809  0.00  0.00    +0.000 HD
ENDROOT
BRANCH   9  13
ATOM     13  C   UNL     1       2.236   6.968  19.617  0.00  0.00    +0.000 A 
ATOM     14  C   UNL     1       3.429   6.793  18.899  0.00  0.00    +0.000 A 
ATOM     15  C   UNL     1       4.118   5.583  18.924  0.00  0.00    +0.000 A 
ATOM     16  C   UNL     1       3.626   4.525  19.682  0.00  0.00    +0.000 A 
ATOM     17  C   UNL     1       2.463   4.700  20.433  0.00  0.00    +0.000 A 
ATOM     18 BR   UNL     1       1.802   3.255  21.458  0.00  0.00    +0.000 Br
ATOM     19  C   UNL     1       1.773   5.916  20.416  0.00  0.00    +0.000 A 
ENDBRANCH   9  13
BRANCH   1  20
ATOM     20  C   UNL     1      -1.768  11.787  17.574  0.00  0.00    +0.000 C 
BRANCH  20  21
ATOM     21  C   UNL     1      -2.896  10.952  16.998  0.00  0.00    +0.000 C 
ATOM     22  O   UNL     1      -2.833  10.455  15.879  0.00  0.00    +0.000 OA
BRANCH  21  24
ATOM     23  C   UNL     1      -5.153  11.558  17.741  0.00  0.00    +0.000 C 
ATOM     24  C   UNL     1      -4.091  10.749  17.862  0.00  0.00    +0.000 C 
BRANCH  23  25
ATOM     25  C   UNL     1      -6.376  11.270  18.514  0.00  0.00    +0.000 C 
ATOM     26  O   UNL     1      -6.959  10.198  18.521  0.00  0.00    +0.000 OA
BRANCH  25  27
ATOM     27  O   UNL     1      -6.804  12.434  19.062  0.00  0.00    +0.000 OA
BRANCH  27  28
ATOM     28  C   UNL     1      -6.909  12.404  20.493  0.00  0.00    +0.000 C 
BRANCH  28  29
ATOM     29  C   UNL     1      -5.566  12.583  21.191  0.00  0.00    +0.000 C 
BRANCH  29  30
ATOM     30  C   UNL     1      -5.750  12.922  22.683  0.00  0.00    +0.000 C 
BRANCH  30  32
ATOM     31  C   UNL     1      -3.594  13.264  23.764  0.00  0.00    +0.000 C 
ATOM     32  N   UNL     1      -4.785  13.907  23.201  0.00  0.00    +0.000 NA
ATOM     33  C   UNL     1      -4.382  14.847  22.151  0.00  0.00    +0.000 C 
ENDBRANCH  30  32
ENDBRANCH  29  30
ENDBRANCH  28  29
ENDBRANCH  27  28
ENDBRANCH  25  27
ENDBRANCH  23  25
ENDBRANCH  21  24
ENDBRANCH  20  21
ENDBRANCH   1  20
TORSDOF 10
ENDMDL
MODEL 9
REMARK VINA RESULT:      -7.3      4.017      8.169
REMARK  Name = 
REMARK  12 active torsions:
REMARK  status: ('A' for Active; 'I' for Inactive)
REMARK    1  A    between atoms: C_1  and  N_2
REMARK    2  A    between atoms: N_2  and  C_3
REMARK    3  A    between atoms: N_2  and  C_4
REMARK    4  A    between atoms: C_4  and  C_5
REMARK    5  A    between atoms: C_5  and  C_6
REMARK    6  A    between atoms: C_6  and  O_7
REMARK    7  A    between atoms: O_7  and  C_8
REMARK    8  A    between atoms: C_8  and  C_10
REMARK    9  A    between atoms: C_11  and  C_12
REMARK   10  A    between atoms: C_12  and  C_14
REMARK   11  A    between atoms: C_14  and  C_15
REMARK   12  A    between atoms: N_23  and  C_24
REMARK                            x       y       z     vdW  Elec       q    Type
REMARK                         _______ _______ _______ _____ _____    ______ ____
ROOT
ATOM      1  C   UNL     1       1.296  10.337  18.392  0.00  0.00    +0.000 A 
ATOM      2  C   UNL     1       2.321  11.204  18.013  0.00  0.00    +0.000 A 
ATOM      3  C   UNL     1       2.356  12.516  18.507  0.00  0.00    +0.000 A 
ATOM      4  C   UNL     1       1.406  12.991  19.404  0.00  0.00    +0.000 A 
ATOM      5  N   UNL     1       1.511  14.245  19.853  0.00  0.00    +0.000 NA
ATOM      6  C   UNL     1       0.583  14.642  20.732  0.00  0.00    +0.000 A 
ATOM      7  N   UNL     1      -0.425  13.904  21.200  0.00  0.00    +0.000 NA
ATOM      8  C   UNL     1      -0.522  12.639  20.749  0.00  0.00    +0.000 A 
ATOM      9  N   UNL     1      -1.559  11.806  21.261  0.00  0.00    +0.000 N 
ATOM     10  C   UNL     1       0.382  12.122  19.807  0.00  0.00    +0.000 A 
ATOM     11  C   UNL     1       0.314  10.815  19.266  0.00  0.00    +0.000 A 
ATOM     12  H   UNL     1      -1.161  10.957  21.648  0.00  0.00    +0.000 HD
ENDROOT
BRANCH   9  13
ATOM     13  C   UNL     1      -2.669  12.281  21.995  0.00  0.00    +0.000 A 
ATOM     14  C   UNL     1      -2.682  12.171  23.394  0.00  0.00    +0.000 A 
ATOM     15  C   UNL     1      -3.798  12.547  24.139  0.00  0.00    +0.000 A 
ATOM     16  C   UNL     1      -4.921  13.052  23.491  0.00  0.00    +0.000 A 
ATOM     17  C   UNL     1      -4.904  13.205  22.105  0.00  0.00    +0.000 A 
ATOM     18 BR   UNL     1      -6.437  13.892  21.235  0.00  0.00    +0.000 Br
ATOM     19  C   UNL     1      -3.784  12.836  21.355  0.00  0.00    +0.000 A 
ENDBRANCH   9  13
BRANCH   1  20
ATOM     20  C   UNL     1       1.278   8.895  17.948  0.00  0.00    +0.000 C 
BRANCH  20  21
ATOM     21  C   UNL     1       2.086   7.963  18.833  0.00  0.00    +0.000 C 
ATOM     22  O   UNL     1       2.052   8.034  20.056  0.00  0.00    +0.000 OA
BRANCH  21  24
ATOM     23  C   UNL     1       3.609   6.041  18.864  0.00  0.00    +0.000 C 
ATOM     24  C   UNL     1       2.922   6.940  18.146  0.00  0.00    +0.000 C 
BRANCH  23  25
ATOM     25  C   UNL     1       4.332   4.958  18.170  0.00  0.00    +0.000 C 
ATOM     26  O   UNL     1       5.545   4.880  18.075  0.00  0.00    +0.000 OA
BRANCH  25  27
ATOM     27  O   UNL     1       3.413   4.186  17.538  0.00  0.00    +0.000 OA
BRANCH  27  28
ATOM     28  C   UNL     1       3.658   2.776  17.648  0.00  0.00    +0.000 C 
BRANCH  28  29
ATOM     29  C   UNL     1       3.332   2.223  19.030  0.00  0.00    +0.000 C 
BRANCH  29  30
ATOM     30  C   UNL     1       1.810   2.141  19.256  0.00  0.00    +0.000 C 
BRANCH  30  32
ATOM     31  C   UNL     1       2.404   2.730  21.544  0.00  0.00    +0.000 C 
ATOM     32  N   UNL     1       1.354   2.742  20.522  0.00  0.00    +0.000 NA
ATOM     33  C   UNL     1       0.895   4.119  20.311  0.00  0.00    +0.000 C 
ENDBRANCH  30  32
ENDBRANCH  29  30
ENDBRANCH  28  29
ENDBRANCH  27  28
ENDBRANCH  25  27
ENDBRANCH  23  25
ENDBRANCH  21  24
ENDBRANCH  20  21
ENDBRANCH   1  20
TORSDOF 10
ENDMDL
