MODEL 1
REMARK VINA RESULT:      -7.2      0.000      0.000
REMARK  Name = 
REMARK  7 active torsions:
REMARK  status: ('A' for Active; 'I' for Inactive)
REMARK    1  A    between atoms: C_1  and  N_2
REMARK    2  A    between atoms: N_2  and  C_3
REMARK    3  A    between atoms: N_7  and  C_8
REMARK    4  A    between atoms: C_8  and  C_9
REMARK    5  A    between atoms: C_9  and  O_10
REMARK    6  A    between atoms: C_11  and  C_12
REMARK    7  A    between atoms: C_18  and  C_19
REMARK                            x       y       z     vdW  Elec       q    Type
REMARK                         _______ _______ _______ _____ _____    ______ ____
ROOT
ATOM      1  C   UNL     1      -0.571  10.915  20.471  0.00  0.00    +0.000 C 
ATOM      2  N   UNL     1      -0.037   9.594  20.774  0.00  0.00    +0.000 N 
ATOM      3  C   UNL     1      -0.399   9.001  22.047  0.00  0.00    +0.000 C 
ATOM      4  C   UNL     1       0.953   9.045  19.977  0.00  0.00    +0.000 A 
ATOM      5  N   UNL     1       1.368   7.771  20.283  0.00  0.00    +0.000 NA
ATOM      6  C   UNL     1       2.209   7.112  19.544  0.00  0.00    +0.000 A 
ATOM      7  N   UNL     1       2.585   5.779  19.754  0.00  0.00    +0.000 N 
ATOM      8  C   UNL     1       3.459   5.189  18.804  0.00  0.00    +0.000 A 
ATOM      9  C   UNL     1       3.957   5.914  17.760  0.00  0.00    +0.000 A 
ATOM     10  N   UNL     1       3.638   7.241  17.540  0.00  0.00    +0.000 NA
ATOM     11  C   UNL     1       2.811   7.816  18.362  0.00  0.00    +0.000 A 
ATOM     12  C   UNL     1       2.395   9.241  18.194  0.00  0.00    +0.000 A 
ATOM     13  O   UNL     1       2.954   9.912  17.337  0.00  0.00    +0.000 OA
ATOM     14  N   UNL     1       1.412   9.749  18.996  0.00  0.00    +0.000 NA
ENDROOT
BRANCH   8  15
ATOM     15  C   UNL     1       3.819   3.757  18.928  0.00  0.00    +0.000 A 
ATOM     16  C   UNL     1       3.260   2.807  18.064  0.00  0.00    +0.000 A 
ATOM     17  C   UNL     1       3.518   1.446  18.247  0.00  0.00    +0.000 A 
ATOM     18  C   UNL     1       4.344   1.025  19.287  0.00  0.00    +0.000 A 
ATOM     19  C   UNL     1       4.913   1.961  20.151  0.00  0.00    +0.000 A 
ATOM     20  C   UNL     1       4.648   3.323  19.974  0.00  0.00    +0.000 A 
ENDBRANCH   8  15
BRANCH   9  21
ATOM     21  C   UNL     1       4.908   5.365  16.759  0.00  0.00    +0.000 A 
ATOM     22  C   UNL     1       4.460   4.882  15.521  0.00  0.00    +0.000 A 
ATOM     23  C   UNL     1       5.376   4.418  14.571  0.00  0.00    +0.000 A 
ATOM     24  C   UNL     1       6.742   4.437  14.846  0.00  0.00    +0.000 A 
ATOM     25  C   UNL     1       7.198   4.925  16.069  0.00  0.00    +0.000 A 
ATOM     26  C   UNL     1       6.285   5.394  17.018  0.00  0.00    +0.000 A 
ENDBRANCH   9  21
BRANCH   7  27
ATOM     27  C   UNL     1       1.904   5.038  20.836  0.00  0.00    +0.000 C 
BRANCH  27  28
ATOM     28  C   UNL     1       0.776   4.125  20.341  0.00  0.00    +0.000 C 
BRANCH  28  29
ATOM     29  O   UNL     1       0.802   2.878  21.043  0.00  0.00    +0.000 OA
ATOM     30  H   UNL     1       1.733   2.644  21.203  0.00  0.00    +0.000 HD
ENDBRANCH  28  29
ENDBRANCH  27  28
ENDBRANCH   7  27
TORSDOF 5
ENDMDL
MODEL 2
REMARK VINA RESULT:      -6.9      0.188      1.280
REMARK  Name = 
REMARK  7 active torsions:
REMARK  status: ('A' for Active; 'I' for Inactive)
REMARK    1  A    between atoms: C_1  and  N_2
REMARK    2  A    between atoms: N_2  and  C_3
REMARK    3  A    between atoms: N_7  and  C_8
REMARK    4  A    between atoms: C_8  and  C_9
REMARK    5  A    between atoms: C_9  and  O_10
REMARK    6  A    between atoms: C_11  and  C_12
REMARK    7  A    between atoms: C_18  and  C_19
REMARK                            x       y       z     vdW  Elec       q    Type
REMARK                         _______ _______ _______ _____ _____    ______ ____
ROOT
ATOM      1  C   UNL     1      -0.651  10.972  20.437  0.00  0.00    +0.000 C 
ATOM      2  N   UNL     1      -0.149   9.644  20.760  0.00  0.00    +0.000 N 
ATOM      3  C   UNL     1      -0.566   9.058  22.020  0.00  0.00    +0.000 C 
ATOM      4  C   UNL     1       0.861   9.079  20.001  0.00  0.00    +0.000 A 
ATOM      5  N   UNL     1       1.246   7.799  20.323  0.00  0.00    +0.000 NA
ATOM      6  C   UNL     1       2.103   7.127  19.617  0.00  0.00    +0.000 A 
ATOM      7  N   UNL     1       2.450   5.788  19.841  0.00  0.00    +0.000 N 
ATOM      8  C   UNL     1       3.349   5.183  18.925  0.00  0.00    +0.000 A 
ATOM      9  C   UNL     1       3.897   5.899  17.900  0.00  0.00    +0.000 A 
ATOM     10  N   UNL     1       3.607   7.231  17.667  0.00  0.00    +0.000 NA
ATOM     11  C   UNL     1       2.759   7.819  18.457  0.00  0.00    +0.000 A 
ATOM     12  C   UNL     1       2.371   9.250  18.272  0.00  0.00    +0.000 A 
ATOM     13  O   UNL     1       2.972   9.912  17.436  0.00  0.00    +0.000 OA
ATOM     14  N   UNL     1       1.367   9.774  19.037  0.00  0.00    +0.000 NA
ENDROOT
BRANCH   8  15
ATOM     15  C   UNL     1       3.683   3.746  19.063  0.00  0.00    +0.000 A 
ATOM     16  C   UNL     1       4.577   3.318  20.052  0.00  0.00    +0.000 A 
ATOM     17  C   UNL     1       4.972   1.979  20.115  0.00  0.00    +0.000 A 
ATOM     18  C   UNL     1       4.470   1.057  19.200  0.00  0.00    +0.000 A 
ATOM     19  C   UNL     1       3.574   1.469  18.213  0.00  0.00    +0.000 A 
ATOM     20  C   UNL     1       3.184   2.811  18.143  0.00  0.00    +0.000 A 
ENDBRANCH   8  15
BRANCH   9  21
ATOM     21  C   UNL     1       4.876   5.335  16.935  0.00  0.00    +0.000 A 
ATOM     22  C   UNL     1       6.218   5.141  17.292  0.00  0.00    +0.000 A 
ATOM     23  C   UNL     1       7.112   4.559  16.387  0.00  0.00    +0.000 A 
ATOM     24  C   UNL     1       6.674   4.164  15.124  0.00  0.00    +0.000 A 
ATOM     25  C   UNL     1       5.340   4.343  14.764  0.00  0.00    +0.000 A 
ATOM     26  C   UNL     1       4.444   4.919  15.668  0.00  0.00    +0.000 A 
ENDBRANCH   9  21
BRANCH   7  27
ATOM     27  C   UNL     1       1.719   5.059  20.898  0.00  0.00    +0.000 C 
BRANCH  27  28
ATOM     28  C   UNL     1       0.700   4.049  20.356  0.00  0.00    +0.000 C 
BRANCH  28  29
ATOM     29  O   UNL     1       0.851   2.787  21.017  0.00  0.00    +0.000 OA
ATOM     30  H   UNL     1       1.684   2.387  20.711  0.00  0.00    +0.000 HD
ENDBRANCH  28  29
ENDBRANCH  27  28
ENDBRANCH   7  27
TORSDOF 5
ENDMDL
MODEL 3
REMARK VINA RESULT:      -6.4      4.089     11.000
REMARK  Name = 
REMARK  7 active torsions:
REMARK  status: ('A' for Active; 'I' for Inactive)
REMARK    1  A    between atoms: C_1  and  N_2
REMARK    2  A    between atoms: N_2  and  C_3
REMARK    3  A    between atoms: N_7  and  C_8
REMARK    4  A    between atoms: C_8  and  C_9
REMARK    5  A    between atoms: C_9  and  O_10
REMARK    6  A    between atoms: C_11  and  C_12
REMARK    7  A    between atoms: C_18  and  C_19
REMARK                            x       y       z     vdW  Elec       q    Type
REMARK                         _______ _______ _______ _____ _____    ______ ____
ROOT
ATOM      1  C   UNL     1       2.291   7.074  19.498  0.00  0.00    +0.000 C 
ATOM      2  N   UNL     1       1.743   8.370  19.125  0.00  0.00    +0.000 N 
ATOM      3  C   UNL     1       1.951   8.818  17.761  0.00  0.00    +0.000 C 
ATOM      4  C   UNL     1       1.256   9.224  20.099  0.00  0.00    +0.000 A 
ATOM      5  N   UNL     1       0.698  10.406  19.673  0.00  0.00    +0.000 NA
ATOM      6  C   UNL     1       0.111  11.235  20.482  0.00  0.00    +0.000 A 
ATOM      7  N   UNL     1      -0.562  12.399  20.087  0.00  0.00    +0.000 N 
ATOM      8  C   UNL     1      -1.215  13.152  21.097  0.00  0.00    +0.000 A 
ATOM      9  C   UNL     1      -1.139  12.784  22.409  0.00  0.00    +0.000 A 
ATOM     10  N   UNL     1      -0.456  11.663  22.843  0.00  0.00    +0.000 NA
ATOM     11  C   UNL     1       0.127  10.919  21.950  0.00  0.00    +0.000 A 
ATOM     12  C   UNL     1       0.874   9.680  22.323  0.00  0.00    +0.000 A 
ATOM     13  O   UNL     1       1.046   9.440  23.511  0.00  0.00    +0.000 OA
ATOM     14  N   UNL     1       1.339   8.858  21.335  0.00  0.00    +0.000 NA
ENDROOT
BRANCH   8  15
ATOM     15  C   UNL     1      -2.014  14.343  20.724  0.00  0.00    +0.000 A 
ATOM     16  C   UNL     1      -1.386  15.572  20.488  0.00  0.00    +0.000 A 
ATOM     17  C   UNL     1      -2.147  16.718  20.240  0.00  0.00    +0.000 A 
ATOM     18  C   UNL     1      -3.537  16.642  20.215  0.00  0.00    +0.000 A 
ATOM     19  C   UNL     1      -4.176  15.423  20.443  0.00  0.00    +0.000 A 
ATOM     20  C   UNL     1      -3.416  14.277  20.701  0.00  0.00    +0.000 A 
ENDBRANCH   8  15
BRANCH   9  21
ATOM     21  C   UNL     1      -1.764  13.554  23.515  0.00  0.00    +0.000 A 
ATOM     22  C   UNL     1      -1.101  14.635  24.113  0.00  0.00    +0.000 A 
ATOM     23  C   UNL     1      -1.728  15.380  25.118  0.00  0.00    +0.000 A 
ATOM     24  C   UNL     1      -3.019  15.056  25.528  0.00  0.00    +0.000 A 
ATOM     25  C   UNL     1      -3.691  13.990  24.934  0.00  0.00    +0.000 A 
ATOM     26  C   UNL     1      -3.069  13.247  23.927  0.00  0.00    +0.000 A 
ENDBRANCH   9  21
BRANCH   7  27
ATOM     27  C   UNL     1      -0.695  12.654  18.637  0.00  0.00    +0.000 C 
BRANCH  27  28
ATOM     28  C   UNL     1      -1.796  11.824  17.966  0.00  0.00    +0.000 C 
BRANCH  28  29
ATOM     29  O   UNL     1      -1.232  10.675  17.326  0.00  0.00    +0.000 OA
ATOM     30  H   UNL     1      -1.612   9.883  17.744  0.00  0.00    +0.000 HD
ENDBRANCH  28  29
ENDBRANCH  27  28
ENDBRANCH   7  27
TORSDOF 5
ENDMDL
MODEL 4
REMARK VINA RESULT:      -6.1      4.173     11.142
REMARK  Name = 
REMARK  7 active torsions:
REMARK  status: ('A' for Active; 'I' for Inactive)
REMARK    1  A    between atoms: C_1  and  N_2
REMARK    2  A    between atoms: N_2  and  C_3
REMARK    3  A    between atoms: N_7  and  C_8
REMARK    4  A    between atoms: C_8  and  C_9
REMARK    5  A    between atoms: C_9  and  O_10
REMARK    6  A    between atoms: C_11  and  C_12
REMARK    7  A    between atoms: C_18  and  C_19
REMARK                            x       y       z     vdW  Elec       q    Type
REMARK                         _______ _______ _______ _____ _____    ______ ____
ROOT
ATOM      1  C   UNL     1       2.118   7.067  19.550  0.00  0.00    +0.000 C 
ATOM      2  N   UNL     1       1.784   8.439  19.196  0.00  0.00    +0.000 N 
ATOM      3  C   UNL     1       2.214   8.920  17.897  0.00  0.00    +0.000 C 
ATOM      4  C   UNL     1       1.287   9.302  20.157  0.00  0.00    +0.000 A 
ATOM      5  N   UNL     1       0.936  10.565  19.743  0.00  0.00    +0.000 NA
ATOM      6  C   UNL     1       0.358  11.424  20.527  0.00  0.00    +0.000 A 
ATOM      7  N   UNL     1      -0.112  12.683  20.129  0.00  0.00    +0.000 N 
ATOM      8  C   UNL     1      -0.789  13.465  21.100  0.00  0.00    +0.000 A 
ATOM      9  C   UNL     1      -0.923  13.029  22.386  0.00  0.00    +0.000 A 
ATOM     10  N   UNL     1      -0.442  11.810  22.827  0.00  0.00    +0.000 NA
ATOM     11  C   UNL     1       0.152  11.040  21.964  0.00  0.00    +0.000 A 
ATOM     12  C   UNL     1       0.689   9.698  22.345  0.00  0.00    +0.000 A 
ATOM     13  O   UNL     1       0.681   9.383  23.527  0.00  0.00    +0.000 OA
ATOM     14  N   UNL     1       1.169   8.871  21.369  0.00  0.00    +0.000 NA
ENDROOT
BRANCH   8  15
ATOM     15  C   UNL     1      -1.383  14.766  20.710  0.00  0.00    +0.000 A 
ATOM     16  C   UNL     1      -0.565  15.877  20.476  0.00  0.00    +0.000 A 
ATOM     17  C   UNL     1      -1.130  17.128  20.212  0.00  0.00    +0.000 A 
ATOM     18  C   UNL     1      -2.515  17.274  20.170  0.00  0.00    +0.000 A 
ATOM     19  C   UNL     1      -3.342  16.174  20.395  0.00  0.00    +0.000 A 
ATOM     20  C   UNL     1      -2.777  14.924  20.669  0.00  0.00    +0.000 A 
ENDBRANCH   8  15
BRANCH   9  21
ATOM     21  C   UNL     1      -1.583  13.821  23.457  0.00  0.00    +0.000 A 
ATOM     22  C   UNL     1      -0.959  14.944  24.018  0.00  0.00    +0.000 A 
ATOM     23  C   UNL     1      -1.619  15.707  24.988  0.00  0.00    +0.000 A 
ATOM     24  C   UNL     1      -2.903  15.358  25.400  0.00  0.00    +0.000 A 
ATOM     25  C   UNL     1      -3.536  14.250  24.841  0.00  0.00    +0.000 A 
ATOM     26  C   UNL     1      -2.881  13.489  23.869  0.00  0.00    +0.000 A 
ENDBRANCH   9  21
BRANCH   7  27
ATOM     27  C   UNL     1      -0.032  13.020  18.692  0.00  0.00    +0.000 C 
BRANCH  27  28
ATOM     28  C   UNL     1       1.333  13.574  18.267  0.00  0.00    +0.000 C 
BRANCH  28  29
ATOM     29  O   UNL     1       2.073  12.577  17.552  0.00  0.00    +0.000 OA
ATOM     30  H   UNL     1       1.438  11.930  17.200  0.00  0.00    +0.000 HD
ENDBRANCH  28  29
ENDBRANCH  27  28
ENDBRANCH   7  27
TORSDOF 5
ENDMDL
MODEL 5
REMARK VINA RESULT:      -5.9      6.665      9.921
REMARK  Name = 
REMARK  7 active torsions:
REMARK  status: ('A' for Active; 'I' for Inactive)
REMARK    1  A    between atoms: C_1  and  N_2
REMARK    2  A    between atoms: N_2  and  C_3
REMARK    3  A    between atoms: N_7  and  C_8
REMARK    4  A    between atoms: C_8  and  C_9
REMARK    5  A    between atoms: C_9  and  O_10
REMARK    6  A    between atoms: C_11  and  C_12
REMARK    7  A    between atoms: C_18  and  C_19
REMARK                            x       y       z     vdW  Elec       q    Type
REMARK                         _______ _______ _______ _____ _____    ______ ____
ROOT
ATOM      1  C   UNL     1       6.844  15.921  20.650  0.00  0.00    +0.000 C 
ATOM      2  N   UNL     1       5.820  15.267  19.847  0.00  0.00    +0.000 N 
ATOM      3  C   UNL     1       6.095  15.078  18.436  0.00  0.00    +0.000 C 
ATOM      4  C   UNL     1       4.557  15.054  20.372  0.00  0.00    +0.000 A 
ATOM      5  N   UNL     1       3.657  14.378  19.582  0.00  0.00    +0.000 NA
ATOM      6  C   UNL     1       2.482  14.024  20.006  0.00  0.00    +0.000 A 
ATOM      7  N   UNL     1       1.569  13.246  19.280  0.00  0.00    +0.000 N 
ATOM      8  C   UNL     1       0.358  12.886  19.925  0.00  0.00    +0.000 A 
ATOM      9  C   UNL     1       0.071  13.332  21.183  0.00  0.00    +0.000 A 
ATOM     10  N   UNL     1       0.929  14.130  21.917  0.00  0.00    +0.000 NA
ATOM     11  C   UNL     1       2.069  14.454  21.383  0.00  0.00    +0.000 A 
ATOM     12  C   UNL     1       3.067  15.299  22.109  0.00  0.00    +0.000 A 
ATOM     13  O   UNL     1       2.737  15.800  23.176  0.00  0.00    +0.000 OA
ATOM     14  N   UNL     1       4.305  15.485  21.563  0.00  0.00    +0.000 NA
ENDROOT
BRANCH   8  15
ATOM     15  C   UNL     1      -0.604  11.993  19.237  0.00  0.00    +0.000 A 
ATOM     16  C   UNL     1      -0.626  10.622  19.520  0.00  0.00    +0.000 A 
ATOM     17  C   UNL     1      -1.459   9.765  18.797  0.00  0.00    +0.000 A 
ATOM     18  C   UNL     1      -2.282  10.271  17.793  0.00  0.00    +0.000 A 
ATOM     19  C   UNL     1      -2.274  11.636  17.504  0.00  0.00    +0.000 A 
ATOM     20  C   UNL     1      -1.434  12.494  18.222  0.00  0.00    +0.000 A 
ENDBRANCH   8  15
BRANCH   9  21
ATOM     21  C   UNL     1      -1.197  13.025  21.894  0.00  0.00    +0.000 A 
ATOM     22  C   UNL     1      -1.261  12.011  22.860  0.00  0.00    +0.000 A 
ATOM     23  C   UNL     1      -2.451  11.773  23.556  0.00  0.00    +0.000 A 
ATOM     24  C   UNL     1      -3.582  12.545  23.296  0.00  0.00    +0.000 A 
ATOM     25  C   UNL     1      -3.526  13.562  22.345  0.00  0.00    +0.000 A 
ATOM     26  C   UNL     1      -2.336  13.805  21.652  0.00  0.00    +0.000 A 
ENDBRANCH   9  21
BRANCH   7  27
ATOM     27  C   UNL     1       2.013  12.709  17.976  0.00  0.00    +0.000 C 
BRANCH  27  28
ATOM     28  C   UNL     1       2.687  11.336  18.074  0.00  0.00    +0.000 C 
BRANCH  28  29
ATOM     29  O   UNL     1       1.969  10.374  17.293  0.00  0.00    +0.000 OA
ATOM     30  H   UNL     1       2.586  10.001  16.638  0.00  0.00    +0.000 HD
ENDBRANCH  28  29
ENDBRANCH  27  28
ENDBRANCH   7  27
TORSDOF 5
ENDMDL
MODEL 6
REMARK VINA RESULT:      -5.9      4.007     10.909
REMARK  Name = 
REMARK  7 active torsions:
REMARK  status: ('A' for Active; 'I' for Inactive)
REMARK    1  A    between atoms: C_1  and  N_2
REMARK    2  A    between atoms: N_2  and  C_3
REMARK    3  A    between atoms: N_7  and  C_8
REMARK    4  A    between atoms: C_8  and  C_9
REMARK    5  A    between atoms: C_9  and  O_10
REMARK    6  A    between atoms: C_11  and  C_12
REMARK    7  A    between atoms: C_18  and  C_19
REMARK                            x       y       z     vdW  Elec       q    Type
REMARK                         _______ _______ _______ _____ _____    ______ ____
ROOT
ATOM      1  C   UNL     1       2.556   7.007  19.689  0.00  0.00    +0.000 C 
ATOM      2  N   UNL     1       1.750   8.145  19.272  0.00  0.00    +0.000 N 
ATOM      3  C   UNL     1       1.756   8.491  17.864  0.00  0.00    +0.000 C 
ATOM      4  C   UNL     1       1.197   8.989  20.220  0.00  0.00    +0.000 A 
ATOM      5  N   UNL     1       0.397  10.008  19.761  0.00  0.00    +0.000 NA
ATOM      6  C   UNL     1      -0.263  10.794  20.557  0.00  0.00    +0.000 A 
ATOM      7  N   UNL     1      -1.169  11.779  20.140  0.00  0.00    +0.000 N 
ATOM      8  C   UNL     1      -1.862  12.497  21.148  0.00  0.00    +0.000 A 
ATOM      9  C   UNL     1      -1.610  12.275  22.471  0.00  0.00    +0.000 A 
ATOM     10  N   UNL     1      -0.698  11.338  22.921  0.00  0.00    +0.000 NA
ATOM     11  C   UNL     1      -0.066  10.627  22.035  0.00  0.00    +0.000 A 
ATOM     12  C   UNL     1       0.925   9.579  22.428  0.00  0.00    +0.000 A 
ATOM     13  O   UNL     1       1.237   9.488  23.608  0.00  0.00    +0.000 OA
ATOM     14  N   UNL     1       1.449   8.762  21.467  0.00  0.00    +0.000 NA
ENDROOT
BRANCH   8  15
ATOM     15  C   UNL     1      -2.895  13.488  20.765  0.00  0.00    +0.000 A 
ATOM     16  C   UNL     1      -2.597  14.856  20.757  0.00  0.00    +0.000 A 
ATOM     17  C   UNL     1      -3.597  15.796  20.498  0.00  0.00    +0.000 A 
ATOM     18  C   UNL     1      -4.899  15.377  20.234  0.00  0.00    +0.000 A 
ATOM     19  C   UNL     1      -5.209  14.017  20.232  0.00  0.00    +0.000 A 
ATOM     20  C   UNL     1      -4.210  13.075  20.501  0.00  0.00    +0.000 A 
ENDBRANCH   8  15
BRANCH   9  21
ATOM     21  C   UNL     1      -2.272  13.024  23.570  0.00  0.00    +0.000 A 
ATOM     22  C   UNL     1      -3.467  12.567  24.144  0.00  0.00    +0.000 A 
ATOM     23  C   UNL     1      -4.047  13.258  25.213  0.00  0.00    +0.000 A 
ATOM     24  C   UNL     1      -3.437  14.405  25.720  0.00  0.00    +0.000 A 
ATOM     25  C   UNL     1      -2.244  14.861  25.163  0.00  0.00    +0.000 A 
ATOM     26  C   UNL     1      -1.661  14.170  24.098  0.00  0.00    +0.000 A 
ENDBRANCH   9  21
BRANCH   7  27
ATOM     27  C   UNL     1      -1.467  11.867  18.696  0.00  0.00    +0.000 C 
BRANCH  27  28
ATOM     28  C   UNL     1      -0.654  12.940  17.964  0.00  0.00    +0.000 C 
BRANCH  28  29
ATOM     29  O   UNL     1       0.748  12.693  18.119  0.00  0.00    +0.000 OA
ATOM     30  H   UNL     1       0.860  11.762  18.380  0.00  0.00    +0.000 HD
ENDBRANCH  28  29
ENDBRANCH  27  28
ENDBRANCH   7  27
TORSDOF 5
ENDMDL
MODEL 7
REMARK VINA RESULT:      -5.8      6.194      9.287
REMARK  Name = 
REMARK  7 active torsions:
REMARK  status: ('A' for Active; 'I' for Inactive)
REMARK    1  A    between atoms: C_1  and  N_2
REMARK    2  A    between atoms: N_2  and  C_3
REMARK    3  A    between atoms: N_7  and  C_8
REMARK    4  A    between atoms: C_8  and  C_9
REMARK    5  A    between atoms: C_9  and  O_10
REMARK    6  A    between atoms: C_11  and  C_12
REMARK    7  A    between atoms: C_18  and  C_19
REMARK                            x       y       z     vdW  Elec       q    Type
REMARK                         _______ _______ _______ _____ _____    ______ ____
ROOT
ATOM      1  C   UNL     1      -4.508  16.548  24.780  0.00  0.00    +0.000 C 
ATOM      2  N   UNL     1      -4.831  15.670  23.665  0.00  0.00    +0.000 N 
ATOM      3  C   UNL     1      -6.229  15.531  23.305  0.00  0.00    +0.000 C 
ATOM      4  C   UNL     1      -3.863  14.834  23.136  0.00  0.00    +0.000 A 
ATOM      5  N   UNL     1      -4.219  14.075  22.045  0.00  0.00    +0.000 NA
ATOM      6  C   UNL     1      -3.368  13.339  21.398  0.00  0.00    +0.000 A 
ATOM      7  N   UNL     1      -3.654  12.630  20.223  0.00  0.00    +0.000 N 
ATOM      8  C   UNL     1      -2.584  11.935  19.601  0.00  0.00    +0.000 A 
ATOM      9  C   UNL     1      -1.340  11.914  20.162  0.00  0.00    +0.000 A 
ATOM     10  N   UNL     1      -1.027  12.570  21.338  0.00  0.00    +0.000 NA
ATOM     11  C   UNL     1      -1.965  13.253  21.924  0.00  0.00    +0.000 A 
ATOM     12  C   UNL     1      -1.715  14.008  23.189  0.00  0.00    +0.000 A 
ATOM     13  O   UNL     1      -0.635  13.867  23.748  0.00  0.00    +0.000 OA
ATOM     14  N   UNL     1      -2.692  14.827  23.682  0.00  0.00    +0.000 NA
ENDROOT
BRANCH   8  15
ATOM     15  C   UNL     1      -2.810  11.242  18.312  0.00  0.00    +0.000 A 
ATOM     16  C   UNL     1      -3.336   9.945  18.286  0.00  0.00    +0.000 A 
ATOM     17  C   UNL     1      -3.451   9.252  17.078  0.00  0.00    +0.000 A 
ATOM     18  C   UNL     1      -3.051   9.853  15.887  0.00  0.00    +0.000 A 
ATOM     19  C   UNL     1      -2.530  11.147  15.897  0.00  0.00    +0.000 A 
ATOM     20  C   UNL     1      -2.406  11.838  17.107  0.00  0.00    +0.000 A 
ENDBRANCH   8  15
BRANCH   9  21
ATOM     21  C   UNL     1      -0.191  11.169  19.582  0.00  0.00    +0.000 A 
ATOM     22  C   UNL     1       0.740  11.806  18.749  0.00  0.00    +0.000 A 
ATOM     23  C   UNL     1       1.844  11.101  18.256  0.00  0.00    +0.000 A 
ATOM     24  C   UNL     1       2.027   9.762  18.593  0.00  0.00    +0.000 A 
ATOM     25  C   UNL     1       1.113   9.123  19.428  0.00  0.00    +0.000 A 
ATOM     26  C   UNL     1       0.013   9.826  19.926  0.00  0.00    +0.000 A 
ENDBRANCH   9  21
BRANCH   7  27
ATOM     27  C   UNL     1      -4.993  12.809  19.625  0.00  0.00    +0.000 C 
BRANCH  27  28
ATOM     28  C   UNL     1      -6.035  11.809  20.139  0.00  0.00    +0.000 C 
BRANCH  28  29
ATOM     29  O   UNL     1      -6.723  12.347  21.274  0.00  0.00    +0.000 OA
ATOM     30  H   UNL     1      -7.199  11.617  21.708  0.00  0.00    +0.000 HD
ENDBRANCH  28  29
ENDBRANCH  27  28
ENDBRANCH   7  27
TORSDOF 5
ENDMDL
MODEL 8
REMARK VINA RESULT:      -5.8      2.211      3.272
REMARK  Name = 
REMARK  7 active torsions:
REMARK  status: ('A' for Active; 'I' for Inactive)
REMARK    1  A    between atoms: C_1  and  N_2
REMARK    2  A    between atoms: N_2  and  C_3
REMARK    3  A    between atoms: N_7  and  C_8
REMARK    4  A    between atoms: C_8  and  C_9
REMARK    5  A    between atoms: C_9  and  O_10
REMARK    6  A    between atoms: C_11  and  C_12
REMARK    7  A    between atoms: C_18  and  C_19
REMARK                            x       y       z     vdW  Elec       q    Type
REMARK                         _______ _______ _______ _____ _____    ______ ____
ROOT
ATOM      1  C   UNL     1      -0.573  13.735  19.469  0.00  0.00    +0.000 C 
ATOM      2  N   UNL     1      -0.456  12.467  20.177  0.00  0.00    +0.000 N 
ATOM      3  C   UNL     1      -1.036  12.384  21.503  0.00  0.00    +0.000 C 
ATOM      4  C   UNL     1       0.375  11.474  19.688  0.00  0.00    +0.000 A 
ATOM      5  N   UNL     1       0.393  10.280  20.371  0.00  0.00    +0.000 NA
ATOM      6  C   UNL     1       1.047   9.241  19.948  0.00  0.00    +0.000 A 
ATOM      7  N   UNL     1       1.015   7.976  20.549  0.00  0.00    +0.000 N 
ATOM      8  C   UNL     1       1.730   6.930  19.910  0.00  0.00    +0.000 A 
ATOM      9  C   UNL     1       2.467   7.166  18.786  0.00  0.00    +0.000 A 
ATOM     10  N   UNL     1       2.553   8.408  18.184  0.00  0.00    +0.000 NA
ATOM     11  C   UNL     1       1.884   9.390  18.711  0.00  0.00    +0.000 A 
ATOM     12  C   UNL     1       1.902  10.763  18.119  0.00  0.00    +0.000 A 
ATOM     13  O   UNL     1       2.673  10.987  17.195  0.00  0.00    +0.000 OA
ATOM     14  N   UNL     1       1.066  11.718  18.624  0.00  0.00    +0.000 NA
ENDROOT
BRANCH   8  15
ATOM     15  C   UNL     1       1.660   5.553  20.454  0.00  0.00    +0.000 A 
ATOM     16  C   UNL     1       2.634   5.093  21.347  0.00  0.00    +0.000 A 
ATOM     17  C   UNL     1       2.627   3.763  21.777  0.00  0.00    +0.000 A 
ATOM     18  C   UNL     1       1.641   2.888  21.327  0.00  0.00    +0.000 A 
ATOM     19  C   UNL     1       0.660   3.335  20.441  0.00  0.00    +0.000 A 
ATOM     20  C   UNL     1       0.672   4.664  20.003  0.00  0.00    +0.000 A 
ENDBRANCH   8  15
BRANCH   9  21
ATOM     21  C   UNL     1       3.271   6.124  18.097  0.00  0.00    +0.000 A 
ATOM     22  C   UNL     1       2.694   4.913  17.690  0.00  0.00    +0.000 A 
ATOM     23  C   UNL     1       3.454   3.966  16.996  0.00  0.00    +0.000 A 
ATOM     24  C   UNL     1       4.792   4.222  16.700  0.00  0.00    +0.000 A 
ATOM     25  C   UNL     1       5.373   5.426  17.092  0.00  0.00    +0.000 A 
ATOM     26  C   UNL     1       4.613   6.376  17.781  0.00  0.00    +0.000 A 
ENDBRANCH   9  21
BRANCH   7  27
ATOM     27  C   UNL     1       0.096   7.784  21.691  0.00  0.00    +0.000 C 
BRANCH  27  28
ATOM     28  C   UNL     1       0.319   8.781  22.834  0.00  0.00    +0.000 C 
BRANCH  28  29
ATOM     29  O   UNL     1      -0.919   9.399  23.202  0.00  0.00    +0.000 OA
ATOM     30  H   UNL     1      -1.639   8.787  22.969  0.00  0.00    +0.000 HD
ENDBRANCH  28  29
ENDBRANCH  27  28
ENDBRANCH   7  27
TORSDOF 5
ENDMDL
MODEL 9
REMARK VINA RESULT:      -5.8      4.291     11.126
REMARK  Name = 
REMARK  7 active torsions:
REMARK  status: ('A' for Active; 'I' for Inactive)
REMARK    1  A    between atoms: C_1  and  N_2
REMARK    2  A    between atoms: N_2  and  C_3
REMARK    3  A    between atoms: N_7  and  C_8
REMARK    4  A    between atoms: C_8  and  C_9
REMARK    5  A    between atoms: C_9  and  O_10
REMARK    6  A    between atoms: C_11  and  C_12
REMARK    7  A    between atoms: C_18  and  C_19
REMARK                            x       y       z     vdW  Elec       q    Type
REMARK                         _______ _______ _______ _____ _____    ______ ____
ROOT
ATOM      1  C   UNL     1       1.846   6.996  19.946  0.00  0.00    +0.000 C 
ATOM      2  N   UNL     1       1.568   8.370  19.553  0.00  0.00    +0.000 N 
ATOM      3  C   UNL     1       2.038   8.803  18.251  0.00  0.00    +0.000 C 
ATOM      4  C   UNL     1       1.084   9.274  20.484  0.00  0.00    +0.000 A 
ATOM      5  N   UNL     1       0.785  10.538  20.032  0.00  0.00    +0.000 NA
ATOM      6  C   UNL     1       0.224  11.435  20.784  0.00  0.00    +0.000 A 
ATOM      7  N   UNL     1      -0.194  12.699  20.347  0.00  0.00    +0.000 N 
ATOM      8  C   UNL     1      -0.860  13.529  21.285  0.00  0.00    +0.000 A 
ATOM      9  C   UNL     1      -1.034  13.130  22.579  0.00  0.00    +0.000 A 
ATOM     10  N   UNL     1      -0.604  11.906  23.058  0.00  0.00    +0.000 NA
ATOM     11  C   UNL     1      -0.022  11.094  22.226  0.00  0.00    +0.000 A 
ATOM     12  C   UNL     1       0.460   9.744  22.649  0.00  0.00    +0.000 A 
ATOM     13  O   UNL     1       0.419   9.459  23.838  0.00  0.00    +0.000 OA
ATOM     14  N   UNL     1       0.928   8.876  21.703  0.00  0.00    +0.000 NA
ENDROOT
BRANCH   8  15
ATOM     15  C   UNL     1      -1.400  14.839  20.853  0.00  0.00    +0.000 A 
ATOM     16  C   UNL     1      -2.778  15.015  20.676  0.00  0.00    +0.000 A 
ATOM     17  C   UNL     1      -3.277  16.217  20.168  0.00  0.00    +0.000 A 
ATOM     18  C   UNL     1      -2.406  17.255  19.845  0.00  0.00    +0.000 A 
ATOM     19  C   UNL     1      -1.032  17.096  20.023  0.00  0.00    +0.000 A 
ATOM     20  C   UNL     1      -0.530  15.890  20.522  0.00  0.00    +0.000 A 
ENDBRANCH   8  15
BRANCH   9  21
ATOM     21  C   UNL     1      -1.684  13.970  23.617  0.00  0.00    +0.000 A 
ATOM     22  C   UNL     1      -3.007  13.734  24.019  0.00  0.00    +0.000 A 
ATOM     23  C   UNL     1      -3.584  14.502  25.035  0.00  0.00    +0.000 A 
ATOM     24  C   UNL     1      -2.847  15.506  25.660  0.00  0.00    +0.000 A 
ATOM     25  C   UNL     1      -1.528  15.742  25.276  0.00  0.00    +0.000 A 
ATOM     26  C   UNL     1      -0.948  14.972  24.264  0.00  0.00    +0.000 A 
ENDBRANCH   9  21
BRANCH   7  27
ATOM     27  C   UNL     1      -0.074  12.998  18.904  0.00  0.00    +0.000 C 
BRANCH  27  28
ATOM     28  C   UNL     1      -1.245  12.469  18.068  0.00  0.00    +0.000 C 
BRANCH  28  29
ATOM     29  O   UNL     1      -0.972  11.138  17.615  0.00  0.00    +0.000 OA
ATOM     30  H   UNL     1      -0.259  11.188  16.955  0.00  0.00    +0.000 HD
ENDBRANCH  28  29
ENDBRANCH  27  28
ENDBRANCH   7  27
TORSDOF 5
ENDMDL
