MODEL 1
REMARK VINA RESULT:      -9.2      0.000      0.000
REMARK  Name = 
REMARK  5 active torsions:
REMARK  status: ('A' for Active; 'I' for Inactive)
REMARK    1  A    between atoms: C_11  and  C_12
REMARK    2  A    between atoms: C_12  and  N_13
REMARK    3  A    between atoms: N_13  and  C_14
REMARK    4  A    between atoms: C_14  and  C_15
REMARK    5  A    between atoms: C_17  and  C_18
REMARK                            x       y       z     vdW  Elec       q    Type
REMARK                         _______ _______ _______ _____ _____    ______ ____
ROOT
ATOM      1  N   UNL     1       2.282   5.723  21.179  0.00  0.00    +0.000 NA
ATOM      2  H   UNL     1       1.653   6.111  21.883  0.00  0.00    +0.000 HD
ENDROOT
BRANCH   1   3
ATOM      3  C   UNL     1       2.186   6.533  19.954  0.00  0.00    +0.000 C 
BRANCH   3  14
ATOM      4 CL   UNL     1       2.220   8.802  17.737  0.00  0.00    +0.000 Cl
ATOM      5  C   UNL     1       1.480   8.888  19.289  0.00  0.00    +0.000 A 
ATOM      6  N   UNL     1       0.888  10.083  19.505  0.00  0.00    +0.000 NA
ATOM      7  C   UNL     1       0.286  10.281  20.686  0.00  0.00    +0.000 A 
ATOM      8  C   UNL     1      -0.338  11.495  20.935  0.00  0.00    +0.000 A 
ATOM      9  C   UNL     1      -0.983  11.754  22.148  0.00  0.00    +0.000 A 
ATOM     10  C   UNL     1      -1.004  10.781  23.143  0.00  0.00    +0.000 A 
ATOM     11  C   UNL     1      -0.384   9.555  22.921  0.00  0.00    +0.000 A 
ATOM     12  C   UNL     1       0.257   9.299  21.697  0.00  0.00    +0.000 A 
ATOM     13  C   UNL     1       0.880   8.075  21.435  0.00  0.00    +0.000 A 
ATOM     14  C   UNL     1       1.504   7.843  20.204  0.00  0.00    +0.000 A 
ENDBRANCH   3  14
ENDBRANCH   1   3
BRANCH   1  15
ATOM     15  C   UNL     1       1.867   4.352  20.860  0.00  0.00    +0.000 C 
BRANCH  15  16
ATOM     16  C   UNL     1       2.936   3.496  20.146  0.00  0.00    +0.000 C 
ATOM     17  C   UNL     1       4.012   4.302  19.392  0.00  0.00    +0.000 C 
ATOM     18  C   UNL     1       3.856   3.770  17.954  0.00  0.00    +0.000 C 
ATOM     19  C   UNL     1       2.474   4.243  17.432  0.00  0.00    +0.000 C 
ATOM     20  C   UNL     1       1.513   3.300  18.146  0.00  0.00    +0.000 C 
ATOM     21  N   UNL     1       2.372   2.560  19.104  0.00  0.00    +0.000 NA
ATOM     22  C   UNL     1       3.561   2.297  18.251  0.00  0.00    +0.000 C 
BRANCH  18  23
ATOM     23  C   UNL     1       5.028   4.086  17.057  0.00  0.00    +0.000 A 
ATOM     24  C   UNL     1       6.279   4.437  17.589  0.00  0.00    +0.000 A 
ATOM     25  C   UNL     1       7.361   4.734  16.755  0.00  0.00    +0.000 A 
ATOM     26  C   UNL     1       7.209   4.688  15.373  0.00  0.00    +0.000 A 
ATOM     27  C   UNL     1       5.977   4.347  14.825  0.00  0.00    +0.000 A 
ATOM     28  C   UNL     1       4.895   4.053  15.660  0.00  0.00    +0.000 A 
ENDBRANCH  18  23
ENDBRANCH  15  16
ENDBRANCH   1  15
TORSDOF 5
ENDMDL
MODEL 2
REMARK VINA RESULT:      -8.9      0.896      1.341
REMARK  Name = 
REMARK  5 active torsions:
REMARK  status: ('A' for Active; 'I' for Inactive)
REMARK    1  A    between atoms: C_11  and  C_12
REMARK    2  A    between atoms: C_12  and  N_13
REMARK    3  A    between atoms: N_13  and  C_14
REMARK    4  A    between atoms: C_14  and  C_15
REMARK    5  A    between atoms: C_17  and  C_18
REMARK                            x       y       z     vdW  Elec       q    Type
REMARK                         _______ _______ _______ _____ _____    ______ ____
ROOT
ATOM      1  N   UNL     1       1.573   6.478  21.081  0.00  0.00    +0.000 NA
ATOM      2  H   UNL     1       0.617   6.625  21.408  0.00  0.00    +0.000 HD
ENDROOT
BRANCH   1   3
ATOM      3  C   UNL     1       1.962   7.603  20.217  0.00  0.00    +0.000 C 
BRANCH   3  14
ATOM      4 CL   UNL     1       1.371   9.545  17.778  0.00  0.00    +0.000 Cl
ATOM      5  C   UNL     1       0.749   9.680  19.378  0.00  0.00    +0.000 A 
ATOM      6  N   UNL     1      -0.053  10.758  19.522  0.00  0.00    +0.000 NA
ATOM      7  C   UNL     1      -0.591  10.983  20.729  0.00  0.00    +0.000 A 
ATOM      8  C   UNL     1      -1.425  12.077  20.907  0.00  0.00    +0.000 A 
ATOM      9  C   UNL     1      -2.015  12.356  22.144  0.00  0.00    +0.000 A 
ATOM     10  C   UNL     1      -1.765  11.529  23.234  0.00  0.00    +0.000 A 
ATOM     11  C   UNL     1      -0.929  10.426  23.084  0.00  0.00    +0.000 A 
ATOM     12  C   UNL     1      -0.345  10.147  21.837  0.00  0.00    +0.000 A 
ATOM     13  C   UNL     1       0.489   9.040  21.647  0.00  0.00    +0.000 A 
ATOM     14  C   UNL     1       1.052   8.780  20.392  0.00  0.00    +0.000 A 
ENDBRANCH   3  14
ENDBRANCH   1   3
BRANCH   1  15
ATOM     15  C   UNL     1       1.633   5.244  20.289  0.00  0.00    +0.000 C 
BRANCH  15  16
ATOM     16  C   UNL     1       3.055   4.689  20.051  0.00  0.00    +0.000 C 
ATOM     17  C   UNL     1       3.795   5.305  18.848  0.00  0.00    +0.000 C 
ATOM     18  C   UNL     1       4.091   4.061  17.988  0.00  0.00    +0.000 C 
ATOM     19  C   UNL     1       2.732   3.524  17.468  0.00  0.00    +0.000 C 
ATOM     20  C   UNL     1       2.156   2.837  18.700  0.00  0.00    +0.000 C 
ATOM     21  N   UNL     1       3.093   3.203  19.792  0.00  0.00    +0.000 NA
ATOM     22  C   UNL     1       4.396   3.045  19.093  0.00  0.00    +0.000 C 
BRANCH  18  23
ATOM     23  C   UNL     1       5.144   4.286  16.930  0.00  0.00    +0.000 A 
ATOM     24  C   UNL     1       4.854   4.121  15.566  0.00  0.00    +0.000 A 
ATOM     25  C   UNL     1       5.833   4.325  14.590  0.00  0.00    +0.000 A 
ATOM     26  C   UNL     1       7.122   4.695  14.960  0.00  0.00    +0.000 A 
ATOM     27  C   UNL     1       7.432   4.860  16.306  0.00  0.00    +0.000 A 
ATOM     28  C   UNL     1       6.453   4.653  17.283  0.00  0.00    +0.000 A 
ENDBRANCH  18  23
ENDBRANCH  15  16
ENDBRANCH   1  15
TORSDOF 5
ENDMDL
MODEL 3
REMARK VINA RESULT:      -8.9      6.281      8.189
REMARK  Name = 
REMARK  5 active torsions:
REMARK  status: ('A' for Active; 'I' for Inactive)
REMARK    1  A    between atoms: C_11  and  C_12
REMARK    2  A    between atoms: C_12  and  N_13
REMARK    3  A    between atoms: N_13  and  C_14
REMARK    4  A    between atoms: C_14  and  C_15
REMARK    5  A    between atoms: C_17  and  C_18
REMARK                            x       y       z     vdW  Elec       q    Type
REMARK                         _______ _______ _______ _____ _____    ______ ____
ROOT
ATOM      1  N   UNL     1       8.153   8.990  17.855  0.00  0.00    +0.000 NA
ATOM      2  H   UNL     1       8.723   9.182  17.030  0.00  0.00    +0.000 HD
ENDROOT
BRANCH   1   3
ATOM      3  C   UNL     1       8.948   9.263  19.062  0.00  0.00    +0.000 C 
BRANCH   3  14
ATOM      4 CL   UNL     1       8.713  11.003  21.705  0.00  0.00    +0.000 Cl
ATOM      5  C   UNL     1       9.384  11.501  20.199  0.00  0.00    +0.000 A 
ATOM      6  N   UNL     1       9.818  12.779  20.234  0.00  0.00    +0.000 NA
ATOM      7  C   UNL     1      10.351  13.292  19.116  0.00  0.00    +0.000 A 
ATOM      8  C   UNL     1      10.813  14.600  19.122  0.00  0.00    +0.000 A 
ATOM      9  C   UNL     1      11.380  15.183  17.984  0.00  0.00    +0.000 A 
ATOM     10  C   UNL     1      11.486  14.449  16.808  0.00  0.00    +0.000 A 
ATOM     11  C   UNL     1      11.027  13.134  16.773  0.00  0.00    +0.000 A 
ATOM     12  C   UNL     1      10.465  12.552  17.921  0.00  0.00    +0.000 A 
ATOM     13  C   UNL     1      10.005  11.231  17.926  0.00  0.00    +0.000 A 
ATOM     14  C   UNL     1       9.456  10.673  19.086  0.00  0.00    +0.000 A 
ENDBRANCH   3  14
ENDBRANCH   1   3
BRANCH   1  15
ATOM     15  C   UNL     1       7.773   7.572  17.863  0.00  0.00    +0.000 C 
BRANCH  15  16
ATOM     16  C   UNL     1       6.508   7.230  17.047  0.00  0.00    +0.000 C 
ATOM     17  C   UNL     1       5.361   6.603  17.864  0.00  0.00    +0.000 C 
ATOM     18  C   UNL     1       5.153   5.260  17.140  0.00  0.00    +0.000 C 
ATOM     19  C   UNL     1       6.419   4.399  17.386  0.00  0.00    +0.000 C 
ATOM     20  C   UNL     1       7.435   5.031  16.441  0.00  0.00    +0.000 C 
ATOM     21  N   UNL     1       6.751   6.245  15.929  0.00  0.00    +0.000 NA
ATOM     22  C   UNL     1       5.386   5.704  15.692  0.00  0.00    +0.000 C 
BRANCH  18  23
ATOM     23  C   UNL     1       3.842   4.588  17.466  0.00  0.00    +0.000 A 
ATOM     24  C   UNL     1       3.681   3.199  17.331  0.00  0.00    +0.000 A 
ATOM     25  C   UNL     1       2.464   2.581  17.628  0.00  0.00    +0.000 A 
ATOM     26  C   UNL     1       1.383   3.340  18.063  0.00  0.00    +0.000 A 
ATOM     27  C   UNL     1       1.518   4.718  18.200  0.00  0.00    +0.000 A 
ATOM     28  C   UNL     1       2.736   5.337  17.898  0.00  0.00    +0.000 A 
ENDBRANCH  18  23
ENDBRANCH  15  16
ENDBRANCH   1  15
TORSDOF 5
ENDMDL
MODEL 4
REMARK VINA RESULT:      -8.8      1.039      1.232
REMARK  Name = 
REMARK  5 active torsions:
REMARK  status: ('A' for Active; 'I' for Inactive)
REMARK    1  A    between atoms: C_11  and  C_12
REMARK    2  A    between atoms: C_12  and  N_13
REMARK    3  A    between atoms: N_13  and  C_14
REMARK    4  A    between atoms: C_14  and  C_15
REMARK    5  A    between atoms: C_17  and  C_18
REMARK                            x       y       z     vdW  Elec       q    Type
REMARK                         _______ _______ _______ _____ _____    ______ ____
ROOT
ATOM      1  N   UNL     1       1.551   6.934  21.287  0.00  0.00    +0.000 NA
ATOM      2  H   UNL     1       0.678   7.157  21.768  0.00  0.00    +0.000 HD
ENDROOT
BRANCH   1   3
ATOM      3  C   UNL     1       1.841   7.994  20.309  0.00  0.00    +0.000 C 
BRANCH   3  14
ATOM      4 CL   UNL     1       0.947   9.559  17.697  0.00  0.00    +0.000 Cl
ATOM      5  C   UNL     1       0.426   9.862  19.310  0.00  0.00    +0.000 A 
ATOM      6  N   UNL     1      -0.441  10.896  19.378  0.00  0.00    +0.000 NA
ATOM      7  C   UNL     1      -0.912  11.241  20.585  0.00  0.00    +0.000 A 
ATOM      8  C   UNL     1      -1.810  12.294  20.687  0.00  0.00    +0.000 A 
ATOM      9  C   UNL     1      -2.334  12.694  21.920  0.00  0.00    +0.000 A 
ATOM     10  C   UNL     1      -1.952  12.034  23.084  0.00  0.00    +0.000 A 
ATOM     11  C   UNL     1      -1.050  10.976  23.010  0.00  0.00    +0.000 A 
ATOM     12  C   UNL     1      -0.532  10.575  21.767  0.00  0.00    +0.000 A 
ATOM     13  C   UNL     1       0.367   9.508  21.655  0.00  0.00    +0.000 A 
ATOM     14  C   UNL     1       0.861   9.123  20.403  0.00  0.00    +0.000 A 
ENDBRANCH   3  14
ENDBRANCH   1   3
BRANCH   1  15
ATOM     15  C   UNL     1       1.398   5.666  20.564  0.00  0.00    +0.000 C 
BRANCH  15  16
ATOM     16  C   UNL     1       2.705   4.865  20.369  0.00  0.00    +0.000 C 
ATOM     17  C   UNL     1       3.657   5.433  19.299  0.00  0.00    +0.000 C 
ATOM     18  C   UNL     1       3.789   4.244  18.328  0.00  0.00    +0.000 C 
ATOM     19  C   UNL     1       2.407   4.040  17.655  0.00  0.00    +0.000 C 
ATOM     20  C   UNL     1       1.599   3.367  18.758  0.00  0.00    +0.000 C 
ATOM     21  N   UNL     1       2.483   3.432  19.949  0.00  0.00    +0.000 NA
ATOM     22  C   UNL     1       3.792   3.086  19.332  0.00  0.00    +0.000 C 
BRANCH  18  23
ATOM     23  C   UNL     1       4.959   4.356  17.382  0.00  0.00    +0.000 A 
ATOM     24  C   UNL     1       6.260   4.589  17.856  0.00  0.00    +0.000 A 
ATOM     25  C   UNL     1       7.341   4.697  16.976  0.00  0.00    +0.000 A 
ATOM     26  C   UNL     1       7.139   4.578  15.605  0.00  0.00    +0.000 A 
ATOM     27  C   UNL     1       5.857   4.352  15.113  0.00  0.00    +0.000 A 
ATOM     28  C   UNL     1       4.776   4.247  15.994  0.00  0.00    +0.000 A 
ENDBRANCH  18  23
ENDBRANCH  15  16
ENDBRANCH   1  15
TORSDOF 5
ENDMDL
MODEL 5
REMARK VINA RESULT:      -8.6      1.714      2.952
REMARK  Name = 
REMARK  5 active torsions:
REMARK  status: ('A' for Active; 'I' for Inactive)
REMARK    1  A    between atoms: C_11  and  C_12
REMARK    2  A    between atoms: C_12  and  N_13
REMARK    3  A    between atoms: N_13  and  C_14
REMARK    4  A    between atoms: C_14  and  C_15
REMARK    5  A    between atoms: C_17  and  C_18
REMARK                            x       y       z     vdW  Elec       q    Type
REMARK                         _______ _______ _______ _____ _____    ______ ____
ROOT
ATOM      1  N   UNL     1       3.462   5.676  20.134  0.00  0.00    +0.000 NA
ATOM      2  H   UNL     1       3.162   4.883  20.703  0.00  0.00    +0.000 HD
ENDROOT
BRANCH   1   3
ATOM      3  C   UNL     1       2.341   6.108  19.285  0.00  0.00    +0.000 C 
BRANCH   3  14
ATOM      4 CL   UNL     1       2.505   8.679  17.433  0.00  0.00    +0.000 Cl
ATOM      5  C   UNL     1       1.799   8.580  19.000  0.00  0.00    +0.000 A 
ATOM      6  N   UNL     1       1.300   9.767  19.409  0.00  0.00    +0.000 NA
ATOM      7  C   UNL     1       0.734   9.826  20.622  0.00  0.00    +0.000 A 
ATOM      8  C   UNL     1       0.205  11.029  21.067  0.00  0.00    +0.000 A 
ATOM      9  C   UNL     1      -0.400  11.145  22.323  0.00  0.00    +0.000 A 
ATOM     10  C   UNL     1      -0.476  10.038  23.161  0.00  0.00    +0.000 A 
ATOM     11  C   UNL     1       0.049   8.818  22.741  0.00  0.00    +0.000 A 
ATOM     12  C   UNL     1       0.649   8.707  21.475  0.00  0.00    +0.000 A 
ATOM     13  C   UNL     1       1.176   7.495  21.015  0.00  0.00    +0.000 A 
ATOM     14  C   UNL     1       1.761   7.409  19.747  0.00  0.00    +0.000 A 
ENDBRANCH   3  14
ENDBRANCH   1   3
BRANCH   1  15
ATOM     15  C   UNL     1       4.568   5.260  19.263  0.00  0.00    +0.000 C 
BRANCH  15  16
ATOM     16  C   UNL     1       4.505   5.808  17.821  0.00  0.00    +0.000 C 
ATOM     17  C   UNL     1       4.743   4.757  16.719  0.00  0.00    +0.000 C 
ATOM     18  C   UNL     1       5.959   5.344  15.978  0.00  0.00    +0.000 C 
ATOM     19  C   UNL     1       7.168   5.278  16.947  0.00  0.00    +0.000 C 
ATOM     20  C   UNL     1       6.887   6.430  17.904  0.00  0.00    +0.000 C 
ATOM     21  N   UNL     1       5.523   6.886  17.535  0.00  0.00    +0.000 NA
ATOM     22  C   UNL     1       5.616   6.836  16.051  0.00  0.00    +0.000 C 
BRANCH  18  23
ATOM     23  C   UNL     1       6.191   4.743  14.614  0.00  0.00    +0.000 A 
ATOM     24  C   UNL     1       7.350   5.035  13.875  0.00  0.00    +0.000 A 
ATOM     25  C   UNL     1       7.559   4.481  12.610  0.00  0.00    +0.000 A 
ATOM     26  C   UNL     1       6.611   3.626  12.057  0.00  0.00    +0.000 A 
ATOM     27  C   UNL     1       5.454   3.326  12.769  0.00  0.00    +0.000 A 
ATOM     28  C   UNL     1       5.244   3.884  14.034  0.00  0.00    +0.000 A 
ENDBRANCH  18  23
ENDBRANCH  15  16
ENDBRANCH   1  15
TORSDOF 5
ENDMDL
MODEL 6
REMARK VINA RESULT:      -8.6      2.954      8.889
REMARK  Name = 
REMARK  5 active torsions:
REMARK  status: ('A' for Active; 'I' for Inactive)
REMARK    1  A    between atoms: C_11  and  C_12
REMARK    2  A    between atoms: C_12  and  N_13
REMARK    3  A    between atoms: N_13  and  C_14
REMARK    4  A    between atoms: C_14  and  C_15
REMARK    5  A    between atoms: C_17  and  C_18
REMARK                            x       y       z     vdW  Elec       q    Type
REMARK                         _______ _______ _______ _____ _____    ______ ____
ROOT
ATOM      1  N   UNL     1       1.967   8.750  17.377  0.00  0.00    +0.000 NA
ATOM      2  H   UNL     1       1.229   8.082  17.600  0.00  0.00    +0.000 HD
ENDROOT
BRANCH   1   3
ATOM      3  C   UNL     1       3.264   8.182  17.776  0.00  0.00    +0.000 C 
BRANCH   3  14
ATOM      4 CL   UNL     1       4.950   6.005  16.200  0.00  0.00    +0.000 Cl
ATOM      5  C   UNL     1       3.847   5.719  17.492  0.00  0.00    +0.000 A 
ATOM      6  N   UNL     1       3.742   4.406  17.789  0.00  0.00    +0.000 NA
ATOM      7  C   UNL     1       2.902   4.050  18.771  0.00  0.00    +0.000 A 
ATOM      8  C   UNL     1       2.777   2.709  19.106  0.00  0.00    +0.000 A 
ATOM      9  C   UNL     1       1.918   2.284  20.124  0.00  0.00    +0.000 A 
ATOM     10  C   UNL     1       1.158   3.215  20.824  0.00  0.00    +0.000 A 
ATOM     11  C   UNL     1       1.261   4.566  20.507  0.00  0.00    +0.000 A 
ATOM     12  C   UNL     1       2.132   4.988  19.488  0.00  0.00    +0.000 A 
ATOM     13  C   UNL     1       2.270   6.339  19.151  0.00  0.00    +0.000 A 
ATOM     14  C   UNL     1       3.150   6.733  18.137  0.00  0.00    +0.000 A 
ENDBRANCH   3  14
ENDBRANCH   1   3
BRANCH   1  15
ATOM     15  C   UNL     1       1.751   9.987  18.137  0.00  0.00    +0.000 C 
BRANCH  15  16
ATOM     16  C   UNL     1       0.476  10.003  19.008  0.00  0.00    +0.000 C 
ATOM     17  C   UNL     1      -0.840  10.174  18.224  0.00  0.00    +0.000 C 
ATOM     18  C   UNL     1      -1.423  11.452  18.857  0.00  0.00    +0.000 C 
ATOM     19  C   UNL     1      -0.494  12.630  18.462  0.00  0.00    +0.000 C 
ATOM     20  C   UNL     1       0.705  12.427  19.381  0.00  0.00    +0.000 C 
ATOM     21  N   UNL     1       0.449  11.115  20.029  0.00  0.00    +0.000 NA
ATOM     22  C   UNL     1      -1.005  11.236  20.315  0.00  0.00    +0.000 C 
BRANCH  18  23
ATOM     23  C   UNL     1      -2.889  11.662  18.570  0.00  0.00    +0.000 A 
ATOM     24  C   UNL     1      -3.453  11.283  17.341  0.00  0.00    +0.000 A 
ATOM     25  C   UNL     1      -4.810  11.485  17.076  0.00  0.00    +0.000 A 
ATOM     26  C   UNL     1      -5.629  12.072  18.035  0.00  0.00    +0.000 A 
ATOM     27  C   UNL     1      -5.090  12.459  19.258  0.00  0.00    +0.000 A 
ATOM     28  C   UNL     1      -3.731  12.261  19.521  0.00  0.00    +0.000 A 
ENDBRANCH  18  23
ENDBRANCH  15  16
ENDBRANCH   1  15
TORSDOF 5
ENDMDL
MODEL 7
REMARK VINA RESULT:      -8.6      2.779      5.209
REMARK  Name = 
REMARK  5 active torsions:
REMARK  status: ('A' for Active; 'I' for Inactive)
REMARK    1  A    between atoms: C_11  and  C_12
REMARK    2  A    between atoms: C_12  and  N_13
REMARK    3  A    between atoms: N_13  and  C_14
REMARK    4  A    between atoms: C_14  and  C_15
REMARK    5  A    between atoms: C_17  and  C_18
REMARK                            x       y       z     vdW  Elec       q    Type
REMARK                         _______ _______ _______ _____ _____    ______ ____
ROOT
ATOM      1  N   UNL     1       3.447   8.107  17.199  0.00  0.00    +0.000 NA
ATOM      2  H   UNL     1       3.819   9.051  17.083  0.00  0.00    +0.000 HD
ENDROOT
BRANCH   1   3
ATOM      3  C   UNL     1       2.207   8.176  17.988  0.00  0.00    +0.000 C 
BRANCH   3  14
ATOM      4 CL   UNL     1       1.678   8.309  21.113  0.00  0.00    +0.000 Cl
ATOM      5  C   UNL     1       1.742   6.891  20.138  0.00  0.00    +0.000 A 
ATOM      6  N   UNL     1       1.551   5.767  20.862  0.00  0.00    +0.000 NA
ATOM      7  C   UNL     1       1.591   4.592  20.219  0.00  0.00    +0.000 A 
ATOM      8  C   UNL     1       1.390   3.420  20.933  0.00  0.00    +0.000 A 
ATOM      9  C   UNL     1       1.419   2.167  20.311  0.00  0.00    +0.000 A 
ATOM     10  C   UNL     1       1.660   2.077  18.944  0.00  0.00    +0.000 A 
ATOM     11  C   UNL     1       1.868   3.238  18.204  0.00  0.00    +0.000 A 
ATOM     12  C   UNL     1       1.831   4.493  18.833  0.00  0.00    +0.000 A 
ATOM     13  C   UNL     1       2.024   5.680  18.118  0.00  0.00    +0.000 A 
ATOM     14  C   UNL     1       1.973   6.919  18.769  0.00  0.00    +0.000 A 
ENDBRANCH   3  14
ENDBRANCH   1   3
BRANCH   1  15
ATOM     15  C   UNL     1       4.417   7.287  17.934  0.00  0.00    +0.000 C 
BRANCH  15  16
ATOM     16  C   UNL     1       5.679   6.895  17.134  0.00  0.00    +0.000 C 
ATOM     17  C   UNL     1       5.416   6.497  15.668  0.00  0.00    +0.000 C 
ATOM     18  C   UNL     1       5.985   5.065  15.622  0.00  0.00    +0.000 C 
ATOM     19  C   UNL     1       5.076   4.177  16.512  0.00  0.00    +0.000 C 
ATOM     20  C   UNL     1       5.511   4.568  17.920  0.00  0.00    +0.000 C 
ATOM     21  N   UNL     1       6.426   5.718  17.713  0.00  0.00    +0.000 NA
ATOM     22  C   UNL     1       7.201   5.237  16.538  0.00  0.00    +0.000 C 
BRANCH  18  23
ATOM     23  C   UNL     1       6.225   4.548  14.225  0.00  0.00    +0.000 A 
ATOM     24  C   UNL     1       7.355   4.937  13.488  0.00  0.00    +0.000 A 
ATOM     25  C   UNL     1       7.571   4.460  12.193  0.00  0.00    +0.000 A 
ATOM     26  C   UNL     1       6.658   3.588  11.608  0.00  0.00    +0.000 A 
ATOM     27  C   UNL     1       5.530   3.194  12.319  0.00  0.00    +0.000 A 
ATOM     28  C   UNL     1       5.312   3.674  13.614  0.00  0.00    +0.000 A 
ENDBRANCH  18  23
ENDBRANCH  15  16
ENDBRANCH   1  15
TORSDOF 5
ENDMDL
MODEL 8
REMARK VINA RESULT:      -8.6      1.584      2.136
REMARK  Name = 
REMARK  5 active torsions:
REMARK  status: ('A' for Active; 'I' for Inactive)
REMARK    1  A    between atoms: C_11  and  C_12
REMARK    2  A    between atoms: C_12  and  N_13
REMARK    3  A    between atoms: N_13  and  C_14
REMARK    4  A    between atoms: C_14  and  C_15
REMARK    5  A    between atoms: C_17  and  C_18
REMARK                            x       y       z     vdW  Elec       q    Type
REMARK                         _______ _______ _______ _____ _____    ______ ____
ROOT
ATOM      1  N   UNL     1       1.942   7.218  20.950  0.00  0.00    +0.000 NA
ATOM      2  H   UNL     1       2.350   7.345  21.876  0.00  0.00    +0.000 HD
ENDROOT
BRANCH   1   3
ATOM      3  C   UNL     1       0.725   8.038  20.846  0.00  0.00    +0.000 C 
BRANCH   3  14
ATOM      4 CL   UNL     1       1.861   8.125  17.885  0.00  0.00    +0.000 Cl
ATOM      5  C   UNL     1       1.498   9.475  18.890  0.00  0.00    +0.000 A 
ATOM      6  N   UNL     1       1.766  10.650  18.279  0.00  0.00    +0.000 NA
ATOM      7  C   UNL     1       1.538  11.780  18.964  0.00  0.00    +0.000 A 
ATOM      8  C   UNL     1       1.797  13.002  18.362  0.00  0.00    +0.000 A 
ATOM      9  C   UNL     1       1.574  14.211  19.030  0.00  0.00    +0.000 A 
ATOM     10  C   UNL     1       1.087  14.204  20.333  0.00  0.00    +0.000 A 
ATOM     11  C   UNL     1       0.822  12.990  20.962  0.00  0.00    +0.000 A 
ATOM     12  C   UNL     1       1.042  11.780  20.283  0.00  0.00    +0.000 A 
ATOM     13  C   UNL     1       0.775  10.543  20.880  0.00  0.00    +0.000 A 
ATOM     14  C   UNL     1       0.995   9.352  20.178  0.00  0.00    +0.000 A 
ENDBRANCH   3  14
ENDBRANCH   1   3
BRANCH   1  15
ATOM     15  C   UNL     1       1.567   5.810  20.772  0.00  0.00    +0.000 C 
BRANCH  15  16
ATOM     16  C   UNL     1       2.740   4.856  20.458  0.00  0.00    +0.000 C 
ATOM     17  C   UNL     1       3.778   5.414  19.465  0.00  0.00    +0.000 C 
ATOM     18  C   UNL     1       3.741   4.360  18.342  0.00  0.00    +0.000 C 
ATOM     19  C   UNL     1       2.351   4.457  17.661  0.00  0.00    +0.000 C 
ATOM     20  C   UNL     1       1.440   3.770  18.671  0.00  0.00    +0.000 C 
ATOM     21  N   UNL     1       2.311   3.542  19.851  0.00  0.00    +0.000 NA
ATOM     22  C   UNL     1       3.560   3.090  19.181  0.00  0.00    +0.000 C 
BRANCH  18  23
ATOM     23  C   UNL     1       4.924   4.421  17.408  0.00  0.00    +0.000 A 
ATOM     24  C   UNL     1       6.231   4.585  17.896  0.00  0.00    +0.000 A 
ATOM     25  C   UNL     1       7.324   4.647  17.028  0.00  0.00    +0.000 A 
ATOM     26  C   UNL     1       7.130   4.550  15.654  0.00  0.00    +0.000 A 
ATOM     27  C   UNL     1       5.844   4.392  15.148  0.00  0.00    +0.000 A 
ATOM     28  C   UNL     1       4.750   4.333  16.018  0.00  0.00    +0.000 A 
ENDBRANCH  18  23
ENDBRANCH  15  16
ENDBRANCH   1  15
TORSDOF 5
ENDMDL
MODEL 9
REMARK VINA RESULT:      -8.5      0.881      1.380
REMARK  Name = 
REMARK  5 active torsions:
REMARK  status: ('A' for Active; 'I' for Inactive)
REMARK    1  A    between atoms: C_11  and  C_12
REMARK    2  A    between atoms: C_12  and  N_13
REMARK    3  A    between atoms: N_13  and  C_14
REMARK    4  A    between atoms: C_14  and  C_15
REMARK    5  A    between atoms: C_17  and  C_18
REMARK                            x       y       z     vdW  Elec       q    Type
REMARK                         _______ _______ _______ _____ _____    ______ ____
ROOT
ATOM      1  N   UNL     1       1.212   4.877  20.470  0.00  0.00    +0.000 NA
ATOM      2  H   UNL     1       1.159   4.788  19.454  0.00  0.00    +0.000 HD
ENDROOT
BRANCH   1   3
ATOM      3  C   UNL     1       2.194   5.920  20.807  0.00  0.00    +0.000 C 
BRANCH   3  14
ATOM      4 CL   UNL     1       3.029   7.159  18.009  0.00  0.00    +0.000 Cl
ATOM      5  C   UNL     1       2.043   7.899  19.211  0.00  0.00    +0.000 A 
ATOM      6  N   UNL     1       1.638   9.135  18.846  0.00  0.00    +0.000 NA
ATOM      7  C   UNL     1       0.873   9.823  19.705  0.00  0.00    +0.000 A 
ATOM      8  C   UNL     1       0.435  11.093  19.357  0.00  0.00    +0.000 A 
ATOM      9  C   UNL     1      -0.367  11.853  20.213  0.00  0.00    +0.000 A 
ATOM     10  C   UNL     1      -0.740  11.340  21.451  0.00  0.00    +0.000 A 
ATOM     11  C   UNL     1      -0.312  10.070  21.828  0.00  0.00    +0.000 A 
ATOM     12  C   UNL     1       0.489   9.309  20.959  0.00  0.00    +0.000 A 
ATOM     13  C   UNL     1       0.927   8.024  21.299  0.00  0.00    +0.000 A 
ATOM     14  C   UNL     1       1.716   7.284  20.412  0.00  0.00    +0.000 A 
ENDBRANCH   3  14
ENDBRANCH   1   3
BRANCH   1  15
ATOM     15  C   UNL     1       1.669   3.608  21.047  0.00  0.00    +0.000 C 
BRANCH  15  16
ATOM     16  C   UNL     1       2.868   2.955  20.323  0.00  0.00    +0.000 C 
ATOM     17  C   UNL     1       3.805   3.945  19.604  0.00  0.00    +0.000 C 
ATOM     18  C   UNL     1       3.748   3.438  18.151  0.00  0.00    +0.000 C 
ATOM     19  C   UNL     1       2.312   3.698  17.626  0.00  0.00    +0.000 C 
ATOM     20  C   UNL     1       1.509   2.593  18.301  0.00  0.00    +0.000 C 
ATOM     21  N   UNL     1       2.468   1.973  19.249  0.00  0.00    +0.000 NA
ATOM     22  C   UNL     1       3.691   1.928  18.402  0.00  0.00    +0.000 C 
BRANCH  18  23
ATOM     23  C   UNL     1       4.860   3.963  17.277  0.00  0.00    +0.000 A 
ATOM     24  C   UNL     1       4.728   4.011  15.880  0.00  0.00    +0.000 A 
ATOM     25  C   UNL     1       5.763   4.493  15.073  0.00  0.00    +0.000 A 
ATOM     26  C   UNL     1       6.950   4.932  15.649  0.00  0.00    +0.000 A 
ATOM     27  C   UNL     1       7.104   4.889  17.031  0.00  0.00    +0.000 A 
ATOM     28  C   UNL     1       6.070   4.404  17.837  0.00  0.00    +0.000 A 
ENDBRANCH  18  23
ENDBRANCH  15  16
ENDBRANCH   1  15
TORSDOF 5
ENDMDL
