MODEL 1
REMARK VINA RESULT:      -9.9      0.000      0.000
REMARK  Name = 
REMARK  3 active torsions:
REMARK  status: ('A' for Active; 'I' for Inactive)
REMARK    1  A    between atoms: C_1  and  N_2
REMARK    2  A    between atoms: C_6  and  C_7
REMARK    3  A    between atoms: C_9  and  C_10
REMARK                            x       y       z     vdW  Elec       q    Type
REMARK                         _______ _______ _______ _____ _____    ______ ____
ROOT
ATOM      1  C   UNL     1       2.453   1.882  19.358  0.00  0.00    +0.000 C 
ATOM      2  N   UNL     1       2.506   3.306  19.076  0.00  0.00    +0.000 N 
ATOM      3  C   UNL     1       2.428   3.821  17.807  0.00  0.00    +0.000 C 
ATOM      4  N   UNL     1       2.545   3.113  16.736  0.00  0.00    +0.000 NA
ATOM      5  N   UNL     1       2.291   5.180  17.690  0.00  0.00    +0.000 N 
ATOM      6  C   UNL     1       3.269   5.919  18.529  0.00  0.00    +0.000 C 
ATOM      7  C   UNL     1       3.100   7.467  18.519  0.00  0.00    +0.000 C 
ATOM      8  N   UNL     1       2.153   7.767  19.578  0.00  0.00    +0.000 N 
ATOM      9  C   UNL     1       1.369   8.889  19.485  0.00  0.00    +0.000 A 
ATOM     10  N   UNL     1       1.669   9.800  18.539  0.00  0.00    +0.000 NA
ATOM     11  C   UNL     1       0.904  10.908  18.463  0.00  0.00    +0.000 A 
ATOM     12  C   UNL     1      -0.138  11.151  19.309  0.00  0.00    +0.000 A 
ATOM     13  F   UNL     1      -0.891  12.247  19.231  0.00  0.00    +0.000 F 
ATOM     14  C   UNL     1      -0.374  10.174  20.257  0.00  0.00    +0.000 A 
ATOM     15  N   UNL     1       0.361   9.044  20.359  0.00  0.00    +0.000 NA
ATOM     16  C   UNL     1       1.723   6.574  20.259  0.00  0.00    +0.000 C 
ATOM     17  C   UNL     1       2.864   5.569  19.966  0.00  0.00    +0.000 C 
ATOM     18  C   UNL     1       2.287   4.175  20.128  0.00  0.00    +0.000 C 
ATOM     19  O   UNL     1       1.660   3.862  21.141  0.00  0.00    +0.000 OA
ATOM     20  H   UNL     1       2.730   2.136  16.964  0.00  0.00    +0.000 HD
ATOM     21  H   UNL     1       2.330   5.436  16.709  0.00  0.00    +0.000 HD
ENDROOT
BRANCH   6  22
ATOM     22  C   UNL     1       4.657   5.627  17.954  0.00  0.00    +0.000 A 
ATOM     23  C   UNL     1       4.965   5.864  16.620  0.00  0.00    +0.000 A 
ATOM     24  C   UNL     1       6.040   5.060  16.143  0.00  0.00    +0.000 A 
ATOM     25  C   UNL     1       6.765   4.582  17.220  0.00  0.00    +0.000 A 
ATOM     26  S   UNL     1       5.955   4.849  18.726  0.00  0.00    +0.000 S 
BRANCH  24  27
ATOM     27  C   UNL     1       6.254   4.696  14.736  0.00  0.00    +0.000 A 
ATOM     28  C   UNL     1       7.455   5.100  14.107  0.00  0.00    +0.000 A 
ATOM     29  C   UNL     1       7.695   4.849  12.756  0.00  0.00    +0.000 A 
ATOM     30  C   UNL     1       6.730   4.202  11.994  0.00  0.00    +0.000 A 
ATOM     31  C   UNL     1       5.543   3.800  12.601  0.00  0.00    +0.000 A 
ATOM     32 CL   UNL     1       4.339   3.015  11.644  0.00  0.00    +0.000 Cl
ATOM     33  C   UNL     1       5.295   4.037  13.959  0.00  0.00    +0.000 A 
ENDBRANCH  24  27
ENDBRANCH   6  22
TORSDOF 2
ENDMDL
MODEL 2
REMARK VINA RESULT:      -9.1      1.079      1.370
REMARK  Name = 
REMARK  3 active torsions:
REMARK  status: ('A' for Active; 'I' for Inactive)
REMARK    1  A    between atoms: C_1  and  N_2
REMARK    2  A    between atoms: C_6  and  C_7
REMARK    3  A    between atoms: C_9  and  C_10
REMARK                            x       y       z     vdW  Elec       q    Type
REMARK                         _______ _______ _______ _____ _____    ______ ____
ROOT
ATOM      1  C   UNL     1       1.925   1.871  19.338  0.00  0.00    +0.000 C 
ATOM      2  N   UNL     1       2.063   3.308  19.174  0.00  0.00    +0.000 N 
ATOM      3  C   UNL     1       2.088   3.922  17.947  0.00  0.00    +0.000 C 
ATOM      4  N   UNL     1       2.237   3.292  16.832  0.00  0.00    +0.000 NA
ATOM      5  N   UNL     1       2.024   5.291  17.930  0.00  0.00    +0.000 N 
ATOM      6  C   UNL     1       2.982   5.911  18.880  0.00  0.00    +0.000 C 
ATOM      7  C   UNL     1       2.889   7.462  18.983  0.00  0.00    +0.000 C 
ATOM      8  N   UNL     1       1.893   7.730  20.006  0.00  0.00    +0.000 N 
ATOM      9  C   UNL     1       1.171   8.895  19.957  0.00  0.00    +0.000 A 
ATOM     10  N   UNL     1       1.572   9.859  19.105  0.00  0.00    +0.000 NA
ATOM     11  C   UNL     1       0.867  11.008  19.073  0.00  0.00    +0.000 A 
ATOM     12  C   UNL     1      -0.212  11.240  19.874  0.00  0.00    +0.000 A 
ATOM     13  F   UNL     1      -0.906  12.377  19.839  0.00  0.00    +0.000 F 
ATOM     14  C   UNL     1      -0.553  10.208  20.727  0.00  0.00    +0.000 A 
ATOM     15  N   UNL     1       0.120   9.036  20.781  0.00  0.00    +0.000 NA
ATOM     16  C   UNL     1       1.366   6.512  20.564  0.00  0.00    +0.000 C 
ATOM     17  C   UNL     1       2.473   5.474  20.259  0.00  0.00    +0.000 C 
ATOM     18  C   UNL     1       1.821   4.105  20.276  0.00  0.00    +0.000 C 
ATOM     19  O   UNL     1       1.119   3.748  21.224  0.00  0.00    +0.000 OA
ATOM     20  H   UNL     1       2.361   2.292  16.992  0.00  0.00    +0.000 HD
ATOM     21  H   UNL     1       2.135   5.618  16.977  0.00  0.00    +0.000 HD
ENDROOT
BRANCH   6  22
ATOM     22  C   UNL     1       4.388   5.592  18.364  0.00  0.00    +0.000 A 
ATOM     23  C   UNL     1       4.792   5.924  17.078  0.00  0.00    +0.000 A 
ATOM     24  C   UNL     1       5.853   5.104  16.595  0.00  0.00    +0.000 A 
ATOM     25  C   UNL     1       6.482   4.495  17.667  0.00  0.00    +0.000 A 
ATOM     26  S   UNL     1       5.592   4.679  19.140  0.00  0.00    +0.000 S 
BRANCH  24  27
ATOM     27  C   UNL     1       6.138   4.850  15.177  0.00  0.00    +0.000 A 
ATOM     28  C   UNL     1       5.396   3.852  14.504  0.00  0.00    +0.000 A 
ATOM     29  C   UNL     1       5.660   3.510  13.178  0.00  0.00    +0.000 A 
ATOM     30  C   UNL     1       6.687   4.149  12.495  0.00  0.00    +0.000 A 
ATOM     31  C   UNL     1       7.427   5.133  13.145  0.00  0.00    +0.000 A 
ATOM     32 CL   UNL     1       8.716   5.909  12.298  0.00  0.00    +0.000 Cl
ATOM     33  C   UNL     1       7.163   5.492  14.473  0.00  0.00    +0.000 A 
ENDBRANCH  24  27
ENDBRANCH   6  22
TORSDOF 2
ENDMDL
MODEL 3
REMARK VINA RESULT:      -8.3      1.175      1.534
REMARK  Name = 
REMARK  3 active torsions:
REMARK  status: ('A' for Active; 'I' for Inactive)
REMARK    1  A    between atoms: C_1  and  N_2
REMARK    2  A    between atoms: C_6  and  C_7
REMARK    3  A    between atoms: C_9  and  C_10
REMARK                            x       y       z     vdW  Elec       q    Type
REMARK                         _______ _______ _______ _____ _____    ______ ____
ROOT
ATOM      1  C   UNL     1       3.406   1.552  19.259  0.00  0.00    +0.000 C 
ATOM      2  N   UNL     1       3.274   2.950  18.885  0.00  0.00    +0.000 N 
ATOM      3  C   UNL     1       2.830   3.355  17.652  0.00  0.00    +0.000 C 
ATOM      4  N   UNL     1       2.719   2.571  16.635  0.00  0.00    +0.000 NA
ATOM      5  N   UNL     1       2.563   4.690  17.490  0.00  0.00    +0.000 N 
ATOM      6  C   UNL     1       3.665   5.549  17.993  0.00  0.00    +0.000 C 
ATOM      7  C   UNL     1       3.381   7.079  17.931  0.00  0.00    +0.000 C 
ATOM      8  N   UNL     1       2.720   7.408  19.182  0.00  0.00    +0.000 N 
ATOM      9  C   UNL     1       1.854   8.471  19.230  0.00  0.00    +0.000 A 
ATOM     10  N   UNL     1       1.828   9.319  18.183  0.00  0.00    +0.000 NA
ATOM     11  C   UNL     1       0.986  10.371  18.243  0.00  0.00    +0.000 A 
ATOM     12  C   UNL     1       0.184  10.621  19.317  0.00  0.00    +0.000 A 
ATOM     13  F   UNL     1      -0.646  11.661  19.372  0.00  0.00    +0.000 F 
ATOM     14  C   UNL     1       0.277   9.712  20.353  0.00  0.00    +0.000 A 
ATOM     15  N   UNL     1       1.099   8.638  20.328  0.00  0.00    +0.000 NA
ATOM     16  C   UNL     1       2.575   6.251  20.025  0.00  0.00    +0.000 C 
ATOM     17  C   UNL     1       3.675   5.293  19.505  0.00  0.00    +0.000 C 
ATOM     18  C   UNL     1       3.269   3.886  19.901  0.00  0.00    +0.000 C 
ATOM     19  O   UNL     1       2.952   3.620  21.062  0.00  0.00    +0.000 OA
ATOM     20  H   UNL     1       3.032   1.628  16.866  0.00  0.00    +0.000 HD
ATOM     21  H   UNL     1       2.326   4.867  16.521  0.00  0.00    +0.000 HD
ENDROOT
BRANCH   6  22
ATOM     22  C   UNL     1       4.875   5.293  17.091  0.00  0.00    +0.000 A 
ATOM     23  C   UNL     1       4.778   5.324  15.706  0.00  0.00    +0.000 A 
ATOM     24  C   UNL     1       5.786   4.553  15.058  0.00  0.00    +0.000 A 
ATOM     25  C   UNL     1       6.832   4.338  15.937  0.00  0.00    +0.000 A 
ATOM     26  S   UNL     1       6.426   4.785  17.560  0.00  0.00    +0.000 S 
BRANCH  24  27
ATOM     27  C   UNL     1       5.663   3.973  13.713  0.00  0.00    +0.000 A 
ATOM     28  C   UNL     1       4.396   3.976  13.087  0.00  0.00    +0.000 A 
ATOM     29  C   UNL     1       4.192   3.382  11.841  0.00  0.00    +0.000 A 
ATOM     30  C   UNL     1       5.250   2.753  11.198  0.00  0.00    +0.000 A 
ATOM     31  C   UNL     1       6.504   2.742  11.804  0.00  0.00    +0.000 A 
ATOM     32 CL   UNL     1       7.811   1.941  11.009  0.00  0.00    +0.000 Cl
ATOM     33  C   UNL     1       6.723   3.345  13.049  0.00  0.00    +0.000 A 
ENDBRANCH  24  27
ENDBRANCH   6  22
TORSDOF 2
ENDMDL
MODEL 4
REMARK VINA RESULT:      -7.1      5.588      8.343
REMARK  Name = 
REMARK  3 active torsions:
REMARK  status: ('A' for Active; 'I' for Inactive)
REMARK    1  A    between atoms: C_1  and  N_2
REMARK    2  A    between atoms: C_6  and  C_7
REMARK    3  A    between atoms: C_9  and  C_10
REMARK                            x       y       z     vdW  Elec       q    Type
REMARK                         _______ _______ _______ _____ _____    ______ ____
ROOT
ATOM      1  C   UNL     1       1.944  13.154  18.326  0.00  0.00    +0.000 C 
ATOM      2  N   UNL     1       0.925  12.896  19.329  0.00  0.00    +0.000 N 
ATOM      3  C   UNL     1       1.125  13.106  20.670  0.00  0.00    +0.000 C 
ATOM      4  N   UNL     1       2.282  13.312  21.200  0.00  0.00    +0.000 NA
ATOM      5  N   UNL     1       0.029  13.014  21.488  0.00  0.00    +0.000 N 
ATOM      6  C   UNL     1      -0.764  11.785  21.231  0.00  0.00    +0.000 C 
ATOM      7  C   UNL     1      -2.078  11.671  22.059  0.00  0.00    +0.000 C 
ATOM      8  N   UNL     1      -3.098  12.344  21.274  0.00  0.00    +0.000 N 
ATOM      9  C   UNL     1      -4.171  12.916  21.909  0.00  0.00    +0.000 A 
ATOM     10  N   UNL     1      -4.368  12.631  23.211  0.00  0.00    +0.000 NA
ATOM     11  C   UNL     1      -5.434  13.185  23.825  0.00  0.00    +0.000 A 
ATOM     12  C   UNL     1      -6.322  13.997  23.183  0.00  0.00    +0.000 A 
ATOM     13  F   UNL     1      -7.373  14.542  23.794  0.00  0.00    +0.000 F 
ATOM     14  C   UNL     1      -6.056  14.232  21.848  0.00  0.00    +0.000 A 
ATOM     15  N   UNL     1      -4.992  13.707  21.199  0.00  0.00    +0.000 NA
ATOM     16  C   UNL     1      -2.565  12.852  20.037  0.00  0.00    +0.000 C 
ATOM     17  C   UNL     1      -1.305  11.983  19.810  0.00  0.00    +0.000 C 
ATOM     18  C   UNL     1      -0.380  12.763  18.895  0.00  0.00    +0.000 C 
ATOM     19  O   UNL     1      -0.792  13.245  17.838  0.00  0.00    +0.000 OA
ATOM     20  H   UNL     1       3.018  13.268  20.495  0.00  0.00    +0.000 HD
ATOM     21  H   UNL     1       0.326  13.106  22.453  0.00  0.00    +0.000 HD
ENDROOT
BRANCH   6  22
ATOM     22  C   UNL     1       0.113  10.598  21.638  0.00  0.00    +0.000 A 
ATOM     23  C   UNL     1       1.029  10.028  20.764  0.00  0.00    +0.000 A 
ATOM     24  C   UNL     1       1.330   8.670  21.076  0.00  0.00    +0.000 A 
ATOM     25  C   UNL     1       0.975   8.415  22.389  0.00  0.00    +0.000 A 
ATOM     26  S   UNL     1       0.027   9.692  23.073  0.00  0.00    +0.000 S 
BRANCH  24  27
ATOM     27  C   UNL     1       1.815   7.675  20.110  0.00  0.00    +0.000 A 
ATOM     28  C   UNL     1       2.208   8.114  18.825  0.00  0.00    +0.000 A 
ATOM     29  C   UNL     1       2.613   7.218  17.836  0.00  0.00    +0.000 A 
ATOM     30  C   UNL     1       2.618   5.854  18.104  0.00  0.00    +0.000 A 
ATOM     31  C   UNL     1       2.232   5.408  19.365  0.00  0.00    +0.000 A 
ATOM     32 CL   UNL     1       2.220   3.712  19.685  0.00  0.00    +0.000 Cl
ATOM     33  C   UNL     1       1.833   6.300  20.369  0.00  0.00    +0.000 A 
ENDBRANCH  24  27
ENDBRANCH   6  22
TORSDOF 2
ENDMDL
MODEL 5
REMARK VINA RESULT:      -7.0      4.744      7.363
REMARK  Name = 
REMARK  3 active torsions:
REMARK  status: ('A' for Active; 'I' for Inactive)
REMARK    1  A    between atoms: C_1  and  N_2
REMARK    2  A    between atoms: C_6  and  C_7
REMARK    3  A    between atoms: C_9  and  C_10
REMARK                            x       y       z     vdW  Elec       q    Type
REMARK                         _______ _______ _______ _____ _____    ______ ____
ROOT
ATOM      1  C   UNL     1      -3.056   9.727  17.765  0.00  0.00    +0.000 C 
ATOM      2  N   UNL     1      -2.008  10.514  18.393  0.00  0.00    +0.000 N 
ATOM      3  C   UNL     1      -0.686  10.419  18.037  0.00  0.00    +0.000 C 
ATOM      4  N   UNL     1      -0.206   9.476  17.302  0.00  0.00    +0.000 NA
ATOM      5  N   UNL     1       0.171  11.350  18.562  0.00  0.00    +0.000 N 
ATOM      6  C   UNL     1       0.002  11.507  20.030  0.00  0.00    +0.000 C 
ATOM      7  C   UNL     1       0.878  12.623  20.673  0.00  0.00    +0.000 C 
ATOM      8  N   UNL     1       0.094  13.842  20.577  0.00  0.00    +0.000 N 
ATOM      9  C   UNL     1       0.735  15.053  20.511  0.00  0.00    +0.000 A 
ATOM     10  N   UNL     1       2.055  15.092  20.777  0.00  0.00    +0.000 NA
ATOM     11  C   UNL     1       2.676  16.288  20.725  0.00  0.00    +0.000 A 
ATOM     12  C   UNL     1       2.025  17.451  20.438  0.00  0.00    +0.000 A 
ATOM     13  F   UNL     1       2.642  18.631  20.389  0.00  0.00    +0.000 F 
ATOM     14  C   UNL     1       0.671  17.329  20.189  0.00  0.00    +0.000 A 
ATOM     15  N   UNL     1       0.014  16.148  20.218  0.00  0.00    +0.000 NA
ATOM     16  C   UNL     1      -1.183  13.604  19.958  0.00  0.00    +0.000 C 
ATOM     17  C   UNL     1      -1.408  12.089  20.180  0.00  0.00    +0.000 C 
ATOM     18  C   UNL     1      -2.391  11.622  19.124  0.00  0.00    +0.000 C 
ATOM     19  O   UNL     1      -3.456  12.213  18.942  0.00  0.00    +0.000 OA
ATOM     20  H   UNL     1      -0.932   8.803  17.052  0.00  0.00    +0.000 HD
ATOM     21  H   UNL     1       1.120  11.121  18.289  0.00  0.00    +0.000 HD
ENDROOT
BRANCH   6  22
ATOM     22  C   UNL     1       0.438  10.187  20.670  0.00  0.00    +0.000 A 
ATOM     23  C   UNL     1       1.545   9.481  20.217  0.00  0.00    +0.000 A 
ATOM     24  C   UNL     1       1.482   8.089  20.517  0.00  0.00    +0.000 A 
ATOM     25  C   UNL     1       0.569   7.883  21.536  0.00  0.00    +0.000 A 
ATOM     26  S   UNL     1      -0.381   9.294  21.860  0.00  0.00    +0.000 S 
BRANCH  24  27
ATOM     27  C   UNL     1       2.181   7.037  19.766  0.00  0.00    +0.000 A 
ATOM     28  C   UNL     1       2.748   7.361  18.513  0.00  0.00    +0.000 A 
ATOM     29  C   UNL     1       3.366   6.398  17.715  0.00  0.00    +0.000 A 
ATOM     30  C   UNL     1       3.415   5.078  18.146  0.00  0.00    +0.000 A 
ATOM     31  C   UNL     1       2.859   4.744  19.379  0.00  0.00    +0.000 A 
ATOM     32 CL   UNL     1       2.905   3.098  19.899  0.00  0.00    +0.000 Cl
ATOM     33  C   UNL     1       2.246   5.705  20.192  0.00  0.00    +0.000 A 
ENDBRANCH  24  27
ENDBRANCH   6  22
TORSDOF 2
ENDMDL
MODEL 6
REMARK VINA RESULT:      -7.0      4.524      7.183
REMARK  Name = 
REMARK  3 active torsions:
REMARK  status: ('A' for Active; 'I' for Inactive)
REMARK    1  A    between atoms: C_1  and  N_2
REMARK    2  A    between atoms: C_6  and  C_7
REMARK    3  A    between atoms: C_9  and  C_10
REMARK                            x       y       z     vdW  Elec       q    Type
REMARK                         _______ _______ _______ _____ _____    ______ ____
ROOT
ATOM      1  C   UNL     1      -3.103   9.696  17.857  0.00  0.00    +0.000 C 
ATOM      2  N   UNL     1      -2.025  10.481  18.435  0.00  0.00    +0.000 N 
ATOM      3  C   UNL     1      -0.730  10.419  17.985  0.00  0.00    +0.000 C 
ATOM      4  N   UNL     1      -0.289   9.506  17.189  0.00  0.00    +0.000 NA
ATOM      5  N   UNL     1       0.149  11.348  18.478  0.00  0.00    +0.000 N 
ATOM      6  C   UNL     1       0.081  11.458  19.957  0.00  0.00    +0.000 C 
ATOM      7  C   UNL     1       0.984  12.568  20.572  0.00  0.00    +0.000 C 
ATOM      8  N   UNL     1       0.178  13.777  20.569  0.00  0.00    +0.000 N 
ATOM      9  C   UNL     1       0.795  15.000  20.496  0.00  0.00    +0.000 A 
ATOM     10  N   UNL     1       2.131  15.052  20.671  0.00  0.00    +0.000 NA
ATOM     11  C   UNL     1       2.729  16.259  20.612  0.00  0.00    +0.000 A 
ATOM     12  C   UNL     1       2.043  17.419  20.408  0.00  0.00    +0.000 A 
ATOM     13  F   UNL     1       2.639  18.610  20.352  0.00  0.00    +0.000 F 
ATOM     14  C   UNL     1       0.677  17.283  20.249  0.00  0.00    +0.000 A 
ATOM     15  N   UNL     1       0.040  16.091  20.287  0.00  0.00    +0.000 NA
ATOM     16  C   UNL     1      -1.136  13.537  20.034  0.00  0.00    +0.000 C 
ATOM     17  C   UNL     1      -1.323  12.012  20.224  0.00  0.00    +0.000 C 
ATOM     18  C   UNL     1      -2.371  11.561  19.224  0.00  0.00    +0.000 C 
ATOM     19  O   UNL     1      -3.455  12.140  19.136  0.00  0.00    +0.000 OA
ATOM     20  H   UNL     1      -1.021   8.829  16.970  0.00  0.00    +0.000 HD
ATOM     21  H   UNL     1       1.080  11.142  18.132  0.00  0.00    +0.000 HD
ENDROOT
BRANCH   6  22
ATOM     22  C   UNL     1       0.580  10.126  20.524  0.00  0.00    +0.000 A 
ATOM     23  C   UNL     1       1.664   9.454  19.976  0.00  0.00    +0.000 A 
ATOM     24  C   UNL     1       1.642   8.053  20.235  0.00  0.00    +0.000 A 
ATOM     25  C   UNL     1       0.804   7.800  21.306  0.00  0.00    +0.000 A 
ATOM     26  S   UNL     1      -0.143   9.183  21.738  0.00  0.00    +0.000 S 
BRANCH  24  27
ATOM     27  C   UNL     1       2.304   7.036  19.406  0.00  0.00    +0.000 A 
ATOM     28  C   UNL     1       2.198   5.678  19.785  0.00  0.00    +0.000 A 
ATOM     29  C   UNL     1       2.857   4.667  19.086  0.00  0.00    +0.000 A 
ATOM     30  C   UNL     1       3.655   4.993  17.996  0.00  0.00    +0.000 A 
ATOM     31  C   UNL     1       3.769   6.327  17.612  0.00  0.00    +0.000 A 
ATOM     32 CL   UNL     1       4.778   6.728  16.269  0.00  0.00    +0.000 Cl
ATOM     33  C   UNL     1       3.103   7.348  18.300  0.00  0.00    +0.000 A 
ENDBRANCH  24  27
ENDBRANCH   6  22
TORSDOF 2
ENDMDL
