MODEL 1
REMARK VINA RESULT:      -8.5      0.000      0.000
REMARK  Name = 
REMARK  10 active torsions:
REMARK  status: ('A' for Active; 'I' for Inactive)
REMARK    1  A    between atoms: C_1  and  C_2
REMARK    2  A    between atoms: C_2  and  C_3
REMARK    3  A    between atoms: C_2  and  N_11
REMARK    4  A    between atoms: C_3  and  O_4
REMARK    5  A    between atoms: C_3  and  C_5
REMARK    6  A    between atoms: N_11  and  C_12
REMARK    7  A    between atoms: N_15  and  C_16
REMARK    8  A    between atoms: C_19  and  O_20
REMARK    9  A    between atoms: O_20  and  C_21
REMARK   10  A    between atoms: C_25  and  N_26
REMARK                            x       y       z     vdW  Elec       q    Type
REMARK                         _______ _______ _______ _____ _____    ______ ____
ROOT
ATOM      1  N   UNL     1       2.921   5.325  19.117  0.00  0.00    +0.000 N 
ATOM      2  C   UNL     1       2.949   4.507  20.326  0.00  0.00    +0.000 C 
ATOM      3  C   UNL     1       2.418   6.635  19.100  0.00  0.00    +0.000 C 
ATOM      4  O   UNL     1       2.269   7.237  18.040  0.00  0.00    +0.000 OA
ATOM      5  N   UNL     1       2.098   7.159  20.332  0.00  0.00    +0.000 N 
ATOM      6  H   UNL     1       2.561   6.769  21.131  0.00  0.00    +0.000 HD
ENDROOT
BRANCH   5   7
ATOM      7  C   UNL     1       1.478   8.414  20.538  0.00  0.00    +0.000 A 
ATOM      8  C   UNL     1       1.322   9.361  19.526  0.00  0.00    +0.000 A 
ATOM      9  C   UNL     1       0.751  10.606  19.794  0.00  0.00    +0.000 A 
ATOM     10  C   UNL     1       0.317  10.901  21.084  0.00  0.00    +0.000 A 
ATOM     11  C   UNL     1       0.482   9.969  22.106  0.00  0.00    +0.000 A 
ATOM     12  C   UNL     1       1.024   8.710  21.827  0.00  0.00    +0.000 A 
BRANCH  10  13
ATOM     13  O   UNL     1      -0.214  12.160  21.253  0.00  0.00    +0.000 OA
BRANCH  13  14
ATOM     14  C   UNL     1      -1.577  12.310  21.357  0.00  0.00    +0.000 A 
ATOM     15  C   UNL     1      -2.270  12.410  20.147  0.00  0.00    +0.000 A 
ATOM     16  C   UNL     1      -3.653  12.596  20.141  0.00  0.00    +0.000 A 
ATOM     17  C   UNL     1      -4.348  12.689  21.347  0.00  0.00    +0.000 A 
ATOM     18  C   UNL     1      -3.656  12.553  22.558  0.00  0.00    +0.000 A 
ATOM     19  C   UNL     1      -2.276  12.324  22.567  0.00  0.00    +0.000 A 
BRANCH  18  20
ATOM     20  N   UNL     1      -4.364  12.687  23.832  0.00  0.00    +0.000 N 
ATOM     21  O   UNL     1      -4.156  11.822  24.696  0.00  0.00    +0.000 OA
ATOM     22  O   UNL     1      -5.136  13.648  23.973  0.00  0.00    +0.000 OA
ENDBRANCH  18  20
ENDBRANCH  13  14
ENDBRANCH  10  13
ENDBRANCH   5   7
BRANCH   1  24
ATOM     23  C   UNL     1       2.293   3.519  17.466  0.00  0.00    +0.000 C 
ATOM     24  C   UNL     1       3.193   4.725  17.778  0.00  0.00    +0.000 C 
BRANCH  24  25
ATOM     25  C   UNL     1       4.697   4.368  17.538  0.00  0.00    +0.000 C 
BRANCH  25  26
ATOM     26  C   UNL     1       5.768   5.364  17.960  0.00  0.00    +0.000 A 
ATOM     27  C   UNL     1       6.077   6.454  17.125  0.00  0.00    +0.000 A 
ATOM     28  C   UNL     1       7.202   7.249  17.362  0.00  0.00    +0.000 A 
ATOM     29  C   UNL     1       8.029   6.983  18.450  0.00  0.00    +0.000 A 
ATOM     30  C   UNL     1       7.697   5.959  19.331  0.00  0.00    +0.000 A 
ATOM     31  C   UNL     1       6.569   5.164  19.097  0.00  0.00    +0.000 A 
ENDBRANCH  25  26
BRANCH  25  32
ATOM     32  O   UNL     1       5.011   3.056  18.025  0.00  0.00    +0.000 OA
ATOM     33  H   UNL     1       5.624   3.175  18.763  0.00  0.00    +0.000 HD
ENDBRANCH  25  32
ENDBRANCH  24  25
ENDBRANCH   1  24
TORSDOF 8
ENDMDL
MODEL 2
REMARK VINA RESULT:      -8.4      2.431      3.096
REMARK  Name = 
REMARK  10 active torsions:
REMARK  status: ('A' for Active; 'I' for Inactive)
REMARK    1  A    between atoms: C_1  and  C_2
REMARK    2  A    between atoms: C_2  and  C_3
REMARK    3  A    between atoms: C_2  and  N_11
REMARK    4  A    between atoms: C_3  and  O_4
REMARK    5  A    between atoms: C_3  and  C_5
REMARK    6  A    between atoms: N_11  and  C_12
REMARK    7  A    between atoms: N_15  and  C_16
REMARK    8  A    between atoms: C_19  and  O_20
REMARK    9  A    between atoms: O_20  and  C_21
REMARK   10  A    between atoms: C_25  and  N_26
REMARK                            x       y       z     vdW  Elec       q    Type
REMARK                         _______ _______ _______ _____ _____    ______ ____
ROOT
ATOM      1  N   UNL     1       2.623   4.370  19.983  0.00  0.00    +0.000 N 
ATOM      2  C   UNL     1       2.495   3.911  21.364  0.00  0.00    +0.000 C 
ATOM      3  C   UNL     1       2.291   5.674  19.584  0.00  0.00    +0.000 C 
ATOM      4  O   UNL     1       2.265   5.979  18.395  0.00  0.00    +0.000 OA
ATOM      5  N   UNL     1       1.989   6.544  20.607  0.00  0.00    +0.000 N 
ATOM      6  H   UNL     1       2.364   6.335  21.513  0.00  0.00    +0.000 HD
ENDROOT
BRANCH   5   7
ATOM      7  C   UNL     1       1.526   7.868  20.428  0.00  0.00    +0.000 A 
ATOM      8  C   UNL     1       0.753   8.539  21.376  0.00  0.00    +0.000 A 
ATOM      9  C   UNL     1       0.277   9.827  21.128  0.00  0.00    +0.000 A 
ATOM     10  C   UNL     1       0.590  10.457  19.926  0.00  0.00    +0.000 A 
ATOM     11  C   UNL     1       1.347   9.791  18.965  0.00  0.00    +0.000 A 
ATOM     12  C   UNL     1       1.851   8.514  19.231  0.00  0.00    +0.000 A 
BRANCH  10  13
ATOM     13  O   UNL     1       0.058  11.717  19.767  0.00  0.00    +0.000 OA
BRANCH  13  14
ATOM     14  C   UNL     1      -1.281  11.855  19.483  0.00  0.00    +0.000 A 
ATOM     15  C   UNL     1      -2.042  12.512  20.455  0.00  0.00    +0.000 A 
ATOM     16  C   UNL     1      -3.416  12.677  20.280  0.00  0.00    +0.000 A 
ATOM     17  C   UNL     1      -4.037  12.180  19.133  0.00  0.00    +0.000 A 
ATOM     18  C   UNL     1      -3.266  11.553  18.145  0.00  0.00    +0.000 A 
ATOM     19  C   UNL     1      -1.882  11.423  18.298  0.00  0.00    +0.000 A 
BRANCH  18  20
ATOM     20  N   UNL     1      -3.908  10.991  16.955  0.00  0.00    +0.000 N 
ATOM     21  O   UNL     1      -3.397   9.977  16.456  0.00  0.00    +0.000 OA
ATOM     22  O   UNL     1      -4.914  11.561  16.509  0.00  0.00    +0.000 OA
ENDBRANCH  18  20
ENDBRANCH  13  14
ENDBRANCH  10  13
ENDBRANCH   5   7
BRANCH   1  24
ATOM     23  C   UNL     1       2.117   2.077  19.051  0.00  0.00    +0.000 C 
ATOM     24  C   UNL     1       2.872   3.403  18.874  0.00  0.00    +0.000 C 
BRANCH  24  25
ATOM     25  C   UNL     1       4.389   3.141  18.593  0.00  0.00    +0.000 C 
BRANCH  25  26
ATOM     26  C   UNL     1       5.258   4.290  18.103  0.00  0.00    +0.000 A 
ATOM     27  C   UNL     1       5.364   4.546  16.722  0.00  0.00    +0.000 A 
ATOM     28  C   UNL     1       6.324   5.433  16.225  0.00  0.00    +0.000 A 
ATOM     29  C   UNL     1       7.183   6.096  17.097  0.00  0.00    +0.000 A 
ATOM     30  C   UNL     1       7.041   5.915  18.470  0.00  0.00    +0.000 A 
ATOM     31  C   UNL     1       6.078   5.030  18.970  0.00  0.00    +0.000 A 
ENDBRANCH  25  26
BRANCH  25  32
ATOM     32  O   UNL     1       5.019   2.467  19.690  0.00  0.00    +0.000 OA
ATOM     33  H   UNL     1       4.873   3.017  20.473  0.00  0.00    +0.000 HD
ENDBRANCH  25  32
ENDBRANCH  24  25
ENDBRANCH   1  24
TORSDOF 8
ENDMDL
MODEL 3
REMARK VINA RESULT:      -8.3      1.257      1.613
REMARK  Name = 
REMARK  10 active torsions:
REMARK  status: ('A' for Active; 'I' for Inactive)
REMARK    1  A    between atoms: C_1  and  C_2
REMARK    2  A    between atoms: C_2  and  C_3
REMARK    3  A    between atoms: C_2  and  N_11
REMARK    4  A    between atoms: C_3  and  O_4
REMARK    5  A    between atoms: C_3  and  C_5
REMARK    6  A    between atoms: N_11  and  C_12
REMARK    7  A    between atoms: N_15  and  C_16
REMARK    8  A    between atoms: C_19  and  O_20
REMARK    9  A    between atoms: O_20  and  C_21
REMARK   10  A    between atoms: C_25  and  N_26
REMARK                            x       y       z     vdW  Elec       q    Type
REMARK                         _______ _______ _______ _____ _____    ______ ____
ROOT
ATOM      1  N   UNL     1       2.753   5.064  19.666  0.00  0.00    +0.000 N 
ATOM      2  C   UNL     1       2.467   4.297  20.875  0.00  0.00    +0.000 C 
ATOM      3  C   UNL     1       2.397   6.414  19.524  0.00  0.00    +0.000 C 
ATOM      4  O   UNL     1       2.514   6.984  18.443  0.00  0.00    +0.000 OA
ATOM      5  N   UNL     1       1.905   7.016  20.660  0.00  0.00    +0.000 N 
ATOM      6  H   UNL     1       2.165   6.616  21.541  0.00  0.00    +0.000 HD
ENDROOT
BRANCH   5   7
ATOM      7  C   UNL     1       1.388   8.332  20.715  0.00  0.00    +0.000 A 
ATOM      8  C   UNL     1       1.277   9.154  19.594  0.00  0.00    +0.000 A 
ATOM      9  C   UNL     1       0.810  10.463  19.712  0.00  0.00    +0.000 A 
ATOM     10  C   UNL     1       0.434  10.951  20.961  0.00  0.00    +0.000 A 
ATOM     11  C   UNL     1       0.556  10.145  22.091  0.00  0.00    +0.000 A 
ATOM     12  C   UNL     1       0.992   8.822  21.964  0.00  0.00    +0.000 A 
BRANCH  10  13
ATOM     13  O   UNL     1       0.006  12.259  20.978  0.00  0.00    +0.000 OA
BRANCH  13  14
ATOM     14  C   UNL     1      -1.204  12.567  21.556  0.00  0.00    +0.000 A 
ATOM     15  C   UNL     1      -1.143  13.058  22.863  0.00  0.00    +0.000 A 
ATOM     16  C   UNL     1      -2.315  13.372  23.553  0.00  0.00    +0.000 A 
ATOM     17  C   UNL     1      -3.555  13.190  22.938  0.00  0.00    +0.000 A 
ATOM     18  C   UNL     1      -3.611  12.732  21.615  0.00  0.00    +0.000 A 
ATOM     19  C   UNL     1      -2.436  12.456  20.907  0.00  0.00    +0.000 A 
BRANCH  18  20
ATOM     20  N   UNL     1      -4.904  12.498  20.969  0.00  0.00    +0.000 N 
ATOM     21  O   UNL     1      -4.977  12.701  19.748  0.00  0.00    +0.000 OA
ATOM     22  O   UNL     1      -5.850  12.121  21.676  0.00  0.00    +0.000 OA
ENDBRANCH  18  20
ENDBRANCH  13  14
ENDBRANCH  10  13
ENDBRANCH   5   7
BRANCH   1  24
ATOM     23  C   UNL     1       2.408   3.117  18.093  0.00  0.00    +0.000 C 
ATOM     24  C   UNL     1       3.211   4.387  18.418  0.00  0.00    +0.000 C 
BRANCH  24  25
ATOM     25  C   UNL     1       4.747   4.091  18.386  0.00  0.00    +0.000 C 
BRANCH  25  26
ATOM     26  C   UNL     1       5.722   5.259  18.342  0.00  0.00    +0.000 A 
ATOM     27  C   UNL     1       5.582   6.249  17.351  0.00  0.00    +0.000 A 
ATOM     28  C   UNL     1       6.584   7.200  17.135  0.00  0.00    +0.000 A 
ATOM     29  C   UNL     1       7.736   7.193  17.917  0.00  0.00    +0.000 A 
ATOM     30  C   UNL     1       7.857   6.271  18.952  0.00  0.00    +0.000 A 
ATOM     31  C   UNL     1       6.854   5.320  19.172  0.00  0.00    +0.000 A 
ENDBRANCH  25  26
BRANCH  25  32
ATOM     32  O   UNL     1       5.125   3.159  19.409  0.00  0.00    +0.000 OA
ATOM     33  H   UNL     1       5.641   2.466  18.974  0.00  0.00    +0.000 HD
ENDBRANCH  25  32
ENDBRANCH  24  25
ENDBRANCH   1  24
TORSDOF 8
ENDMDL
MODEL 4
REMARK VINA RESULT:      -8.3      0.439      1.022
REMARK  Name = 
REMARK  10 active torsions:
REMARK  status: ('A' for Active; 'I' for Inactive)
REMARK    1  A    between atoms: C_1  and  C_2
REMARK    2  A    between atoms: C_2  and  C_3
REMARK    3  A    between atoms: C_2  and  N_11
REMARK    4  A    between atoms: C_3  and  O_4
REMARK    5  A    between atoms: C_3  and  C_5
REMARK    6  A    between atoms: N_11  and  C_12
REMARK    7  A    between atoms: N_15  and  C_16
REMARK    8  A    between atoms: C_19  and  O_20
REMARK    9  A    between atoms: O_20  and  C_21
REMARK   10  A    between atoms: C_25  and  N_26
REMARK                            x       y       z     vdW  Elec       q    Type
REMARK                         _______ _______ _______ _____ _____    ______ ____
ROOT
ATOM      1  N   UNL     1       2.702   5.290  19.423  0.00  0.00    +0.000 N 
ATOM      2  C   UNL     1       2.497   4.412  20.572  0.00  0.00    +0.000 C 
ATOM      3  C   UNL     1       2.338   6.645  19.431  0.00  0.00    +0.000 C 
ATOM      4  O   UNL     1       2.383   7.313  18.402  0.00  0.00    +0.000 OA
ATOM      5  N   UNL     1       1.922   7.136  20.648  0.00  0.00    +0.000 N 
ATOM      6  H   UNL     1       2.240   6.658  21.469  0.00  0.00    +0.000 HD
ENDROOT
BRANCH   5   7
ATOM      7  C   UNL     1       1.411   8.438  20.860  0.00  0.00    +0.000 A 
ATOM      8  C   UNL     1       0.978   8.893  22.105  0.00  0.00    +0.000 A 
ATOM      9  C   UNL     1       0.433  10.169  22.251  0.00  0.00    +0.000 A 
ATOM     10  C   UNL     1       0.332  11.005  21.141  0.00  0.00    +0.000 A 
ATOM     11  C   UNL     1       0.746  10.556  19.889  0.00  0.00    +0.000 A 
ATOM     12  C   UNL     1       1.324   9.290  19.754  0.00  0.00    +0.000 A 
BRANCH  10  13
ATOM     13  O   UNL     1      -0.237  12.235  21.381  0.00  0.00    +0.000 OA
BRANCH  13  14
ATOM     14  C   UNL     1      -1.607  12.351  21.414  0.00  0.00    +0.000 A 
ATOM     15  C   UNL     1      -2.239  12.426  20.169  0.00  0.00    +0.000 A 
ATOM     16  C   UNL     1      -3.624  12.575  20.091  0.00  0.00    +0.000 A 
ATOM     17  C   UNL     1      -4.383  12.658  21.259  0.00  0.00    +0.000 A 
ATOM     18  C   UNL     1      -3.751  12.547  22.504  0.00  0.00    +0.000 A 
ATOM     19  C   UNL     1      -2.368  12.355  22.586  0.00  0.00    +0.000 A 
BRANCH  18  20
ATOM     20  N   UNL     1      -4.528  12.671  23.740  0.00  0.00    +0.000 N 
ATOM     21  O   UNL     1      -5.749  12.468  23.669  0.00  0.00    +0.000 OA
ATOM     22  O   UNL     1      -3.927  12.980  24.779  0.00  0.00    +0.000 OA
ENDBRANCH  18  20
ENDBRANCH  13  14
ENDBRANCH  10  13
ENDBRANCH   5   7
BRANCH   1  24
ATOM     23  C   UNL     1       2.147   3.599  17.629  0.00  0.00    +0.000 C 
ATOM     24  C   UNL     1       3.076   4.734  18.089  0.00  0.00    +0.000 C 
BRANCH  24  25
ATOM     25  C   UNL     1       4.574   4.297  17.984  0.00  0.00    +0.000 C 
BRANCH  25  26
ATOM     26  C   UNL     1       5.663   5.344  18.178  0.00  0.00    +0.000 A 
ATOM     27  C   UNL     1       5.768   6.418  17.274  0.00  0.00    +0.000 A 
ATOM     28  C   UNL     1       6.884   7.260  17.281  0.00  0.00    +0.000 A 
ATOM     29  C   UNL     1       7.907   7.058  18.203  0.00  0.00    +0.000 A 
ATOM     30  C   UNL     1       7.785   6.049  19.154  0.00  0.00    +0.000 A 
ATOM     31  C   UNL     1       6.666   5.207  19.151  0.00  0.00    +0.000 A 
ENDBRANCH  25  26
BRANCH  25  32
ATOM     32  O   UNL     1       4.843   3.139  18.786  0.00  0.00    +0.000 OA
ATOM     33  H   UNL     1       4.110   3.060  19.411  0.00  0.00    +0.000 HD
ENDBRANCH  25  32
ENDBRANCH  24  25
ENDBRANCH   1  24
TORSDOF 8
ENDMDL
MODEL 5
REMARK VINA RESULT:      -8.2      2.736     11.025
REMARK  Name = 
REMARK  10 active torsions:
REMARK  status: ('A' for Active; 'I' for Inactive)
REMARK    1  A    between atoms: C_1  and  C_2
REMARK    2  A    between atoms: C_2  and  C_3
REMARK    3  A    between atoms: C_2  and  N_11
REMARK    4  A    between atoms: C_3  and  O_4
REMARK    5  A    between atoms: C_3  and  C_5
REMARK    6  A    between atoms: N_11  and  C_12
REMARK    7  A    between atoms: N_15  and  C_16
REMARK    8  A    between atoms: C_19  and  O_20
REMARK    9  A    between atoms: O_20  and  C_21
REMARK   10  A    between atoms: C_25  and  N_26
REMARK                            x       y       z     vdW  Elec       q    Type
REMARK                         _______ _______ _______ _____ _____    ______ ____
ROOT
ATOM      1  N   UNL     1       0.036  11.609  19.726  0.00  0.00    +0.000 N 
ATOM      2  C   UNL     1       0.818  12.211  20.802  0.00  0.00    +0.000 C 
ATOM      3  C   UNL     1       0.357  10.366  19.160  0.00  0.00    +0.000 C 
ATOM      4  O   UNL     1      -0.227   9.961  18.159  0.00  0.00    +0.000 OA
ATOM      5  N   UNL     1       1.364   9.673  19.793  0.00  0.00    +0.000 N 
ATOM      6  H   UNL     1       1.533   9.887  20.758  0.00  0.00    +0.000 HD
ENDROOT
BRANCH   5   7
ATOM      7  C   UNL     1       1.919   8.457  19.331  0.00  0.00    +0.000 A 
ATOM      8  C   UNL     1       2.533   8.324  18.086  0.00  0.00    +0.000 A 
ATOM      9  C   UNL     1       3.018   7.088  17.656  0.00  0.00    +0.000 A 
ATOM     10  C   UNL     1       2.902   5.976  18.487  0.00  0.00    +0.000 A 
ATOM     11  C   UNL     1       2.277   6.093  19.726  0.00  0.00    +0.000 A 
ATOM     12  C   UNL     1       1.823   7.340  20.168  0.00  0.00    +0.000 A 
BRANCH  10  13
ATOM     13  O   UNL     1       3.392   4.799  17.967  0.00  0.00    +0.000 OA
BRANCH  13  14
ATOM     14  C   UNL     1       4.700   4.738  17.548  0.00  0.00    +0.000 A 
ATOM     15  C   UNL     1       5.664   4.769  18.560  0.00  0.00    +0.000 A 
ATOM     16  C   UNL     1       7.022   4.743  18.241  0.00  0.00    +0.000 A 
ATOM     17  C   UNL     1       7.423   4.693  16.906  0.00  0.00    +0.000 A 
ATOM     18  C   UNL     1       6.455   4.626  15.895  0.00  0.00    +0.000 A 
ATOM     19  C   UNL     1       5.093   4.609  16.213  0.00  0.00    +0.000 A 
BRANCH  18  20
ATOM     20  N   UNL     1       6.858   4.613  14.487  0.00  0.00    +0.000 N 
ATOM     21  O   UNL     1       6.296   3.798  13.740  0.00  0.00    +0.000 OA
ATOM     22  O   UNL     1       7.741   5.404  14.124  0.00  0.00    +0.000 OA
ENDBRANCH  18  20
ENDBRANCH  13  14
ENDBRANCH  10  13
ENDBRANCH   5   7
BRANCH   1  24
ATOM     23  C   UNL     1      -0.775  13.915  19.087  0.00  0.00    +0.000 C 
ATOM     24  C   UNL     1      -1.000  12.398  18.995  0.00  0.00    +0.000 C 
BRANCH  24  25
ATOM     25  C   UNL     1      -2.468  12.033  19.392  0.00  0.00    +0.000 C 
BRANCH  25  26
ATOM     26  C   UNL     1      -3.080  12.675  20.629  0.00  0.00    +0.000 A 
ATOM     27  C   UNL     1      -2.564  12.369  21.903  0.00  0.00    +0.000 A 
ATOM     28  C   UNL     1      -3.240  12.751  23.065  0.00  0.00    +0.000 A 
ATOM     29  C   UNL     1      -4.433  13.463  22.979  0.00  0.00    +0.000 A 
ATOM     30  C   UNL     1      -4.918  13.842  21.731  0.00  0.00    +0.000 A 
ATOM     31  C   UNL     1      -4.241  13.463  20.566  0.00  0.00    +0.000 A 
ENDBRANCH  25  26
BRANCH  25  32
ATOM     32  O   UNL     1      -3.359  12.147  18.274  0.00  0.00    +0.000 OA
ATOM     33  H   UNL     1      -3.628  11.248  18.042  0.00  0.00    +0.000 HD
ENDBRANCH  25  32
ENDBRANCH  24  25
ENDBRANCH   1  24
TORSDOF 8
ENDMDL
MODEL 6
REMARK VINA RESULT:      -8.2      1.584      2.243
REMARK  Name = 
REMARK  10 active torsions:
REMARK  status: ('A' for Active; 'I' for Inactive)
REMARK    1  A    between atoms: C_1  and  C_2
REMARK    2  A    between atoms: C_2  and  C_3
REMARK    3  A    between atoms: C_2  and  N_11
REMARK    4  A    between atoms: C_3  and  O_4
REMARK    5  A    between atoms: C_3  and  C_5
REMARK    6  A    between atoms: N_11  and  C_12
REMARK    7  A    between atoms: N_15  and  C_16
REMARK    8  A    between atoms: C_19  and  O_20
REMARK    9  A    between atoms: O_20  and  C_21
REMARK   10  A    between atoms: C_25  and  N_26
REMARK                            x       y       z     vdW  Elec       q    Type
REMARK                         _______ _______ _______ _____ _____    ______ ____
ROOT
ATOM      1  N   UNL     1       2.635   4.311  19.897  0.00  0.00    +0.000 N 
ATOM      2  C   UNL     1       2.564   3.909  21.299  0.00  0.00    +0.000 C 
ATOM      3  C   UNL     1       2.291   5.600  19.460  0.00  0.00    +0.000 C 
ATOM      4  O   UNL     1       2.215   5.857  18.262  0.00  0.00    +0.000 OA
ATOM      5  N   UNL     1       2.036   6.511  20.459  0.00  0.00    +0.000 N 
ATOM      6  H   UNL     1       2.448   6.338  21.356  0.00  0.00    +0.000 HD
ENDROOT
BRANCH   5   7
ATOM      7  C   UNL     1       1.570   7.830  20.247  0.00  0.00    +0.000 A 
ATOM      8  C   UNL     1       0.843   8.543  21.200  0.00  0.00    +0.000 A 
ATOM      9  C   UNL     1       0.361   9.823  20.921  0.00  0.00    +0.000 A 
ATOM     10  C   UNL     1       0.622  10.402  19.681  0.00  0.00    +0.000 A 
ATOM     11  C   UNL     1       1.333   9.693  18.716  0.00  0.00    +0.000 A 
ATOM     12  C   UNL     1       1.844   8.425  19.011  0.00  0.00    +0.000 A 
BRANCH  10  13
ATOM     13  O   UNL     1       0.089  11.657  19.494  0.00  0.00    +0.000 OA
BRANCH  13  14
ATOM     14  C   UNL     1      -1.275  11.805  19.401  0.00  0.00    +0.000 A 
ATOM     15  C   UNL     1      -1.854  11.358  18.209  0.00  0.00    +0.000 A 
ATOM     16  C   UNL     1      -3.227  11.490  18.000  0.00  0.00    +0.000 A 
ATOM     17  C   UNL     1      -4.028  12.075  18.981  0.00  0.00    +0.000 A 
ATOM     18  C   UNL     1      -3.451  12.489  20.190  0.00  0.00    +0.000 A 
ATOM     19  C   UNL     1      -2.081  12.321  20.419  0.00  0.00    +0.000 A 
BRANCH  18  20
ATOM     20  N   UNL     1      -4.271  13.141  21.213  0.00  0.00    +0.000 N 
ATOM     21  O   UNL     1      -4.163  14.371  21.333  0.00  0.00    +0.000 OA
ATOM     22  O   UNL     1      -5.015  12.431  21.906  0.00  0.00    +0.000 OA
ENDBRANCH  18  20
ENDBRANCH  13  14
ENDBRANCH  10  13
ENDBRANCH   5   7
BRANCH   1  24
ATOM     23  C   UNL     1       2.057   1.997  19.064  0.00  0.00    +0.000 C 
ATOM     24  C   UNL     1       2.833   3.300  18.817  0.00  0.00    +0.000 C 
BRANCH  24  25
ATOM     25  C   UNL     1       4.336   2.995  18.505  0.00  0.00    +0.000 C 
BRANCH  25  26
ATOM     26  C   UNL     1       5.120   3.967  17.635  0.00  0.00    +0.000 A 
ATOM     27  C   UNL     1       4.765   4.138  16.283  0.00  0.00    +0.000 A 
ATOM     28  C   UNL     1       5.596   4.835  15.402  0.00  0.00    +0.000 A 
ATOM     29  C   UNL     1       6.787   5.393  15.856  0.00  0.00    +0.000 A 
ATOM     30  C   UNL     1       7.117   5.301  17.205  0.00  0.00    +0.000 A 
ATOM     31  C   UNL     1       6.285   4.606  18.091  0.00  0.00    +0.000 A 
ENDBRANCH  25  26
BRANCH  25  32
ATOM     32  O   UNL     1       5.069   2.685  19.698  0.00  0.00    +0.000 OA
ATOM     33  H   UNL     1       5.993   2.907  19.520  0.00  0.00    +0.000 HD
ENDBRANCH  25  32
ENDBRANCH  24  25
ENDBRANCH   1  24
TORSDOF 8
ENDMDL
MODEL 7
REMARK VINA RESULT:      -8.1      1.223      1.447
REMARK  Name = 
REMARK  10 active torsions:
REMARK  status: ('A' for Active; 'I' for Inactive)
REMARK    1  A    between atoms: C_1  and  C_2
REMARK    2  A    between atoms: C_2  and  C_3
REMARK    3  A    between atoms: C_2  and  N_11
REMARK    4  A    between atoms: C_3  and  O_4
REMARK    5  A    between atoms: C_3  and  C_5
REMARK    6  A    between atoms: N_11  and  C_12
REMARK    7  A    between atoms: N_15  and  C_16
REMARK    8  A    between atoms: C_19  and  O_20
REMARK    9  A    between atoms: O_20  and  C_21
REMARK   10  A    between atoms: C_25  and  N_26
REMARK                            x       y       z     vdW  Elec       q    Type
REMARK                         _______ _______ _______ _____ _____    ______ ____
ROOT
ATOM      1  N   UNL     1       2.634   4.339  19.968  0.00  0.00    +0.000 N 
ATOM      2  C   UNL     1       2.558   3.862  21.346  0.00  0.00    +0.000 C 
ATOM      3  C   UNL     1       2.229   5.628  19.589  0.00  0.00    +0.000 C 
ATOM      4  O   UNL     1       2.163   5.943  18.404  0.00  0.00    +0.000 OA
ATOM      5  N   UNL     1       1.906   6.472  20.627  0.00  0.00    +0.000 N 
ATOM      6  H   UNL     1       2.310   6.274  21.523  0.00  0.00    +0.000 HD
ENDROOT
BRANCH   5   7
ATOM      7  C   UNL     1       1.373   7.773  20.471  0.00  0.00    +0.000 A 
ATOM      8  C   UNL     1       1.691   8.603  19.396  0.00  0.00    +0.000 A 
ATOM      9  C   UNL     1       1.180   9.898  19.317  0.00  0.00    +0.000 A 
ATOM     10  C   UNL     1       0.329  10.365  20.316  0.00  0.00    +0.000 A 
ATOM     11  C   UNL     1       0.017   9.552  21.403  0.00  0.00    +0.000 A 
ATOM     12  C   UNL     1       0.504   8.242  21.462  0.00  0.00    +0.000 A 
BRANCH  10  13
ATOM     13  O   UNL     1      -0.107  11.661  20.159  0.00  0.00    +0.000 OA
BRANCH  13  14
ATOM     14  C   UNL     1      -1.457  11.922  20.134  0.00  0.00    +0.000 A 
ATOM     15  C   UNL     1      -2.101  11.671  18.919  0.00  0.00    +0.000 A 
ATOM     16  C   UNL     1      -3.465  11.931  18.778  0.00  0.00    +0.000 A 
ATOM     17  C   UNL     1      -4.190  12.450  19.851  0.00  0.00    +0.000 A 
ATOM     18  C   UNL     1      -3.550  12.667  21.079  0.00  0.00    +0.000 A 
ATOM     19  C   UNL     1      -2.192  12.368  21.236  0.00  0.00    +0.000 A 
BRANCH  18  20
ATOM     20  N   UNL     1      -4.287  13.247  22.203  0.00  0.00    +0.000 N 
ATOM     21  O   UNL     1      -5.253  12.606  22.644  0.00  0.00    +0.000 OA
ATOM     22  O   UNL     1      -3.913  14.345  22.642  0.00  0.00    +0.000 OA
ENDBRANCH  18  20
ENDBRANCH  13  14
ENDBRANCH  10  13
ENDBRANCH   5   7
BRANCH   1  24
ATOM     23  C   UNL     1       2.191   2.046  19.002  0.00  0.00    +0.000 C 
ATOM     24  C   UNL     1       2.908   3.396  18.843  0.00  0.00    +0.000 C 
BRANCH  24  25
ATOM     25  C   UNL     1       4.430   3.182  18.554  0.00  0.00    +0.000 C 
BRANCH  25  26
ATOM     26  C   UNL     1       5.272   4.371  18.114  0.00  0.00    +0.000 A 
ATOM     27  C   UNL     1       5.366   4.692  16.746  0.00  0.00    +0.000 A 
ATOM     28  C   UNL     1       6.304   5.621  16.286  0.00  0.00    +0.000 A 
ATOM     29  C   UNL     1       7.153   6.262  17.184  0.00  0.00    +0.000 A 
ATOM     30  C   UNL     1       7.022   6.016  18.547  0.00  0.00    +0.000 A 
ATOM     31  C   UNL     1       6.081   5.088  19.011  0.00  0.00    +0.000 A 
ENDBRANCH  25  26
BRANCH  25  32
ATOM     32  O   UNL     1       5.076   2.479  19.625  0.00  0.00    +0.000 OA
ATOM     33  H   UNL     1       5.485   3.149  20.188  0.00  0.00    +0.000 HD
ENDBRANCH  25  32
ENDBRANCH  24  25
ENDBRANCH   1  24
TORSDOF 8
ENDMDL
MODEL 8
REMARK VINA RESULT:      -8.1      2.910     10.469
REMARK  Name = 
REMARK  10 active torsions:
REMARK  status: ('A' for Active; 'I' for Inactive)
REMARK    1  A    between atoms: C_1  and  C_2
REMARK    2  A    between atoms: C_2  and  C_3
REMARK    3  A    between atoms: C_2  and  N_11
REMARK    4  A    between atoms: C_3  and  O_4
REMARK    5  A    between atoms: C_3  and  C_5
REMARK    6  A    between atoms: N_11  and  C_12
REMARK    7  A    between atoms: N_15  and  C_16
REMARK    8  A    between atoms: C_19  and  O_20
REMARK    9  A    between atoms: O_20  and  C_21
REMARK   10  A    between atoms: C_25  and  N_26
REMARK                            x       y       z     vdW  Elec       q    Type
REMARK                         _______ _______ _______ _____ _____    ______ ____
ROOT
ATOM      1  N   UNL     1       0.257  11.106  20.112  0.00  0.00    +0.000 N 
ATOM      2  C   UNL     1       0.270  11.183  21.570  0.00  0.00    +0.000 C 
ATOM      3  C   UNL     1       0.792  10.017  19.406  0.00  0.00    +0.000 C 
ATOM      4  O   UNL     1       0.902  10.054  18.184  0.00  0.00    +0.000 OA
ATOM      5  N   UNL     1       1.187   8.950  20.181  0.00  0.00    +0.000 N 
ATOM      6  H   UNL     1       0.756   8.851  21.080  0.00  0.00    +0.000 HD
ENDROOT
BRANCH   5   7
ATOM      7  C   UNL     1       1.848   7.799  19.691  0.00  0.00    +0.000 A 
ATOM      8  C   UNL     1       2.519   7.769  18.468  0.00  0.00    +0.000 A 
ATOM      9  C   UNL     1       3.111   6.593  18.006  0.00  0.00    +0.000 A 
ATOM     10  C   UNL     1       3.043   5.438  18.782  0.00  0.00    +0.000 A 
ATOM     11  C   UNL     1       2.361   5.451  19.996  0.00  0.00    +0.000 A 
ATOM     12  C   UNL     1       1.800   6.640  20.472  0.00  0.00    +0.000 A 
BRANCH  10  13
ATOM     13  O   UNL     1       3.638   4.325  18.232  0.00  0.00    +0.000 OA
BRANCH  13  14
ATOM     14  C   UNL     1       4.906   4.425  17.709  0.00  0.00    +0.000 A 
ATOM     15  C   UNL     1       5.934   4.608  18.639  0.00  0.00    +0.000 A 
ATOM     16  C   UNL     1       7.254   4.752  18.211  0.00  0.00    +0.000 A 
ATOM     17  C   UNL     1       7.551   4.720  16.848  0.00  0.00    +0.000 A 
ATOM     18  C   UNL     1       6.524   4.501  15.920  0.00  0.00    +0.000 A 
ATOM     19  C   UNL     1       5.206   4.314  16.348  0.00  0.00    +0.000 A 
BRANCH  18  20
ATOM     20  N   UNL     1       6.814   4.504  14.484  0.00  0.00    +0.000 N 
ATOM     21  O   UNL     1       7.655   5.317  14.073  0.00  0.00    +0.000 OA
ATOM     22  O   UNL     1       6.199   3.705  13.763  0.00  0.00    +0.000 OA
ENDBRANCH  18  20
ENDBRANCH  13  14
ENDBRANCH  10  13
ENDBRANCH   5   7
BRANCH   1  24
ATOM     23  C   UNL     1       0.350  13.623  19.915  0.00  0.00    +0.000 C 
ATOM     24  C   UNL     1      -0.097  12.295  19.283  0.00  0.00    +0.000 C 
BRANCH  24  25
ATOM     25  C   UNL     1      -1.607  12.357  18.880  0.00  0.00    +0.000 C 
BRANCH  25  26
ATOM     26  C   UNL     1      -2.144  11.350  17.873  0.00  0.00    +0.000 A 
ATOM     27  C   UNL     1      -2.121  11.655  16.499  0.00  0.00    +0.000 A 
ATOM     28  C   UNL     1      -2.810  10.866  15.573  0.00  0.00    +0.000 A 
ATOM     29  C   UNL     1      -3.518   9.745  15.998  0.00  0.00    +0.000 A 
ATOM     30  C   UNL     1      -3.489   9.384  17.342  0.00  0.00    +0.000 A 
ATOM     31  C   UNL     1      -2.797  10.171  18.270  0.00  0.00    +0.000 A 
ENDBRANCH  25  26
BRANCH  25  32
ATOM     32  O   UNL     1      -2.458  12.418  20.032  0.00  0.00    +0.000 OA
ATOM     33  H   UNL     1      -1.912  12.740  20.762  0.00  0.00    +0.000 HD
ENDBRANCH  25  32
ENDBRANCH  24  25
ENDBRANCH   1  24
TORSDOF 8
ENDMDL
MODEL 9
REMARK VINA RESULT:      -8.0      2.271      2.791
REMARK  Name = 
REMARK  10 active torsions:
REMARK  status: ('A' for Active; 'I' for Inactive)
REMARK    1  A    between atoms: C_1  and  C_2
REMARK    2  A    between atoms: C_2  and  C_3
REMARK    3  A    between atoms: C_2  and  N_11
REMARK    4  A    between atoms: C_3  and  O_4
REMARK    5  A    between atoms: C_3  and  C_5
REMARK    6  A    between atoms: N_11  and  C_12
REMARK    7  A    between atoms: N_15  and  C_16
REMARK    8  A    between atoms: C_19  and  O_20
REMARK    9  A    between atoms: O_20  and  C_21
REMARK   10  A    between atoms: C_25  and  N_26
REMARK                            x       y       z     vdW  Elec       q    Type
REMARK                         _______ _______ _______ _____ _____    ______ ____
ROOT
ATOM      1  N   UNL     1       2.911   4.634  19.673  0.00  0.00    +0.000 N 
ATOM      2  C   UNL     1       2.845   4.189  21.063  0.00  0.00    +0.000 C 
ATOM      3  C   UNL     1       2.461   5.898  19.261  0.00  0.00    +0.000 C 
ATOM      4  O   UNL     1       2.390   6.180  18.068  0.00  0.00    +0.000 OA
ATOM      5  N   UNL     1       2.101   6.755  20.275  0.00  0.00    +0.000 N 
ATOM      6  H   UNL     1       2.507   6.595  21.178  0.00  0.00    +0.000 HD
ENDROOT
BRANCH   5   7
ATOM      7  C   UNL     1       1.522   8.032  20.085  0.00  0.00    +0.000 A 
ATOM      8  C   UNL     1       1.613   8.737  18.885  0.00  0.00    +0.000 A 
ATOM      9  C   UNL     1       1.069  10.017  18.766  0.00  0.00    +0.000 A 
ATOM     10  C   UNL     1       0.414  10.591  19.853  0.00  0.00    +0.000 A 
ATOM     11  C   UNL     1       0.332   9.902  21.061  0.00  0.00    +0.000 A 
ATOM     12  C   UNL     1       0.847   8.607  21.167  0.00  0.00    +0.000 A 
BRANCH  10  13
ATOM     13  O   UNL     1      -0.071  11.862  19.643  0.00  0.00    +0.000 OA
BRANCH  13  14
ATOM     14  C   UNL     1      -1.429  12.066  19.581  0.00  0.00    +0.000 A 
ATOM     15  C   UNL     1      -1.971  12.856  20.599  0.00  0.00    +0.000 A 
ATOM     16  C   UNL     1      -3.344  13.099  20.646  0.00  0.00    +0.000 A 
ATOM     17  C   UNL     1      -4.183  12.547  19.677  0.00  0.00    +0.000 A 
ATOM     18  C   UNL     1      -3.633  11.786  18.638  0.00  0.00    +0.000 A 
ATOM     19  C   UNL     1      -2.252  11.575  18.564  0.00  0.00    +0.000 A 
BRANCH  18  20
ATOM     20  N   UNL     1      -4.503  11.167  17.636  0.00  0.00    +0.000 N 
ATOM     21  O   UNL     1      -4.023  10.963  16.510  0.00  0.00    +0.000 OA
ATOM     22  O   UNL     1      -5.667  10.892  17.963  0.00  0.00    +0.000 OA
ENDBRANCH  18  20
ENDBRANCH  13  14
ENDBRANCH  10  13
ENDBRANCH   5   7
BRANCH   1  24
ATOM     23  C   UNL     1       2.447   2.355  18.687  0.00  0.00    +0.000 C 
ATOM     24  C   UNL     1       3.225   3.675  18.574  0.00  0.00    +0.000 C 
BRANCH  24  25
ATOM     25  C   UNL     1       4.755   3.400  18.394  0.00  0.00    +0.000 C 
BRANCH  25  26
ATOM     26  C   UNL     1       5.658   4.532  17.925  0.00  0.00    +0.000 A 
ATOM     27  C   UNL     1       6.638   5.049  18.793  0.00  0.00    +0.000 A 
ATOM     28  C   UNL     1       7.321   6.230  18.488  0.00  0.00    +0.000 A 
ATOM     29  C   UNL     1       7.054   6.906  17.300  0.00  0.00    +0.000 A 
ATOM     30  C   UNL     1       6.146   6.368  16.394  0.00  0.00    +0.000 A 
ATOM     31  C   UNL     1       5.463   5.184  16.696  0.00  0.00    +0.000 A 
ENDBRANCH  25  26
BRANCH  25  32
ATOM     32  O   UNL     1       5.314   2.756  19.547  0.00  0.00    +0.000 OA
ATOM     33  H   UNL     1       5.896   2.057  19.218  0.00  0.00    +0.000 HD
ENDBRANCH  25  32
ENDBRANCH  24  25
ENDBRANCH   1  24
TORSDOF 8
ENDMDL
