MODEL 1
REMARK VINA RESULT:      -7.5      0.000      0.000
REMARK  Name = 
REMARK  20 active torsions:
REMARK  status: ('A' for Active; 'I' for Inactive)
REMARK    1  A    between atoms: C_1  and  C_2
REMARK    2  A    between atoms: C_2  and  C_3
REMARK    3  A    between atoms: C_2  and  C_4
REMARK    4  A    between atoms: C_4  and  O_5
REMARK    5  A    between atoms: C_4  and  C_13
REMARK    6  A    between atoms: O_5  and  C_6
REMARK    7  A    between atoms: C_6  and  C_7
REMARK    8  A    between atoms: C_13  and  C_14
REMARK    9  A    between atoms: C_13  and  C_15
REMARK   10  A    between atoms: N_16  and  O_17
REMARK   11  A    between atoms: O_17  and  C_18
REMARK   12  A    between atoms: C_18  and  C_19
REMARK   13  A    between atoms: C_19  and  C_20
REMARK   14  A    between atoms: C_19  and  C_21
REMARK   15  A    between atoms: C_21  and  O_22
REMARK   16  A    between atoms: C_21  and  C_30
REMARK   17  A    between atoms: O_22  and  C_23
REMARK   18  A    between atoms: C_23  and  C_24
REMARK   19  A    between atoms: C_30  and  C_31
REMARK   20  A    between atoms: C_30  and  C_32
REMARK                            x       y       z     vdW  Elec       q    Type
REMARK                         _______ _______ _______ _____ _____    ______ ____
ROOT
ATOM      1  C   UNL     1       1.631   6.741  20.485  0.00  0.00    +0.000 C 
ATOM      2  N   UNL     1       1.650   8.028  20.601  0.00  0.00    +0.000 NA
ENDROOT
BRANCH   1   3
ATOM      3  C   UNL     1       2.692   6.020  19.664  0.00  0.00    +0.000 C 
ATOM      4  C   UNL     1       2.259   6.317  18.231  0.00  0.00    +0.000 C 
BRANCH   3   5
ATOM      5  C   UNL     1       2.812   4.515  20.089  0.00  0.00    +0.000 C 
BRANCH   5   7
ATOM      6  C   UNL     1       1.123   2.869  19.057  0.00  0.00    +0.000 C 
ATOM      7  C   UNL     1       1.458   3.734  20.293  0.00  0.00    +0.000 C 
ATOM      8  C   UNL     1       1.376   2.816  21.517  0.00  0.00    +0.000 C 
ENDBRANCH   5   7
BRANCH   5   9
ATOM      9  O   UNL     1       3.521   3.742  19.070  0.00  0.00    +0.000 OA
BRANCH   9  10
ATOM     10  C   UNL     1       4.941   3.887  19.052  0.00  0.00    +0.000 C 
BRANCH  10  11
ATOM     11  C   UNL     1       5.497   4.203  17.688  0.00  0.00    +0.000 A 
ATOM     12  C   UNL     1       6.842   4.600  17.569  0.00  0.00    +0.000 A 
ATOM     13  C   UNL     1       7.404   4.863  16.324  0.00  0.00    +0.000 A 
ATOM     14  C   UNL     1       6.630   4.725  15.175  0.00  0.00    +0.000 A 
ATOM     15  C   UNL     1       5.301   4.308  15.274  0.00  0.00    +0.000 A 
ATOM     16  C   UNL     1       4.736   4.046  16.529  0.00  0.00    +0.000 A 
ENDBRANCH  10  11
ENDBRANCH   9  10
ENDBRANCH   5   9
ENDBRANCH   3   5
ENDBRANCH   1   3
BRANCH   2  17
ATOM     17  O   UNL     1       0.555   8.420  21.385  0.00  0.00    +0.000 OA
BRANCH  17  18
ATOM     18  C   UNL     1       0.819   9.724  21.920  0.00  0.00    +0.000 C 
BRANCH  18  19
ATOM     19  C   UNL     1      -0.418  10.613  21.671  0.00  0.00    +0.000 C 
ATOM     20  C   UNL     1      -1.069  10.922  23.025  0.00  0.00    +0.000 C 
BRANCH  19  21
ATOM     21  C   UNL     1      -0.012  11.853  20.822  0.00  0.00    +0.000 C 
BRANCH  21  22
ATOM     22  C   UNL     1      -0.071  13.276  21.472  0.00  0.00    +0.000 C 
ATOM     23  C   UNL     1       1.243  14.055  21.512  0.00  0.00    +0.000 C 
ATOM     24  C   UNL     1      -1.110  14.144  20.738  0.00  0.00    +0.000 C 
ENDBRANCH  21  22
BRANCH  21  25
ATOM     25  O   UNL     1      -0.758  11.857  19.569  0.00  0.00    +0.000 OA
BRANCH  25  26
ATOM     26  C   UNL     1      -1.403  10.623  19.240  0.00  0.00    +0.000 C 
BRANCH  26  27
ATOM     27  C   UNL     1      -2.282  10.689  18.015  0.00  0.00    +0.000 A 
ATOM     28  C   UNL     1      -3.446  11.463  17.933  0.00  0.00    +0.000 A 
ATOM     29  C   UNL     1      -4.235  11.433  16.777  0.00  0.00    +0.000 A 
ATOM     30  C   UNL     1      -3.861  10.634  15.695  0.00  0.00    +0.000 A 
ATOM     31  C   UNL     1      -2.696   9.879  15.754  0.00  0.00    +0.000 A 
ATOM     32  C   UNL     1      -1.911   9.913  16.907  0.00  0.00    +0.000 A 
ENDBRANCH  26  27
ENDBRANCH  25  26
ENDBRANCH  21  25
ENDBRANCH  19  21
ENDBRANCH  18  19
ENDBRANCH  17  18
ENDBRANCH   2  17
TORSDOF 14
ENDMDL
MODEL 2
REMARK VINA RESULT:      -7.3      2.174      9.285
REMARK  Name = 
REMARK  20 active torsions:
REMARK  status: ('A' for Active; 'I' for Inactive)
REMARK    1  A    between atoms: C_1  and  C_2
REMARK    2  A    between atoms: C_2  and  C_3
REMARK    3  A    between atoms: C_2  and  C_4
REMARK    4  A    between atoms: C_4  and  O_5
REMARK    5  A    between atoms: C_4  and  C_13
REMARK    6  A    between atoms: O_5  and  C_6
REMARK    7  A    between atoms: C_6  and  C_7
REMARK    8  A    between atoms: C_13  and  C_14
REMARK    9  A    between atoms: C_13  and  C_15
REMARK   10  A    between atoms: N_16  and  O_17
REMARK   11  A    between atoms: O_17  and  C_18
REMARK   12  A    between atoms: C_18  and  C_19
REMARK   13  A    between atoms: C_19  and  C_20
REMARK   14  A    between atoms: C_19  and  C_21
REMARK   15  A    between atoms: C_21  and  O_22
REMARK   16  A    between atoms: C_21  and  C_30
REMARK   17  A    between atoms: O_22  and  C_23
REMARK   18  A    between atoms: C_23  and  C_24
REMARK   19  A    between atoms: C_30  and  C_31
REMARK   20  A    between atoms: C_30  and  C_32
REMARK                            x       y       z     vdW  Elec       q    Type
REMARK                         _______ _______ _______ _____ _____    ______ ____
ROOT
ATOM      1  C   UNL     1       1.530   8.747  19.963  0.00  0.00    +0.000 C 
ATOM      2  N   UNL     1       1.256   7.716  20.693  0.00  0.00    +0.000 NA
ENDROOT
BRANCH   1   3
ATOM      3  C   UNL     1       0.811  10.070  20.187  0.00  0.00    +0.000 C 
ATOM      4  C   UNL     1      -0.184   9.723  21.291  0.00  0.00    +0.000 C 
BRANCH   3   5
ATOM      5  C   UNL     1       0.235  10.638  18.843  0.00  0.00    +0.000 C 
BRANCH   5   7
ATOM      6  C   UNL     1      -2.111  11.695  18.770  0.00  0.00    +0.000 C 
ATOM      7  C   UNL     1      -1.300  10.394  18.581  0.00  0.00    +0.000 C 
ATOM      8  C   UNL     1      -1.676   9.829  17.208  0.00  0.00    +0.000 C 
ENDBRANCH   5   7
BRANCH   5   9
ATOM      9  O   UNL     1       0.381  12.092  18.789  0.00  0.00    +0.000 OA
BRANCH   9  10
ATOM     10  C   UNL     1       1.581  12.621  19.351  0.00  0.00    +0.000 C 
BRANCH  10  11
ATOM     11  C   UNL     1       1.970  13.964  18.789  0.00  0.00    +0.000 A 
ATOM     12  C   UNL     1       1.099  15.056  18.956  0.00  0.00    +0.000 A 
ATOM     13  C   UNL     1       1.438  16.321  18.486  0.00  0.00    +0.000 A 
ATOM     14  C   UNL     1       2.660  16.515  17.847  0.00  0.00    +0.000 A 
ATOM     15  C   UNL     1       3.546  15.445  17.696  0.00  0.00    +0.000 A 
ATOM     16  C   UNL     1       3.201  14.172  18.168  0.00  0.00    +0.000 A 
ENDBRANCH  10  11
ENDBRANCH   9  10
ENDBRANCH   5   9
ENDBRANCH   3   5
ENDBRANCH   1   3
BRANCH   2  17
ATOM     17  O   UNL     1       2.042   6.641  20.256  0.00  0.00    +0.000 OA
BRANCH  17  18
ATOM     18  C   UNL     1       1.434   5.420  20.700  0.00  0.00    +0.000 C 
BRANCH  18  19
ATOM     19  C   UNL     1       2.537   4.351  20.851  0.00  0.00    +0.000 C 
ATOM     20  C   UNL     1       1.929   3.125  21.544  0.00  0.00    +0.000 C 
BRANCH  19  21
ATOM     21  C   UNL     1       3.201   4.081  19.468  0.00  0.00    +0.000 C 
BRANCH  21  22
ATOM     22  C   UNL     1       2.541   3.048  18.495  0.00  0.00    +0.000 C 
ATOM     23  C   UNL     1       2.225   3.553  17.087  0.00  0.00    +0.000 C 
ATOM     24  C   UNL     1       3.446   1.809  18.356  0.00  0.00    +0.000 C 
ENDBRANCH  21  22
BRANCH  21  25
ATOM     25  O   UNL     1       4.608   3.748  19.655  0.00  0.00    +0.000 OA
BRANCH  25  26
ATOM     26  C   UNL     1       5.532   4.775  19.282  0.00  0.00    +0.000 C 
BRANCH  26  27
ATOM     27  C   UNL     1       5.532   5.107  17.810  0.00  0.00    +0.000 A 
ATOM     28  C   UNL     1       5.070   6.320  17.285  0.00  0.00    +0.000 A 
ATOM     29  C   UNL     1       5.059   6.534  15.902  0.00  0.00    +0.000 A 
ATOM     30  C   UNL     1       5.514   5.538  15.037  0.00  0.00    +0.000 A 
ATOM     31  C   UNL     1       5.998   4.338  15.545  0.00  0.00    +0.000 A 
ATOM     32  C   UNL     1       6.010   4.130  16.925  0.00  0.00    +0.000 A 
ENDBRANCH  26  27
ENDBRANCH  25  26
ENDBRANCH  21  25
ENDBRANCH  19  21
ENDBRANCH  18  19
ENDBRANCH  17  18
ENDBRANCH   2  17
TORSDOF 14
ENDMDL
MODEL 3
REMARK VINA RESULT:      -7.2      1.605      2.067
REMARK  Name = 
REMARK  20 active torsions:
REMARK  status: ('A' for Active; 'I' for Inactive)
REMARK    1  A    between atoms: C_1  and  C_2
REMARK    2  A    between atoms: C_2  and  C_3
REMARK    3  A    between atoms: C_2  and  C_4
REMARK    4  A    between atoms: C_4  and  O_5
REMARK    5  A    between atoms: C_4  and  C_13
REMARK    6  A    between atoms: O_5  and  C_6
REMARK    7  A    between atoms: C_6  and  C_7
REMARK    8  A    between atoms: C_13  and  C_14
REMARK    9  A    between atoms: C_13  and  C_15
REMARK   10  A    between atoms: N_16  and  O_17
REMARK   11  A    between atoms: O_17  and  C_18
REMARK   12  A    between atoms: C_18  and  C_19
REMARK   13  A    between atoms: C_19  and  C_20
REMARK   14  A    between atoms: C_19  and  C_21
REMARK   15  A    between atoms: C_21  and  O_22
REMARK   16  A    between atoms: C_21  and  C_30
REMARK   17  A    between atoms: O_22  and  C_23
REMARK   18  A    between atoms: C_23  and  C_24
REMARK   19  A    between atoms: C_30  and  C_31
REMARK   20  A    between atoms: C_30  and  C_32
REMARK                            x       y       z     vdW  Elec       q    Type
REMARK                         _______ _______ _______ _____ _____    ______ ____
ROOT
ATOM      1  C   UNL     1       2.215   6.375  18.498  0.00  0.00    +0.000 C 
ATOM      2  N   UNL     1       2.405   6.679  19.739  0.00  0.00    +0.000 NA
ENDROOT
BRANCH   1   3
ATOM      3  C   UNL     1       2.662   5.026  17.952  0.00  0.00    +0.000 C 
ATOM      4  C   UNL     1       1.354   4.421  17.453  0.00  0.00    +0.000 C 
BRANCH   3   5
ATOM      5  C   UNL     1       3.473   4.219  19.026  0.00  0.00    +0.000 C 
BRANCH   5   7
ATOM      6  C   UNL     1       3.502   1.650  19.188  0.00  0.00    +0.000 C 
ATOM      7  C   UNL     1       2.767   2.939  19.619  0.00  0.00    +0.000 C 
ATOM      8  C   UNL     1       2.623   2.884  21.142  0.00  0.00    +0.000 C 
ENDBRANCH   5   7
BRANCH   5   9
ATOM      9  O   UNL     1       4.722   3.711  18.461  0.00  0.00    +0.000 OA
BRANCH   9  10
ATOM     10  C   UNL     1       5.233   4.423  17.335  0.00  0.00    +0.000 C 
BRANCH  10  11
ATOM     11  C   UNL     1       6.216   5.505  17.703  0.00  0.00    +0.000 A 
ATOM     12  C   UNL     1       7.136   5.273  18.741  0.00  0.00    +0.000 A 
ATOM     13  C   UNL     1       8.085   6.231  19.085  0.00  0.00    +0.000 A 
ATOM     14  C   UNL     1       8.133   7.435  18.388  0.00  0.00    +0.000 A 
ATOM     15  C   UNL     1       7.242   7.669  17.337  0.00  0.00    +0.000 A 
ATOM     16  C   UNL     1       6.286   6.705  16.995  0.00  0.00    +0.000 A 
ENDBRANCH  10  11
ENDBRANCH   9  10
ENDBRANCH   5   9
ENDBRANCH   3   5
ENDBRANCH   1   3
BRANCH   2  17
ATOM     17  O   UNL     1       1.920   7.977  19.959  0.00  0.00    +0.000 OA
BRANCH  17  18
ATOM     18  C   UNL     1       1.595   8.114  21.349  0.00  0.00    +0.000 C 
BRANCH  18  19
ATOM     19  C   UNL     1       0.289   8.929  21.466  0.00  0.00    +0.000 C 
ATOM     20  C   UNL     1       0.100   9.329  22.935  0.00  0.00    +0.000 C 
BRANCH  19  21
ATOM     21  C   UNL     1       0.310  10.106  20.447  0.00  0.00    +0.000 C 
BRANCH  21  22
ATOM     22  C   UNL     1       0.699  11.538  20.944  0.00  0.00    +0.000 C 
ATOM     23  C   UNL     1       1.576  12.364  20.003  0.00  0.00    +0.000 C 
ATOM     24  C   UNL     1      -0.574  12.355  21.236  0.00  0.00    +0.000 C 
ENDBRANCH  21  22
BRANCH  21  25
ATOM     25  O   UNL     1      -0.962  10.164  19.736  0.00  0.00    +0.000 OA
BRANCH  25  26
ATOM     26  C   UNL     1      -0.864  10.154  18.309  0.00  0.00    +0.000 C 
BRANCH  26  27
ATOM     27  C   UNL     1      -2.129  10.563  17.595  0.00  0.00    +0.000 A 
ATOM     28  C   UNL     1      -3.153  11.307  18.193  0.00  0.00    +0.000 A 
ATOM     29  C   UNL     1      -4.319  11.607  17.477  0.00  0.00    +0.000 A 
ATOM     30  C   UNL     1      -4.464  11.167  16.161  0.00  0.00    +0.000 A 
ATOM     31  C   UNL     1      -3.445  10.447  15.548  0.00  0.00    +0.000 A 
ATOM     32  C   UNL     1      -2.284  10.154  16.263  0.00  0.00    +0.000 A 
ENDBRANCH  26  27
ENDBRANCH  25  26
ENDBRANCH  21  25
ENDBRANCH  19  21
ENDBRANCH  18  19
ENDBRANCH  17  18
ENDBRANCH   2  17
TORSDOF 14
ENDMDL
MODEL 4
REMARK VINA RESULT:      -7.2      1.983      9.604
REMARK  Name = 
REMARK  20 active torsions:
REMARK  status: ('A' for Active; 'I' for Inactive)
REMARK    1  A    between atoms: C_1  and  C_2
REMARK    2  A    between atoms: C_2  and  C_3
REMARK    3  A    between atoms: C_2  and  C_4
REMARK    4  A    between atoms: C_4  and  O_5
REMARK    5  A    between atoms: C_4  and  C_13
REMARK    6  A    between atoms: O_5  and  C_6
REMARK    7  A    between atoms: C_6  and  C_7
REMARK    8  A    between atoms: C_13  and  C_14
REMARK    9  A    between atoms: C_13  and  C_15
REMARK   10  A    between atoms: N_16  and  O_17
REMARK   11  A    between atoms: O_17  and  C_18
REMARK   12  A    between atoms: C_18  and  C_19
REMARK   13  A    between atoms: C_19  and  C_20
REMARK   14  A    between atoms: C_19  and  C_21
REMARK   15  A    between atoms: C_21  and  O_22
REMARK   16  A    between atoms: C_21  and  C_30
REMARK   17  A    between atoms: O_22  and  C_23
REMARK   18  A    between atoms: C_23  and  C_24
REMARK   19  A    between atoms: C_30  and  C_31
REMARK   20  A    between atoms: C_30  and  C_32
REMARK                            x       y       z     vdW  Elec       q    Type
REMARK                         _______ _______ _______ _____ _____    ______ ____
ROOT
ATOM      1  C   UNL     1       1.748   9.159  18.611  0.00  0.00    +0.000 C 
ATOM      2  N   UNL     1       1.714   8.187  17.761  0.00  0.00    +0.000 NA
ENDROOT
BRANCH   1   3
ATOM      3  C   UNL     1       0.794  10.338  18.481  0.00  0.00    +0.000 C 
ATOM      4  C   UNL     1       1.730  11.536  18.602  0.00  0.00    +0.000 C 
BRANCH   3   5
ATOM      5  C   UNL     1      -0.385  10.230  19.511  0.00  0.00    +0.000 C 
BRANCH   5   7
ATOM      6  C   UNL     1      -0.634  11.077  21.929  0.00  0.00    +0.000 C 
ATOM      7  C   UNL     1       0.022  10.014  21.019  0.00  0.00    +0.000 C 
ATOM      8  C   UNL     1      -0.304   8.645  21.624  0.00  0.00    +0.000 C 
ENDBRANCH   5   7
BRANCH   5   9
ATOM      9  O   UNL     1      -1.176  11.460  19.526  0.00  0.00    +0.000 OA
BRANCH   9  10
ATOM     10  C   UNL     1      -2.008  11.680  18.388  0.00  0.00    +0.000 C 
BRANCH  10  11
ATOM     11  C   UNL     1      -3.477  11.732  18.716  0.00  0.00    +0.000 A 
ATOM     12  C   UNL     1      -4.382  10.991  17.933  0.00  0.00    +0.000 A 
ATOM     13  C   UNL     1      -5.742  10.982  18.227  0.00  0.00    +0.000 A 
ATOM     14  C   UNL     1      -6.218  11.708  19.315  0.00  0.00    +0.000 A 
ATOM     15  C   UNL     1      -5.328  12.428  20.116  0.00  0.00    +0.000 A 
ATOM     16  C   UNL     1      -3.960  12.439  19.817  0.00  0.00    +0.000 A 
ENDBRANCH  10  11
ENDBRANCH   9  10
ENDBRANCH   5   9
ENDBRANCH   3   5
ENDBRANCH   1   3
BRANCH   2  17
ATOM     17  O   UNL     1       2.708   7.259  18.105  0.00  0.00    +0.000 OA
BRANCH  17  18
ATOM     18  C   UNL     1       3.864   7.506  17.294  0.00  0.00    +0.000 C 
BRANCH  18  19
ATOM     19  C   UNL     1       4.643   6.182  17.138  0.00  0.00    +0.000 C 
ATOM     20  C   UNL     1       5.233   6.134  15.723  0.00  0.00    +0.000 C 
BRANCH  19  21
ATOM     21  C   UNL     1       5.669   6.034  18.299  0.00  0.00    +0.000 C 
BRANCH  21  22
ATOM     22  C   UNL     1       7.195   6.194  17.994  0.00  0.00    +0.000 C 
ATOM     23  C   UNL     1       7.689   7.619  17.745  0.00  0.00    +0.000 C 
ATOM     24  C   UNL     1       8.025   5.605  19.151  0.00  0.00    +0.000 C 
ENDBRANCH  21  22
BRANCH  21  25
ATOM     25  O   UNL     1       5.439   4.778  19.002  0.00  0.00    +0.000 OA
BRANCH  25  26
ATOM     26  C   UNL     1       4.589   3.847  18.325  0.00  0.00    +0.000 C 
BRANCH  26  27
ATOM     27  C   UNL     1       3.241   3.649  18.976  0.00  0.00    +0.000 A 
ATOM     28  C   UNL     1       2.259   2.783  18.482  0.00  0.00    +0.000 A 
ATOM     29  C   UNL     1       1.014   2.690  19.117  0.00  0.00    +0.000 A 
ATOM     30  C   UNL     1       0.748   3.459  20.251  0.00  0.00    +0.000 A 
ATOM     31  C   UNL     1       1.723   4.306  20.765  0.00  0.00    +0.000 A 
ATOM     32  C   UNL     1       2.963   4.393  20.132  0.00  0.00    +0.000 A 
ENDBRANCH  26  27
ENDBRANCH  25  26
ENDBRANCH  21  25
ENDBRANCH  19  21
ENDBRANCH  18  19
ENDBRANCH  17  18
ENDBRANCH   2  17
TORSDOF 14
ENDMDL
MODEL 5
REMARK VINA RESULT:      -7.2      1.836      9.257
REMARK  Name = 
REMARK  20 active torsions:
REMARK  status: ('A' for Active; 'I' for Inactive)
REMARK    1  A    between atoms: C_1  and  C_2
REMARK    2  A    between atoms: C_2  and  C_3
REMARK    3  A    between atoms: C_2  and  C_4
REMARK    4  A    between atoms: C_4  and  O_5
REMARK    5  A    between atoms: C_4  and  C_13
REMARK    6  A    between atoms: O_5  and  C_6
REMARK    7  A    between atoms: C_6  and  C_7
REMARK    8  A    between atoms: C_13  and  C_14
REMARK    9  A    between atoms: C_13  and  C_15
REMARK   10  A    between atoms: N_16  and  O_17
REMARK   11  A    between atoms: O_17  and  C_18
REMARK   12  A    between atoms: C_18  and  C_19
REMARK   13  A    between atoms: C_19  and  C_20
REMARK   14  A    between atoms: C_19  and  C_21
REMARK   15  A    between atoms: C_21  and  O_22
REMARK   16  A    between atoms: C_21  and  C_30
REMARK   17  A    between atoms: O_22  and  C_23
REMARK   18  A    between atoms: C_23  and  C_24
REMARK   19  A    between atoms: C_30  and  C_31
REMARK   20  A    between atoms: C_30  and  C_32
REMARK                            x       y       z     vdW  Elec       q    Type
REMARK                         _______ _______ _______ _____ _____    ______ ____
ROOT
ATOM      1  C   UNL     1       1.632   8.703  18.058  0.00  0.00    +0.000 C 
ATOM      2  N   UNL     1       2.913   8.582  18.178  0.00  0.00    +0.000 NA
ENDROOT
BRANCH   1   3
ATOM      3  C   UNL     1       0.968  10.068  18.163  0.00  0.00    +0.000 C 
ATOM      4  C   UNL     1       2.163  11.015  18.209  0.00  0.00    +0.000 C 
BRANCH   3   5
ATOM      5  C   UNL     1      -0.044  10.116  19.361  0.00  0.00    +0.000 C 
BRANCH   5   7
ATOM      6  C   UNL     1       0.142  10.787  21.840  0.00  0.00    +0.000 C 
ATOM      7  C   UNL     1       0.531   9.733  20.779  0.00  0.00    +0.000 C 
ATOM      8  C   UNL     1       0.121   8.366  21.335  0.00  0.00    +0.000 C 
ENDBRANCH   5   7
BRANCH   5   9
ATOM      9  O   UNL     1      -0.571  11.468  19.542  0.00  0.00    +0.000 OA
BRANCH   9  10
ATOM     10  C   UNL     1      -1.050  12.114  18.363  0.00  0.00    +0.000 C 
BRANCH  10  11
ATOM     11  C   UNL     1      -2.470  11.755  18.013  0.00  0.00    +0.000 A 
ATOM     12  C   UNL     1      -3.478  11.915  18.982  0.00  0.00    +0.000 A 
ATOM     13  C   UNL     1      -4.808  11.630  18.686  0.00  0.00    +0.000 A 
ATOM     14  C   UNL     1      -5.151  11.188  17.412  0.00  0.00    +0.000 A 
ATOM     15  C   UNL     1      -4.166  11.049  16.432  0.00  0.00    +0.000 A 
ATOM     16  C   UNL     1      -2.827  11.333  16.733  0.00  0.00    +0.000 A 
ENDBRANCH  10  11
ENDBRANCH   9  10
ENDBRANCH   5   9
ENDBRANCH   3   5
ENDBRANCH   1   3
BRANCH   2  17
ATOM     17  O   UNL     1       3.245   7.225  18.062  0.00  0.00    +0.000 OA
BRANCH  17  18
ATOM     18  C   UNL     1       3.878   7.016  16.792  0.00  0.00    +0.000 C 
BRANCH  18  19
ATOM     19  C   UNL     1       4.857   5.830  16.923  0.00  0.00    +0.000 C 
ATOM     20  C   UNL     1       5.625   5.691  15.603  0.00  0.00    +0.000 C 
BRANCH  19  21
ATOM     21  C   UNL     1       5.735   6.010  18.195  0.00  0.00    +0.000 C 
BRANCH  21  22
ATOM     22  C   UNL     1       7.278   6.222  18.034  0.00  0.00    +0.000 C 
ATOM     23  C   UNL     1       7.735   7.646  17.721  0.00  0.00    +0.000 C 
ATOM     24  C   UNL     1       8.005   5.766  19.314  0.00  0.00    +0.000 C 
ENDBRANCH  21  22
BRANCH  21  25
ATOM     25  O   UNL     1       5.486   4.915  19.125  0.00  0.00    +0.000 OA
BRANCH  25  26
ATOM     26  C   UNL     1       4.717   3.830  18.597  0.00  0.00    +0.000 C 
BRANCH  26  27
ATOM     27  C   UNL     1       3.327   3.715  19.173  0.00  0.00    +0.000 A 
ATOM     28  C   UNL     1       2.339   2.868  18.657  0.00  0.00    +0.000 A 
ATOM     29  C   UNL     1       1.057   2.853  19.220  0.00  0.00    +0.000 A 
ATOM     30  C   UNL     1       0.758   3.681  20.302  0.00  0.00    +0.000 A 
ATOM     31  C   UNL     1       1.737   4.509  20.839  0.00  0.00    +0.000 A 
ATOM     32  C   UNL     1       3.014   4.519  20.278  0.00  0.00    +0.000 A 
ENDBRANCH  26  27
ENDBRANCH  25  26
ENDBRANCH  21  25
ENDBRANCH  19  21
ENDBRANCH  18  19
ENDBRANCH  17  18
ENDBRANCH   2  17
TORSDOF 14
ENDMDL
MODEL 6
REMARK VINA RESULT:      -7.0      1.516      2.535
REMARK  Name = 
REMARK  20 active torsions:
REMARK  status: ('A' for Active; 'I' for Inactive)
REMARK    1  A    between atoms: C_1  and  C_2
REMARK    2  A    between atoms: C_2  and  C_3
REMARK    3  A    between atoms: C_2  and  C_4
REMARK    4  A    between atoms: C_4  and  O_5
REMARK    5  A    between atoms: C_4  and  C_13
REMARK    6  A    between atoms: O_5  and  C_6
REMARK    7  A    between atoms: C_6  and  C_7
REMARK    8  A    between atoms: C_13  and  C_14
REMARK    9  A    between atoms: C_13  and  C_15
REMARK   10  A    between atoms: N_16  and  O_17
REMARK   11  A    between atoms: O_17  and  C_18
REMARK   12  A    between atoms: C_18  and  C_19
REMARK   13  A    between atoms: C_19  and  C_20
REMARK   14  A    between atoms: C_19  and  C_21
REMARK   15  A    between atoms: C_21  and  O_22
REMARK   16  A    between atoms: C_21  and  C_30
REMARK   17  A    between atoms: O_22  and  C_23
REMARK   18  A    between atoms: C_23  and  C_24
REMARK   19  A    between atoms: C_30  and  C_31
REMARK   20  A    between atoms: C_30  and  C_32
REMARK                            x       y       z     vdW  Elec       q    Type
REMARK                         _______ _______ _______ _____ _____    ______ ____
ROOT
ATOM      1  C   UNL     1       1.894   5.177  21.144  0.00  0.00    +0.000 C 
ATOM      2  N   UNL     1       1.051   5.994  20.604  0.00  0.00    +0.000 NA
ENDROOT
BRANCH   1   3
ATOM      3  C   UNL     1       1.855   3.691  20.814  0.00  0.00    +0.000 C 
ATOM      4  C   UNL     1       2.210   3.046  22.150  0.00  0.00    +0.000 C 
BRANCH   3   5
ATOM      5  C   UNL     1       2.768   3.359  19.582  0.00  0.00    +0.000 C 
BRANCH   5   7
ATOM      6  C   UNL     1       0.739   2.261  18.439  0.00  0.00    +0.000 C 
ATOM      7  C   UNL     1       2.029   3.083  18.217  0.00  0.00    +0.000 C 
ATOM      8  C   UNL     1       1.638   4.313  17.391  0.00  0.00    +0.000 C 
ENDBRANCH   5   7
BRANCH   5   9
ATOM      9  O   UNL     1       3.665   4.475  19.284  0.00  0.00    +0.000 OA
BRANCH   9  10
ATOM     10  C   UNL     1       5.061   4.183  19.330  0.00  0.00    +0.000 C 
BRANCH  10  11
ATOM     11  C   UNL     1       5.921   5.249  18.702  0.00  0.00    +0.000 A 
ATOM     12  C   UNL     1       5.414   5.991  17.619  0.00  0.00    +0.000 A 
ATOM     13  C   UNL     1       6.162   7.010  17.037  0.00  0.00    +0.000 A 
ATOM     14  C   UNL     1       7.427   7.308  17.536  0.00  0.00    +0.000 A 
ATOM     15  C   UNL     1       7.933   6.598  18.627  0.00  0.00    +0.000 A 
ATOM     16  C   UNL     1       7.180   5.570  19.209  0.00  0.00    +0.000 A 
ENDBRANCH  10  11
ENDBRANCH   9  10
ENDBRANCH   5   9
ENDBRANCH   3   5
ENDBRANCH   1   3
BRANCH   2  17
ATOM     17  O   UNL     1       1.301   7.282  21.101  0.00  0.00    +0.000 OA
BRANCH  17  18
ATOM     18  C   UNL     1       0.045   7.905  21.406  0.00  0.00    +0.000 C 
BRANCH  18  19
ATOM     19  C   UNL     1       0.325   9.300  22.004  0.00  0.00    +0.000 C 
ATOM     20  C   UNL     1       1.795   9.353  22.436  0.00  0.00    +0.000 C 
BRANCH  19  21
ATOM     21  C   UNL     1      -0.119  10.403  20.998  0.00  0.00    +0.000 C 
BRANCH  21  22
ATOM     22  C   UNL     1      -0.895  11.653  21.531  0.00  0.00    +0.000 C 
ATOM     23  C   UNL     1      -1.348  11.596  22.989  0.00  0.00    +0.000 C 
ATOM     24  C   UNL     1      -0.032  12.917  21.357  0.00  0.00    +0.000 C 
ENDBRANCH  21  22
BRANCH  21  25
ATOM     25  O   UNL     1      -0.863   9.796  19.901  0.00  0.00    +0.000 OA
BRANCH  25  26
ATOM     26  C   UNL     1      -0.664  10.403  18.621  0.00  0.00    +0.000 C 
BRANCH  26  27
ATOM     27  C   UNL     1      -1.930  10.598  17.821  0.00  0.00    +0.000 A 
ATOM     28  C   UNL     1      -2.128  10.074  16.538  0.00  0.00    +0.000 A 
ATOM     29  C   UNL     1      -3.314  10.338  15.842  0.00  0.00    +0.000 A 
ATOM     30  C   UNL     1      -4.308  11.124  16.427  0.00  0.00    +0.000 A 
ATOM     31  C   UNL     1      -4.134  11.630  17.710  0.00  0.00    +0.000 A 
ATOM     32  C   UNL     1      -2.953  11.362  18.402  0.00  0.00    +0.000 A 
ENDBRANCH  26  27
ENDBRANCH  25  26
ENDBRANCH  21  25
ENDBRANCH  19  21
ENDBRANCH  18  19
ENDBRANCH  17  18
ENDBRANCH   2  17
TORSDOF 14
ENDMDL
MODEL 7
REMARK VINA RESULT:      -7.0      2.159     10.017
REMARK  Name = 
REMARK  20 active torsions:
REMARK  status: ('A' for Active; 'I' for Inactive)
REMARK    1  A    between atoms: C_1  and  C_2
REMARK    2  A    between atoms: C_2  and  C_3
REMARK    3  A    between atoms: C_2  and  C_4
REMARK    4  A    between atoms: C_4  and  O_5
REMARK    5  A    between atoms: C_4  and  C_13
REMARK    6  A    between atoms: O_5  and  C_6
REMARK    7  A    between atoms: C_6  and  C_7
REMARK    8  A    between atoms: C_13  and  C_14
REMARK    9  A    between atoms: C_13  and  C_15
REMARK   10  A    between atoms: N_16  and  O_17
REMARK   11  A    between atoms: O_17  and  C_18
REMARK   12  A    between atoms: C_18  and  C_19
REMARK   13  A    between atoms: C_19  and  C_20
REMARK   14  A    between atoms: C_19  and  C_21
REMARK   15  A    between atoms: C_21  and  O_22
REMARK   16  A    between atoms: C_21  and  C_30
REMARK   17  A    between atoms: O_22  and  C_23
REMARK   18  A    between atoms: C_23  and  C_24
REMARK   19  A    between atoms: C_30  and  C_31
REMARK   20  A    between atoms: C_30  and  C_32
REMARK                            x       y       z     vdW  Elec       q    Type
REMARK                         _______ _______ _______ _____ _____    ______ ____
ROOT
ATOM      1  C   UNL     1       1.668   9.615  18.382  0.00  0.00    +0.000 C 
ATOM      2  N   UNL     1       1.718   8.344  18.610  0.00  0.00    +0.000 NA
ENDROOT
BRANCH   1   3
ATOM      3  C   UNL     1       0.625  10.487  19.067  0.00  0.00    +0.000 C 
ATOM      4  C   UNL     1      -0.473  10.579  18.011  0.00  0.00    +0.000 C 
BRANCH   3   5
ATOM      5  C   UNL     1       1.254  11.829  19.579  0.00  0.00    +0.000 C 
BRANCH   5   7
ATOM      6  C   UNL     1       0.470  14.275  19.405  0.00  0.00    +0.000 C 
ATOM      7  C   UNL     1       1.089  13.084  18.639  0.00  0.00    +0.000 C 
ATOM      8  C   UNL     1       2.361  13.601  17.961  0.00  0.00    +0.000 C 
ENDBRANCH   5   7
BRANCH   5   9
ATOM      9  O   UNL     1       0.640  12.243  20.840  0.00  0.00    +0.000 OA
BRANCH   9  10
ATOM     10  C   UNL     1      -0.242  11.298  21.445  0.00  0.00    +0.000 C 
BRANCH  10  11
ATOM     11  C   UNL     1      -1.576  11.881  21.833  0.00  0.00    +0.000 A 
ATOM     12  C   UNL     1      -2.420  12.393  20.831  0.00  0.00    +0.000 A 
ATOM     13  C   UNL     1      -3.675  12.905  21.144  0.00  0.00    +0.000 A 
ATOM     14  C   UNL     1      -4.109  12.906  22.467  0.00  0.00    +0.000 A 
ATOM     15  C   UNL     1      -3.293  12.378  23.470  0.00  0.00    +0.000 A 
ATOM     16  C   UNL     1      -2.028  11.866  23.153  0.00  0.00    +0.000 A 
ENDBRANCH  10  11
ENDBRANCH   9  10
ENDBRANCH   5   9
ENDBRANCH   3   5
ENDBRANCH   1   3
BRANCH   2  17
ATOM     17  O   UNL     1       2.750   7.793  17.836  0.00  0.00    +0.000 OA
BRANCH  17  18
ATOM     18  C   UNL     1       3.343   6.713  18.569  0.00  0.00    +0.000 C 
BRANCH  18  19
ATOM     19  C   UNL     1       4.257   5.918  17.612  0.00  0.00    +0.000 C 
ATOM     20  C   UNL     1       4.603   6.816  16.418  0.00  0.00    +0.000 C 
BRANCH  19  21
ATOM     21  C   UNL     1       5.474   5.347  18.399  0.00  0.00    +0.000 C 
BRANCH  21  22
ATOM     22  C   UNL     1       6.922   5.716  17.935  0.00  0.00    +0.000 C 
ATOM     23  C   UNL     1       7.909   6.095  19.039  0.00  0.00    +0.000 C 
ATOM     24  C   UNL     1       7.532   4.543  17.143  0.00  0.00    +0.000 C 
ENDBRANCH  21  22
BRANCH  21  25
ATOM     25  O   UNL     1       5.350   3.899  18.514  0.00  0.00    +0.000 OA
BRANCH  25  26
ATOM     26  C   UNL     1       4.124   3.351  18.021  0.00  0.00    +0.000 C 
BRANCH  26  27
ATOM     27  C   UNL     1       3.064   3.149  19.077  0.00  0.00    +0.000 A 
ATOM     28  C   UNL     1       1.691   3.271  18.834  0.00  0.00    +0.000 A 
ATOM     29  C   UNL     1       0.772   3.114  19.879  0.00  0.00    +0.000 A 
ATOM     30  C   UNL     1       1.221   2.830  21.169  0.00  0.00    +0.000 A 
ATOM     31  C   UNL     1       2.580   2.683  21.419  0.00  0.00    +0.000 A 
ATOM     32  C   UNL     1       3.493   2.837  20.375  0.00  0.00    +0.000 A 
ENDBRANCH  26  27
ENDBRANCH  25  26
ENDBRANCH  21  25
ENDBRANCH  19  21
ENDBRANCH  18  19
ENDBRANCH  17  18
ENDBRANCH   2  17
TORSDOF 14
ENDMDL
MODEL 8
REMARK VINA RESULT:      -7.0      5.597     10.469
REMARK  Name = 
REMARK  20 active torsions:
REMARK  status: ('A' for Active; 'I' for Inactive)
REMARK    1  A    between atoms: C_1  and  C_2
REMARK    2  A    between atoms: C_2  and  C_3
REMARK    3  A    between atoms: C_2  and  C_4
REMARK    4  A    between atoms: C_4  and  O_5
REMARK    5  A    between atoms: C_4  and  C_13
REMARK    6  A    between atoms: O_5  and  C_6
REMARK    7  A    between atoms: C_6  and  C_7
REMARK    8  A    between atoms: C_13  and  C_14
REMARK    9  A    between atoms: C_13  and  C_15
REMARK   10  A    between atoms: N_16  and  O_17
REMARK   11  A    between atoms: O_17  and  C_18
REMARK   12  A    between atoms: C_18  and  C_19
REMARK   13  A    between atoms: C_19  and  C_20
REMARK   14  A    between atoms: C_19  and  C_21
REMARK   15  A    between atoms: C_21  and  O_22
REMARK   16  A    between atoms: C_21  and  C_30
REMARK   17  A    between atoms: O_22  and  C_23
REMARK   18  A    between atoms: C_23  and  C_24
REMARK   19  A    between atoms: C_30  and  C_31
REMARK   20  A    between atoms: C_30  and  C_32
REMARK                            x       y       z     vdW  Elec       q    Type
REMARK                         _______ _______ _______ _____ _____    ______ ____
ROOT
ATOM      1  C   UNL     1       9.070  10.239  18.949  0.00  0.00    +0.000 C 
ATOM      2  N   UNL     1       8.592   9.483  18.016  0.00  0.00    +0.000 NA
ENDROOT
BRANCH   1   3
ATOM      3  C   UNL     1       9.465  11.679  18.655  0.00  0.00    +0.000 C 
ATOM      4  C   UNL     1      10.641  11.510  17.698  0.00  0.00    +0.000 C 
BRANCH   3   5
ATOM      5  C   UNL     1       9.717  12.481  19.980  0.00  0.00    +0.000 C 
BRANCH   5   7
ATOM      6  C   UNL     1      10.551  14.898  19.683  0.00  0.00    +0.000 C 
ATOM      7  C   UNL     1       9.320  14.006  19.961  0.00  0.00    +0.000 C 
ATOM      8  C   UNL     1       8.235  14.417  18.960  0.00  0.00    +0.000 C 
ENDBRANCH   5   7
BRANCH   5   9
ATOM      9  O   UNL     1       8.936  11.921  21.083  0.00  0.00    +0.000 OA
BRANCH   9  10
ATOM     10  C   UNL     1       9.197  12.469  22.374  0.00  0.00    +0.000 C 
BRANCH  10  11
ATOM     11  C   UNL     1       7.991  12.485  23.277  0.00  0.00    +0.000 A 
ATOM     12  C   UNL     1       7.924  11.576  24.349  0.00  0.00    +0.000 A 
ATOM     13  C   UNL     1       6.846  11.584  25.228  0.00  0.00    +0.000 A 
ATOM     14  C   UNL     1       5.820  12.510  25.053  0.00  0.00    +0.000 A 
ATOM     15  C   UNL     1       5.885  13.435  24.009  0.00  0.00    +0.000 A 
ATOM     16  C   UNL     1       6.970  13.423  23.123  0.00  0.00    +0.000 A 
ENDBRANCH  10  11
ENDBRANCH   9  10
ENDBRANCH   5   9
ENDBRANCH   3   5
ENDBRANCH   1   3
BRANCH   2  17
ATOM     17  O   UNL     1       8.339   8.214  18.558  0.00  0.00    +0.000 OA
BRANCH  17  18
ATOM     18  C   UNL     1       7.531   7.475  17.632  0.00  0.00    +0.000 C 
BRANCH  18  19
ATOM     19  C   UNL     1       7.556   5.987  18.042  0.00  0.00    +0.000 C 
ATOM     20  C   UNL     1       7.898   5.903  19.534  0.00  0.00    +0.000 C 
BRANCH  19  21
ATOM     21  C   UNL     1       6.223   5.302  17.619  0.00  0.00    +0.000 C 
BRANCH  21  22
ATOM     22  C   UNL     1       5.398   5.905  16.434  0.00  0.00    +0.000 C 
ATOM     23  C   UNL     1       5.131   4.973  15.253  0.00  0.00    +0.000 C 
ATOM     24  C   UNL     1       4.036   6.411  16.948  0.00  0.00    +0.000 C 
ENDBRANCH  21  22
BRANCH  21  25
ATOM     25  O   UNL     1       5.361   5.142  18.784  0.00  0.00    +0.000 OA
BRANCH  25  26
ATOM     26  C   UNL     1       5.036   3.790  19.121  0.00  0.00    +0.000 C 
BRANCH  26  27
ATOM     27  C   UNL     1       3.562   3.540  19.335  0.00  0.00    +0.000 A 
ATOM     28  C   UNL     1       2.823   2.592  18.618  0.00  0.00    +0.000 A 
ATOM     29  C   UNL     1       1.448   2.452  18.842  0.00  0.00    +0.000 A 
ATOM     30  C   UNL     1       0.807   3.256  19.786  0.00  0.00    +0.000 A 
ATOM     31  C   UNL     1       1.534   4.185  20.521  0.00  0.00    +0.000 A 
ATOM     32  C   UNL     1       2.905   4.319  20.298  0.00  0.00    +0.000 A 
ENDBRANCH  26  27
ENDBRANCH  25  26
ENDBRANCH  21  25
ENDBRANCH  19  21
ENDBRANCH  18  19
ENDBRANCH  17  18
ENDBRANCH   2  17
TORSDOF 14
ENDMDL
MODEL 9
REMARK VINA RESULT:      -7.0      2.153      9.898
REMARK  Name = 
REMARK  20 active torsions:
REMARK  status: ('A' for Active; 'I' for Inactive)
REMARK    1  A    between atoms: C_1  and  C_2
REMARK    2  A    between atoms: C_2  and  C_3
REMARK    3  A    between atoms: C_2  and  C_4
REMARK    4  A    between atoms: C_4  and  O_5
REMARK    5  A    between atoms: C_4  and  C_13
REMARK    6  A    between atoms: O_5  and  C_6
REMARK    7  A    between atoms: C_6  and  C_7
REMARK    8  A    between atoms: C_13  and  C_14
REMARK    9  A    between atoms: C_13  and  C_15
REMARK   10  A    between atoms: N_16  and  O_17
REMARK   11  A    between atoms: O_17  and  C_18
REMARK   12  A    between atoms: C_18  and  C_19
REMARK   13  A    between atoms: C_19  and  C_20
REMARK   14  A    between atoms: C_19  and  C_21
REMARK   15  A    between atoms: C_21  and  O_22
REMARK   16  A    between atoms: C_21  and  C_30
REMARK   17  A    between atoms: O_22  and  C_23
REMARK   18  A    between atoms: C_23  and  C_24
REMARK   19  A    between atoms: C_30  and  C_31
REMARK   20  A    between atoms: C_30  and  C_32
REMARK                            x       y       z     vdW  Elec       q    Type
REMARK                         _______ _______ _______ _____ _____    ______ ____
ROOT
ATOM      1  C   UNL     1       1.379   8.742  19.367  0.00  0.00    +0.000 C 
ATOM      2  N   UNL     1       2.217   7.758  19.368  0.00  0.00    +0.000 NA
ENDROOT
BRANCH   1   3
ATOM      3  C   UNL     1       1.014   9.453  20.662  0.00  0.00    +0.000 C 
ATOM      4  C   UNL     1       0.006   8.496  21.291  0.00  0.00    +0.000 C 
BRANCH   3   5
ATOM      5  C   UNL     1       0.545  10.925  20.389  0.00  0.00    +0.000 C 
BRANCH   5   7
ATOM      6  C   UNL     1      -1.579  10.951  18.937  0.00  0.00    +0.000 C 
ATOM      7  C   UNL     1      -0.057  11.215  18.962  0.00  0.00    +0.000 C 
ATOM      8  C   UNL     1       0.161  12.623  18.402  0.00  0.00    +0.000 C 
ENDBRANCH   5   7
BRANCH   5   9
ATOM      9  O   UNL     1      -0.520  11.311  21.313  0.00  0.00    +0.000 OA
BRANCH   9  10
ATOM     10  C   UNL     1      -0.269  12.469  22.108  0.00  0.00    +0.000 C 
BRANCH  10  11
ATOM     11  C   UNL     1      -1.455  12.907  22.928  0.00  0.00    +0.000 A 
ATOM     12  C   UNL     1      -2.521  12.011  23.127  0.00  0.00    +0.000 A 
ATOM     13  C   UNL     1      -3.616  12.363  23.909  0.00  0.00    +0.000 A 
ATOM     14  C   UNL     1      -3.658  13.617  24.512  0.00  0.00    +0.000 A 
ATOM     15  C   UNL     1      -2.595  14.508  24.345  0.00  0.00    +0.000 A 
ATOM     16  C   UNL     1      -1.495  14.153  23.554  0.00  0.00    +0.000 A 
ENDBRANCH  10  11
ENDBRANCH   9  10
ENDBRANCH   5   9
ENDBRANCH   3   5
ENDBRANCH   1   3
BRANCH   2  17
ATOM     17  O   UNL     1       2.347   7.283  18.055  0.00  0.00    +0.000 OA
BRANCH  17  18
ATOM     18  C   UNL     1       3.613   7.714  17.537  0.00  0.00    +0.000 C 
BRANCH  18  19
ATOM     19  C   UNL     1       4.430   6.465  17.141  0.00  0.00    +0.000 C 
ATOM     20  C   UNL     1       4.908   6.641  15.695  0.00  0.00    +0.000 C 
BRANCH  19  21
ATOM     21  C   UNL     1       5.549   6.214  18.193  0.00  0.00    +0.000 C 
BRANCH  21  22
ATOM     22  C   UNL     1       7.047   6.310  17.751  0.00  0.00    +0.000 C 
ATOM     23  C   UNL     1       7.653   7.713  17.718  0.00  0.00    +0.000 C 
ATOM     24  C   UNL     1       7.923   5.443  18.676  0.00  0.00    +0.000 C 
ENDBRANCH  21  22
BRANCH  21  25
ATOM     25  O   UNL     1       5.318   4.940  18.864  0.00  0.00    +0.000 OA
BRANCH  25  26
ATOM     26  C   UNL     1       4.254   4.939  19.821  0.00  0.00    +0.000 C 
BRANCH  26  27
ATOM     27  C   UNL     1       3.099   4.035  19.466  0.00  0.00    +0.000 A 
ATOM     28  C   UNL     1       3.095   3.175  18.362  0.00  0.00    +0.000 A 
ATOM     29  C   UNL     1       1.964   2.401  18.072  0.00  0.00    +0.000 A 
ATOM     30  C   UNL     1       0.835   2.481  18.888  0.00  0.00    +0.000 A 
ATOM     31  C   UNL     1       0.834   3.314  20.000  0.00  0.00    +0.000 A 
ATOM     32  C   UNL     1       1.963   4.081  20.288  0.00  0.00    +0.000 A 
ENDBRANCH  26  27
ENDBRANCH  25  26
ENDBRANCH  21  25
ENDBRANCH  19  21
ENDBRANCH  18  19
ENDBRANCH  17  18
ENDBRANCH   2  17
TORSDOF 14
ENDMDL
