MODEL 1
REMARK VINA RESULT:      -6.9      0.000      0.000
REMARK  Name = 
REMARK  8 active torsions:
REMARK  status: ('A' for Active; 'I' for Inactive)
REMARK    1  A    between atoms: C_1  and  C_2
REMARK    2  A    between atoms: C_2  and  C_3
REMARK    3  A    between atoms: C_3  and  C_4
REMARK    4  A    between atoms: C_4  and  C_5
REMARK    5  A    between atoms: C_5  and  C_6
REMARK    6  A    between atoms: C_6  and  N_7
REMARK    7  A    between atoms: C_10  and  C_11
REMARK    8  A    between atoms: C_13  and  C_14
REMARK                            x       y       z     vdW  Elec       q    Type
REMARK                         _______ _______ _______ _____ _____    ______ ____
ROOT
ATOM      1  N   UNL     1       5.746   3.765  16.523  0.00  0.00    +0.000 N 
ATOM      2  C   UNL     1       4.752   4.391  17.260  0.00  0.00    +0.000 A 
ATOM      3  N   UNL     1       4.558   5.696  17.124  0.00  0.00    +0.000 NA
ATOM      4  C   UNL     1       3.568   6.217  17.835  0.00  0.00    +0.000 A 
ATOM      5  C   UNL     1       3.289   7.679  17.686  0.00  0.00    +0.000 C 
ATOM      6  N   UNL     1       2.786   5.524  18.659  0.00  0.00    +0.000 NA
ATOM      7  C   UNL     1       3.042   4.210  18.749  0.00  0.00    +0.000 A 
ATOM      8  N   UNL     1       4.031   3.611  18.057  0.00  0.00    +0.000 NA
ATOM      9  H   UNL     1       5.952   2.869  16.949  0.00  0.00    +0.000 HD
ENDROOT
BRANCH   7  10
ATOM     10  C   UNL     1       2.171   3.348  19.674  0.00  0.00    +0.000 C 
ATOM     11 CL   UNL     1       1.265   2.065  18.785  0.00  0.00    +0.000 Cl
ATOM     12 CL   UNL     1       3.190   2.526  20.906  0.00  0.00    +0.000 Cl
ATOM     13 CL   UNL     1       0.954   4.373  20.514  0.00  0.00    +0.000 Cl
ENDBRANCH   7  10
BRANCH   1  14
ATOM     14  C   UNL     1       6.882   4.594  16.164  0.00  0.00    +0.000 C 
BRANCH  14  15
ATOM     15  C   UNL     1       6.901   4.842  14.655  0.00  0.00    +0.000 C 
BRANCH  15  16
ATOM     16  C   UNL     1       5.925   3.930  13.907  0.00  0.00    +0.000 C 
BRANCH  16  17
ATOM     17  C   UNL     1       6.433   3.611  12.501  0.00  0.00    +0.000 C 
BRANCH  17  19
ATOM     18  C   UNL     1       6.194   1.440  11.256  0.00  0.00    +0.000 C 
ATOM     19  C   UNL     1       5.474   2.677  11.766  0.00  0.00    +0.000 C 
ENDBRANCH  17  19
ENDBRANCH  16  17
ENDBRANCH  15  16
ENDBRANCH  14  15
ENDBRANCH   1  14
TORSDOF 6
ENDMDL
MODEL 2
REMARK VINA RESULT:      -6.9      1.847      2.477
REMARK  Name = 
REMARK  8 active torsions:
REMARK  status: ('A' for Active; 'I' for Inactive)
REMARK    1  A    between atoms: C_1  and  C_2
REMARK    2  A    between atoms: C_2  and  C_3
REMARK    3  A    between atoms: C_3  and  C_4
REMARK    4  A    between atoms: C_4  and  C_5
REMARK    5  A    between atoms: C_5  and  C_6
REMARK    6  A    between atoms: C_6  and  N_7
REMARK    7  A    between atoms: C_10  and  C_11
REMARK    8  A    between atoms: C_13  and  C_14
REMARK                            x       y       z     vdW  Elec       q    Type
REMARK                         _______ _______ _______ _____ _____    ______ ____
ROOT
ATOM      1  N   UNL     1       5.377   4.670  14.841  0.00  0.00    +0.000 N 
ATOM      2  C   UNL     1       5.411   4.743  16.225  0.00  0.00    +0.000 A 
ATOM      3  N   UNL     1       6.518   5.145  16.835  0.00  0.00    +0.000 NA
ATOM      4  C   UNL     1       6.463   5.221  18.157  0.00  0.00    +0.000 A 
ATOM      5  C   UNL     1       7.677   5.706  18.885  0.00  0.00    +0.000 C 
ATOM      6  N   UNL     1       5.391   4.919  18.886  0.00  0.00    +0.000 NA
ATOM      7  C   UNL     1       4.309   4.517  18.202  0.00  0.00    +0.000 A 
ATOM      8  N   UNL     1       4.291   4.414  16.859  0.00  0.00    +0.000 NA
ATOM      9  H   UNL     1       4.598   4.085  14.564  0.00  0.00    +0.000 HD
ENDROOT
BRANCH   7  10
ATOM     10  C   UNL     1       3.033   4.161  18.980  0.00  0.00    +0.000 C 
ATOM     11 CL   UNL     1       1.577   4.048  17.919  0.00  0.00    +0.000 Cl
ATOM     12 CL   UNL     1       3.222   2.571  19.798  0.00  0.00    +0.000 Cl
ATOM     13 CL   UNL     1       2.692   5.418  20.220  0.00  0.00    +0.000 Cl
ENDBRANCH   7  10
BRANCH   1  14
ATOM     14  C   UNL     1       6.650   4.413  14.192  0.00  0.00    +0.000 C 
BRANCH  14  15
ATOM     15  C   UNL     1       6.426   3.766  12.825  0.00  0.00    +0.000 C 
BRANCH  15  16
ATOM     16  C   UNL     1       4.955   3.418  12.583  0.00  0.00    +0.000 C 
BRANCH  16  17
ATOM     17  C   UNL     1       4.707   3.047  11.122  0.00  0.00    +0.000 C 
BRANCH  17  19
ATOM     18  C   UNL     1       3.043   4.182   9.617  0.00  0.00    +0.000 C 
ATOM     19  C   UNL     1       3.232   3.195  10.757  0.00  0.00    +0.000 C 
ENDBRANCH  17  19
ENDBRANCH  16  17
ENDBRANCH  15  16
ENDBRANCH  14  15
ENDBRANCH   1  14
TORSDOF 6
ENDMDL
MODEL 3
REMARK VINA RESULT:      -6.8      1.813      2.979
REMARK  Name = 
REMARK  8 active torsions:
REMARK  status: ('A' for Active; 'I' for Inactive)
REMARK    1  A    between atoms: C_1  and  C_2
REMARK    2  A    between atoms: C_2  and  C_3
REMARK    3  A    between atoms: C_3  and  C_4
REMARK    4  A    between atoms: C_4  and  C_5
REMARK    5  A    between atoms: C_5  and  C_6
REMARK    6  A    between atoms: C_6  and  N_7
REMARK    7  A    between atoms: C_10  and  C_11
REMARK    8  A    between atoms: C_13  and  C_14
REMARK                            x       y       z     vdW  Elec       q    Type
REMARK                         _______ _______ _______ _____ _____    ______ ____
ROOT
ATOM      1  N   UNL     1       5.426   4.180  14.345  0.00  0.00    +0.000 N 
ATOM      2  C   UNL     1       5.466   4.238  15.730  0.00  0.00    +0.000 A 
ATOM      3  N   UNL     1       6.552   4.697  16.337  0.00  0.00    +0.000 NA
ATOM      4  C   UNL     1       6.503   4.753  17.660  0.00  0.00    +0.000 A 
ATOM      5  C   UNL     1       7.692   5.299  18.386  0.00  0.00    +0.000 C 
ATOM      6  N   UNL     1       5.456   4.381  18.392  0.00  0.00    +0.000 NA
ATOM      7  C   UNL     1       4.394   3.924  17.711  0.00  0.00    +0.000 A 
ATOM      8  N   UNL     1       4.371   3.838  16.367  0.00  0.00    +0.000 NA
ATOM      9  H   UNL     1       4.680   3.554  14.066  0.00  0.00    +0.000 HD
ENDROOT
BRANCH   7  10
ATOM     10  C   UNL     1       3.146   3.486  18.493  0.00  0.00    +0.000 C 
ATOM     11 CL   UNL     1       3.508   3.075  20.213  0.00  0.00    +0.000 Cl
ATOM     12 CL   UNL     1       1.920   4.800  18.504  0.00  0.00    +0.000 Cl
ATOM     13 CL   UNL     1       2.424   2.021  17.738  0.00  0.00    +0.000 Cl
ENDBRANCH   7  10
BRANCH   1  14
ATOM     14  C   UNL     1       6.707   4.006  13.684  0.00  0.00    +0.000 C 
BRANCH  14  15
ATOM     15  C   UNL     1       6.499   3.580  12.231  0.00  0.00    +0.000 C 
BRANCH  15  16
ATOM     16  C   UNL     1       5.138   2.915  12.011  0.00  0.00    +0.000 C 
BRANCH  16  17
ATOM     17  C   UNL     1       4.125   3.904  11.435  0.00  0.00    +0.000 C 
BRANCH  17  19
ATOM     18  C   UNL     1       2.742   4.354   9.384  0.00  0.00    +0.000 C 
ATOM     19  C   UNL     1       3.343   3.284  10.279  0.00  0.00    +0.000 C 
ENDBRANCH  17  19
ENDBRANCH  16  17
ENDBRANCH  15  16
ENDBRANCH  14  15
ENDBRANCH   1  14
TORSDOF 6
ENDMDL
MODEL 4
REMARK VINA RESULT:      -6.8      3.996      5.747
REMARK  Name = 
REMARK  8 active torsions:
REMARK  status: ('A' for Active; 'I' for Inactive)
REMARK    1  A    between atoms: C_1  and  C_2
REMARK    2  A    between atoms: C_2  and  C_3
REMARK    3  A    between atoms: C_3  and  C_4
REMARK    4  A    between atoms: C_4  and  C_5
REMARK    5  A    between atoms: C_5  and  C_6
REMARK    6  A    between atoms: C_6  and  N_7
REMARK    7  A    between atoms: C_10  and  C_11
REMARK    8  A    between atoms: C_13  and  C_14
REMARK                            x       y       z     vdW  Elec       q    Type
REMARK                         _______ _______ _______ _____ _____    ______ ____
ROOT
ATOM      1  N   UNL     1       3.100   5.003  20.668  0.00  0.00    +0.000 N 
ATOM      2  C   UNL     1       3.404   5.770  19.554  0.00  0.00    +0.000 A 
ATOM      3  N   UNL     1       2.587   6.748  19.187  0.00  0.00    +0.000 NA
ATOM      4  C   UNL     1       2.960   7.459  18.133  0.00  0.00    +0.000 A 
ATOM      5  C   UNL     1       2.088   8.596  17.705  0.00  0.00    +0.000 C 
ATOM      6  N   UNL     1       4.076   7.248  17.439  0.00  0.00    +0.000 NA
ATOM      7  C   UNL     1       4.853   6.241  17.865  0.00  0.00    +0.000 A 
ATOM      8  N   UNL     1       4.538   5.475  18.927  0.00  0.00    +0.000 NA
ATOM      9  H   UNL     1       3.643   4.148  20.633  0.00  0.00    +0.000 HD
ENDROOT
BRANCH   7  10
ATOM     10  C   UNL     1       6.161   5.947  17.115  0.00  0.00    +0.000 C 
ATOM     11 CL   UNL     1       5.901   5.619  15.359  0.00  0.00    +0.000 Cl
ATOM     12 CL   UNL     1       7.280   7.349  17.236  0.00  0.00    +0.000 Cl
ATOM     13 CL   UNL     1       6.965   4.497  17.814  0.00  0.00    +0.000 Cl
ENDBRANCH   7  10
BRANCH   1  14
ATOM     14  C   UNL     1       1.687   4.867  20.974  0.00  0.00    +0.000 C 
BRANCH  14  15
ATOM     15  C   UNL     1       1.293   3.390  21.006  0.00  0.00    +0.000 C 
BRANCH  15  16
ATOM     16  C   UNL     1       0.873   2.873  19.628  0.00  0.00    +0.000 C 
BRANCH  16  17
ATOM     17  C   UNL     1       1.965   2.002  19.007  0.00  0.00    +0.000 C 
BRANCH  17  19
ATOM     18  C   UNL     1       1.694   3.854  17.329  0.00  0.00    +0.000 C 
ATOM     19  C   UNL     1       2.457   2.591  17.687  0.00  0.00    +0.000 C 
ENDBRANCH  17  19
ENDBRANCH  16  17
ENDBRANCH  15  16
ENDBRANCH  14  15
ENDBRANCH   1  14
TORSDOF 6
ENDMDL
MODEL 5
REMARK VINA RESULT:      -6.7      0.625      1.437
REMARK  Name = 
REMARK  8 active torsions:
REMARK  status: ('A' for Active; 'I' for Inactive)
REMARK    1  A    between atoms: C_1  and  C_2
REMARK    2  A    between atoms: C_2  and  C_3
REMARK    3  A    between atoms: C_3  and  C_4
REMARK    4  A    between atoms: C_4  and  C_5
REMARK    5  A    between atoms: C_5  and  C_6
REMARK    6  A    between atoms: C_6  and  N_7
REMARK    7  A    between atoms: C_10  and  C_11
REMARK    8  A    between atoms: C_13  and  C_14
REMARK                            x       y       z     vdW  Elec       q    Type
REMARK                         _______ _______ _______ _____ _____    ______ ____
ROOT
ATOM      1  N   UNL     1       5.753   3.716  16.886  0.00  0.00    +0.000 N 
ATOM      2  C   UNL     1       4.711   4.356  17.540  0.00  0.00    +0.000 A 
ATOM      3  N   UNL     1       4.497   5.647  17.327  0.00  0.00    +0.000 NA
ATOM      4  C   UNL     1       3.463   6.180  17.962  0.00  0.00    +0.000 A 
ATOM      5  C   UNL     1       3.160   7.625  17.723  0.00  0.00    +0.000 C 
ATOM      6  N   UNL     1       2.655   5.512  18.782  0.00  0.00    +0.000 NA
ATOM      7  C   UNL     1       2.935   4.211  18.953  0.00  0.00    +0.000 A 
ATOM      8  N   UNL     1       3.969   3.600  18.342  0.00  0.00    +0.000 NA
ATOM      9  H   UNL     1       5.957   2.848  17.367  0.00  0.00    +0.000 HD
ENDROOT
BRANCH   7  10
ATOM     10  C   UNL     1       2.037   3.377  19.880  0.00  0.00    +0.000 C 
ATOM     11 CL   UNL     1       2.947   2.635  21.251  0.00  0.00    +0.000 Cl
ATOM     12 CL   UNL     1       0.745   4.404  20.590  0.00  0.00    +0.000 Cl
ATOM     13 CL   UNL     1       1.275   2.032  18.959  0.00  0.00    +0.000 Cl
ENDBRANCH   7  10
BRANCH   1  14
ATOM     14  C   UNL     1       6.888   4.552  16.538  0.00  0.00    +0.000 C 
BRANCH  14  15
ATOM     15  C   UNL     1       6.949   4.759  15.025  0.00  0.00    +0.000 C 
BRANCH  15  16
ATOM     16  C   UNL     1       6.267   3.623  14.257  0.00  0.00    +0.000 C 
BRANCH  16  17
ATOM     17  C   UNL     1       5.491   4.157  13.053  0.00  0.00    +0.000 C 
BRANCH  17  19
ATOM     18  C   UNL     1       4.096   3.187  11.201  0.00  0.00    +0.000 C 
ATOM     19  C   UNL     1       5.423   3.119  11.936  0.00  0.00    +0.000 C 
ENDBRANCH  17  19
ENDBRANCH  16  17
ENDBRANCH  15  16
ENDBRANCH  14  15
ENDBRANCH   1  14
TORSDOF 6
ENDMDL
MODEL 6
REMARK VINA RESULT:      -6.7      3.889      5.706
REMARK  Name = 
REMARK  8 active torsions:
REMARK  status: ('A' for Active; 'I' for Inactive)
REMARK    1  A    between atoms: C_1  and  C_2
REMARK    2  A    between atoms: C_2  and  C_3
REMARK    3  A    between atoms: C_3  and  C_4
REMARK    4  A    between atoms: C_4  and  C_5
REMARK    5  A    between atoms: C_5  and  C_6
REMARK    6  A    between atoms: C_6  and  N_7
REMARK    7  A    between atoms: C_10  and  C_11
REMARK    8  A    between atoms: C_13  and  C_14
REMARK                            x       y       z     vdW  Elec       q    Type
REMARK                         _______ _______ _______ _____ _____    ______ ____
ROOT
ATOM      1  N   UNL     1       2.890   5.135  20.599  0.00  0.00    +0.000 N 
ATOM      2  C   UNL     1       3.245   5.899  19.498  0.00  0.00    +0.000 A 
ATOM      3  N   UNL     1       2.484   6.924  19.138  0.00  0.00    +0.000 NA
ATOM      4  C   UNL     1       2.905   7.627  18.096  0.00  0.00    +0.000 A 
ATOM      5  C   UNL     1       2.099   8.814  17.677  0.00  0.00    +0.000 C 
ATOM      6  N   UNL     1       4.015   7.366  17.410  0.00  0.00    +0.000 NA
ATOM      7  C   UNL     1       4.733   6.313  17.829  0.00  0.00    +0.000 A 
ATOM      8  N   UNL     1       4.367   5.552  18.878  0.00  0.00    +0.000 NA
ATOM      9  H   UNL     1       3.387   4.253  20.558  0.00  0.00    +0.000 HD
ENDROOT
BRANCH   7  10
ATOM     10  C   UNL     1       6.031   5.960  17.087  0.00  0.00    +0.000 C 
ATOM     11 CL   UNL     1       7.282   7.254  17.214  0.00  0.00    +0.000 Cl
ATOM     12 CL   UNL     1       6.747   4.455  17.761  0.00  0.00    +0.000 Cl
ATOM     13 CL   UNL     1       5.697   5.714  15.336  0.00  0.00    +0.000 Cl
ENDBRANCH   7  10
BRANCH   1  14
ATOM     14  C   UNL     1       1.469   5.070  20.891  0.00  0.00    +0.000 C 
BRANCH  14  15
ATOM     15  C   UNL     1       0.856   3.818  20.263  0.00  0.00    +0.000 C 
BRANCH  15  16
ATOM     16  C   UNL     1       1.797   2.613  20.336  0.00  0.00    +0.000 C 
BRANCH  16  17
ATOM     17  C   UNL     1       1.813   1.843  19.016  0.00  0.00    +0.000 C 
BRANCH  17  19
ATOM     18  C   UNL     1       2.729   3.154  17.076  0.00  0.00    +0.000 C 
ATOM     19  C   UNL     1       3.056   2.180  18.195  0.00  0.00    +0.000 C 
ENDBRANCH  17  19
ENDBRANCH  16  17
ENDBRANCH  15  16
ENDBRANCH  14  15
ENDBRANCH   1  14
TORSDOF 6
ENDMDL
MODEL 7
REMARK VINA RESULT:      -6.7      1.827      2.519
REMARK  Name = 
REMARK  8 active torsions:
REMARK  status: ('A' for Active; 'I' for Inactive)
REMARK    1  A    between atoms: C_1  and  C_2
REMARK    2  A    between atoms: C_2  and  C_3
REMARK    3  A    between atoms: C_3  and  C_4
REMARK    4  A    between atoms: C_4  and  C_5
REMARK    5  A    between atoms: C_5  and  C_6
REMARK    6  A    between atoms: C_6  and  N_7
REMARK    7  A    between atoms: C_10  and  C_11
REMARK    8  A    between atoms: C_13  and  C_14
REMARK                            x       y       z     vdW  Elec       q    Type
REMARK                         _______ _______ _______ _____ _____    ______ ____
ROOT
ATOM      1  N   UNL     1       5.206   4.509  15.190  0.00  0.00    +0.000 N 
ATOM      2  C   UNL     1       5.197   4.656  16.568  0.00  0.00    +0.000 A 
ATOM      3  N   UNL     1       6.306   5.022  17.196  0.00  0.00    +0.000 NA
ATOM      4  C   UNL     1       6.212   5.175  18.509  0.00  0.00    +0.000 A 
ATOM      5  C   UNL     1       7.428   5.623  19.255  0.00  0.00    +0.000 C 
ATOM      6  N   UNL     1       5.098   4.981  19.212  0.00  0.00    +0.000 NA
ATOM      7  C   UNL     1       4.016   4.610  18.511  0.00  0.00    +0.000 A 
ATOM      8  N   UNL     1       4.037   4.434  17.176  0.00  0.00    +0.000 NA
ATOM      9  H   UNL     1       4.400   3.959  14.915  0.00  0.00    +0.000 HD
ENDROOT
BRANCH   7  10
ATOM     10  C   UNL     1       2.694   4.378  19.259  0.00  0.00    +0.000 C 
ATOM     11 CL   UNL     1       2.805   3.051  20.478  0.00  0.00    +0.000 Cl
ATOM     12 CL   UNL     1       2.201   5.868  20.134  0.00  0.00    +0.000 Cl
ATOM     13 CL   UNL     1       1.396   3.926  18.098  0.00  0.00    +0.000 Cl
ENDBRANCH   7  10
BRANCH   1  14
ATOM     14  C   UNL     1       6.481   4.137  14.603  0.00  0.00    +0.000 C 
BRANCH  14  15
ATOM     15  C   UNL     1       6.264   3.467  13.246  0.00  0.00    +0.000 C 
BRANCH  15  16
ATOM     16  C   UNL     1       4.876   3.759  12.671  0.00  0.00    +0.000 C 
BRANCH  16  17
ATOM     17  C   UNL     1       4.765   3.282  11.223  0.00  0.00    +0.000 C 
BRANCH  17  19
ATOM     18  C   UNL     1       2.990   4.004   9.595  0.00  0.00    +0.000 C 
ATOM     19  C   UNL     1       3.305   3.135  10.801  0.00  0.00    +0.000 C 
ENDBRANCH  17  19
ENDBRANCH  16  17
ENDBRANCH  15  16
ENDBRANCH  14  15
ENDBRANCH   1  14
TORSDOF 6
ENDMDL
MODEL 8
REMARK VINA RESULT:      -6.7      3.906      5.694
REMARK  Name = 
REMARK  8 active torsions:
REMARK  status: ('A' for Active; 'I' for Inactive)
REMARK    1  A    between atoms: C_1  and  C_2
REMARK    2  A    between atoms: C_2  and  C_3
REMARK    3  A    between atoms: C_3  and  C_4
REMARK    4  A    between atoms: C_4  and  C_5
REMARK    5  A    between atoms: C_5  and  C_6
REMARK    6  A    between atoms: C_6  and  N_7
REMARK    7  A    between atoms: C_10  and  C_11
REMARK    8  A    between atoms: C_13  and  C_14
REMARK                            x       y       z     vdW  Elec       q    Type
REMARK                         _______ _______ _______ _____ _____    ______ ____
ROOT
ATOM      1  N   UNL     1       2.951   5.130  20.570  0.00  0.00    +0.000 N 
ATOM      2  C   UNL     1       3.294   5.894  19.465  0.00  0.00    +0.000 A 
ATOM      3  N   UNL     1       2.525   6.914  19.108  0.00  0.00    +0.000 NA
ATOM      4  C   UNL     1       2.936   7.618  18.063  0.00  0.00    +0.000 A 
ATOM      5  C   UNL     1       2.120   8.800  17.647  0.00  0.00    +0.000 C 
ATOM      6  N   UNL     1       4.042   7.361  17.369  0.00  0.00    +0.000 NA
ATOM      7  C   UNL     1       4.768   6.313  17.785  0.00  0.00    +0.000 A 
ATOM      8  N   UNL     1       4.414   5.552  18.838  0.00  0.00    +0.000 NA
ATOM      9  H   UNL     1       3.452   4.251  20.527  0.00  0.00    +0.000 HD
ENDROOT
BRANCH   7  10
ATOM     10  C   UNL     1       6.063   5.966  17.034  0.00  0.00    +0.000 C 
ATOM     11 CL   UNL     1       6.833   4.448  17.636  0.00  0.00    +0.000 Cl
ATOM     12 CL   UNL     1       5.729   5.738  15.283  0.00  0.00    +0.000 Cl
ATOM     13 CL   UNL     1       7.268   7.287  17.231  0.00  0.00    +0.000 Cl
ENDBRANCH   7  10
BRANCH   1  14
ATOM     14  C   UNL     1       1.532   5.059  20.871  0.00  0.00    +0.000 C 
BRANCH  14  15
ATOM     15  C   UNL     1       0.977   3.688  20.485  0.00  0.00    +0.000 C 
BRANCH  15  16
ATOM     16  C   UNL     1       2.080   2.635  20.342  0.00  0.00    +0.000 C 
BRANCH  16  17
ATOM     17  C   UNL     1       1.946   1.868  19.027  0.00  0.00    +0.000 C 
BRANCH  17  19
ATOM     18  C   UNL     1       2.689   3.223  17.044  0.00  0.00    +0.000 C 
ATOM     19  C   UNL     1       3.100   2.190  18.080  0.00  0.00    +0.000 C 
ENDBRANCH  17  19
ENDBRANCH  16  17
ENDBRANCH  15  16
ENDBRANCH  14  15
ENDBRANCH   1  14
TORSDOF 6
ENDMDL
MODEL 9
REMARK VINA RESULT:      -6.7      2.052      3.019
REMARK  Name = 
REMARK  8 active torsions:
REMARK  status: ('A' for Active; 'I' for Inactive)
REMARK    1  A    between atoms: C_1  and  C_2
REMARK    2  A    between atoms: C_2  and  C_3
REMARK    3  A    between atoms: C_3  and  C_4
REMARK    4  A    between atoms: C_4  and  C_5
REMARK    5  A    between atoms: C_5  and  C_6
REMARK    6  A    between atoms: C_6  and  N_7
REMARK    7  A    between atoms: C_10  and  C_11
REMARK    8  A    between atoms: C_13  and  C_14
REMARK                            x       y       z     vdW  Elec       q    Type
REMARK                         _______ _______ _______ _____ _____    ______ ____
ROOT
ATOM      1  N   UNL     1       5.510   4.532  14.289  0.00  0.00    +0.000 N 
ATOM      2  C   UNL     1       5.549   5.092  15.557  0.00  0.00    +0.000 A 
ATOM      3  N   UNL     1       6.542   5.909  15.884  0.00  0.00    +0.000 NA
ATOM      4  C   UNL     1       6.493   6.432  17.101  0.00  0.00    +0.000 A 
ATOM      5  C   UNL     1       7.571   7.388  17.500  0.00  0.00    +0.000 C 
ATOM      6  N   UNL     1       5.533   6.184  17.989  0.00  0.00    +0.000 NA
ATOM      7  C   UNL     1       4.564   5.346  17.591  0.00  0.00    +0.000 A 
ATOM      8  N   UNL     1       4.548   4.777  16.370  0.00  0.00    +0.000 NA
ATOM      9  H   UNL     1       4.885   3.735  14.304  0.00  0.00    +0.000 HD
ENDROOT
BRANCH   7  10
ATOM     10  C   UNL     1       3.420   5.023  18.564  0.00  0.00    +0.000 C 
ATOM     11 CL   UNL     1       2.908   6.453  19.540  0.00  0.00    +0.000 Cl
ATOM     12 CL   UNL     1       1.975   4.448  17.662  0.00  0.00    +0.000 Cl
ATOM     13 CL   UNL     1       3.931   3.745  19.721  0.00  0.00    +0.000 Cl
ENDBRANCH   7  10
BRANCH   1  14
ATOM     14  C   UNL     1       6.797   4.340  13.645  0.00  0.00    +0.000 C 
BRANCH  14  15
ATOM     15  C   UNL     1       6.609   4.110  12.145  0.00  0.00    +0.000 C 
BRANCH  15  16
ATOM     16  C   UNL     1       5.597   3.000  11.852  0.00  0.00    +0.000 C 
BRANCH  16  17
ATOM     17  C   UNL     1       4.183   3.562  11.712  0.00  0.00    +0.000 C 
BRANCH  17  19
ATOM     18  C   UNL     1       3.050   4.073   9.526  0.00  0.00    +0.000 C 
ATOM     19  C   UNL     1       3.475   2.979  10.491  0.00  0.00    +0.000 C 
ENDBRANCH  17  19
ENDBRANCH  16  17
ENDBRANCH  15  16
ENDBRANCH  14  15
ENDBRANCH   1  14
TORSDOF 6
ENDMDL
