MODEL 1
REMARK VINA RESULT:      -9.2      0.000      0.000
REMARK  Name = 
REMARK  15 active torsions:
REMARK  status: ('A' for Active; 'I' for Inactive)
REMARK    1  A    between atoms: C_1  and  O_2
REMARK    2  A    between atoms: O_2  and  C_3
REMARK    3  A    between atoms: C_6  and  C_7
REMARK    4  A    between atoms: C_12  and  C_13
REMARK    5  A    between atoms: C_12  and  C_14
REMARK    6  A    between atoms: C_18  and  C_19
REMARK    7  A    between atoms: C_20  and  C_21
REMARK    8  A    between atoms: C_21  and  C_22
REMARK    9  A    between atoms: C_22  and  C_23
REMARK   10  A    between atoms: C_23  and  C_24
REMARK   11  A    between atoms: C_23  and  C_25
REMARK   12  A    between atoms: C_25  and  C_26
REMARK   13  A    between atoms: C_26  and  O_28
REMARK   14  A    between atoms: C_30  and  O_31
REMARK   15  A    between atoms: O_31  and  C_32
REMARK                            x       y       z     vdW  Elec       q    Type
REMARK                         _______ _______ _______ _____ _____    ______ ____
ROOT
ATOM      1  C   UNL     1       2.271   8.403  17.999  0.00  0.00    +0.000 C 
ATOM      2  C   UNL     1       2.687   7.366  18.747  0.00  0.00    +0.000 C 
ATOM      3  C   UNL     1       2.125   7.143  20.131  0.00  0.00    +0.000 C 
ATOM      4  C   UNL     1       1.482   5.770  20.242  0.00  0.00    +0.000 C 
ATOM      5  C   UNL     1       2.520   4.675  19.957  0.00  0.00    +0.000 C 
ATOM      6  C   UNL     1       2.046   3.239  20.393  0.00  0.00    +0.000 C 
ATOM      7  C   UNL     1       1.805   3.213  21.929  0.00  0.00    +0.000 C 
ATOM      8  C   UNL     1       0.715   2.767  19.771  0.00  0.00    +0.000 C 
ATOM      9  C   UNL     1       3.180   2.227  20.099  0.00  0.00    +0.000 C 
ATOM     10  C   UNL     1       3.785   2.341  18.704  0.00  0.00    +0.000 C 
ATOM     11  C   UNL     1       4.267   3.760  18.390  0.00  0.00    +0.000 C 
ATOM     12  C   UNL     1       3.141   4.826  18.504  0.00  0.00    +0.000 C 
ATOM     13  C   UNL     1       2.118   4.560  17.375  0.00  0.00    +0.000 C 
ATOM     14  C   UNL     1       3.742   6.322  18.338  0.00  0.00    +0.000 C 
ENDROOT
BRANCH   1  18
ATOM     15  C   UNL     1      -0.821  11.186  18.775  0.00  0.00    +0.000 A 
ATOM     16  C   UNL     1       0.373  11.225  19.524  0.00  0.00    +0.000 A 
ATOM     17  C   UNL     1       1.413  10.346  19.275  0.00  0.00    +0.000 A 
ATOM     18  C   UNL     1       1.217   9.334  18.352  0.00  0.00    +0.000 A 
ATOM     19  C   UNL     1       0.013   9.215  17.677  0.00  0.00    +0.000 A 
ATOM     20  C   UNL     1      -1.014  10.142  17.859  0.00  0.00    +0.000 A 
BRANCH  15  22
ATOM     21  C   UNL     1      -1.588  12.920  20.171  0.00  0.00    +0.000 C 
ATOM     22  O   UNL     1      -1.738  12.196  18.934  0.00  0.00    +0.000 OA
ENDBRANCH  15  22
BRANCH  20  23
ATOM     23  O   UNL     1      -2.030   9.830  17.007  0.00  0.00    +0.000 OA
ATOM     24  C   UNL     1      -3.355   9.738  17.469  0.00  0.00    +0.000 C 
ENDBRANCH  20  23
ENDBRANCH   1  18
BRANCH  14  25
ATOM     25  C   UNL     1       4.464   6.561  16.969  0.00  0.00    +0.000 C 
BRANCH  25  26
ATOM     26  C   UNL     1       5.958   7.011  17.036  0.00  0.00    +0.000 C 
BRANCH  26  27
ATOM     27  C   UNL     1       7.019   5.910  16.831  0.00  0.00    +0.000 C 
ATOM     28  C   UNL     1       7.577   5.452  18.175  0.00  0.00    +0.000 C 
BRANCH  27  29
ATOM     29  C   UNL     1       6.439   4.766  15.990  0.00  0.00    +0.000 C 
BRANCH  29  30
ATOM     30  C   UNL     1       6.970   4.682  14.582  0.00  0.00    +0.000 C 
ATOM     31  O   UNL     1       7.714   5.470  14.058  0.00  0.00    +0.000 OA
BRANCH  30  32
ATOM     32  O   UNL     1       6.476   3.594  13.906  0.00  0.00    +0.000 OA
ATOM     33  H   UNL     1       5.851   3.843  13.203  0.00  0.00    +0.000 HD
ENDBRANCH  30  32
ENDBRANCH  29  30
ENDBRANCH  27  29
ENDBRANCH  26  27
ENDBRANCH  25  26
ENDBRANCH  14  25
TORSDOF 9
ENDMDL
MODEL 2
REMARK VINA RESULT:      -9.1      1.155      1.855
REMARK  Name = 
REMARK  15 active torsions:
REMARK  status: ('A' for Active; 'I' for Inactive)
REMARK    1  A    between atoms: C_1  and  O_2
REMARK    2  A    between atoms: O_2  and  C_3
REMARK    3  A    between atoms: C_6  and  C_7
REMARK    4  A    between atoms: C_12  and  C_13
REMARK    5  A    between atoms: C_12  and  C_14
REMARK    6  A    between atoms: C_18  and  C_19
REMARK    7  A    between atoms: C_20  and  C_21
REMARK    8  A    between atoms: C_21  and  C_22
REMARK    9  A    between atoms: C_22  and  C_23
REMARK   10  A    between atoms: C_23  and  C_24
REMARK   11  A    between atoms: C_23  and  C_25
REMARK   12  A    between atoms: C_25  and  C_26
REMARK   13  A    between atoms: C_26  and  O_28
REMARK   14  A    between atoms: C_30  and  O_31
REMARK   15  A    between atoms: O_31  and  C_32
REMARK                            x       y       z     vdW  Elec       q    Type
REMARK                         _______ _______ _______ _____ _____    ______ ____
ROOT
ATOM      1  C   UNL     1       2.436   8.099  18.184  0.00  0.00    +0.000 C 
ATOM      2  C   UNL     1       2.791   6.979  18.837  0.00  0.00    +0.000 C 
ATOM      3  C   UNL     1       2.224   6.672  20.202  0.00  0.00    +0.000 C 
ATOM      4  C   UNL     1       1.498   5.337  20.202  0.00  0.00    +0.000 C 
ATOM      5  C   UNL     1       2.466   4.209  19.814  0.00  0.00    +0.000 C 
ATOM      6  C   UNL     1       1.907   2.772  20.132  0.00  0.00    +0.000 C 
ATOM      7  C   UNL     1       1.672   2.629  21.661  0.00  0.00    +0.000 C 
ATOM      8  C   UNL     1       0.546   2.437  19.485  0.00  0.00    +0.000 C 
ATOM      9  C   UNL     1       2.975   1.722  19.741  0.00  0.00    +0.000 C 
ATOM     10  C   UNL     1       3.579   1.918  18.354  0.00  0.00    +0.000 C 
ATOM     11  C   UNL     1       4.146   3.327  18.158  0.00  0.00    +0.000 C 
ATOM     12  C   UNL     1       3.088   4.446  18.373  0.00  0.00    +0.000 C 
ATOM     13  C   UNL     1       2.045   4.340  17.236  0.00  0.00    +0.000 C 
ATOM     14  C   UNL     1       3.779   5.911  18.330  0.00  0.00    +0.000 C 
ENDROOT
BRANCH   1  18
ATOM     15  C   UNL     1      -0.525  10.734  19.665  0.00  0.00    +0.000 A 
ATOM     16  C   UNL     1      -0.493  10.400  18.296  0.00  0.00    +0.000 A 
ATOM     17  C   UNL     1       0.445   9.519  17.786  0.00  0.00    +0.000 A 
ATOM     18  C   UNL     1       1.444   9.059  18.626  0.00  0.00    +0.000 A 
ATOM     19  C   UNL     1       1.492   9.456  19.953  0.00  0.00    +0.000 A 
ATOM     20  C   UNL     1       0.506  10.279  20.500  0.00  0.00    +0.000 A 
BRANCH  15  22
ATOM     21  C   UNL     1      -1.605  12.826  19.696  0.00  0.00    +0.000 C 
ATOM     22  O   UNL     1      -1.588  11.459  20.147  0.00  0.00    +0.000 OA
ENDBRANCH  15  22
BRANCH  20  23
ATOM     23  O   UNL     1       0.758  10.425  21.830  0.00  0.00    +0.000 OA
ATOM     24  C   UNL     1       1.056   9.311  22.633  0.00  0.00    +0.000 C 
ENDBRANCH  20  23
ENDBRANCH   1  18
BRANCH  14  25
ATOM     25  C   UNL     1       4.507   6.222  16.979  0.00  0.00    +0.000 C 
BRANCH  25  26
ATOM     26  C   UNL     1       5.867   6.983  17.077  0.00  0.00    +0.000 C 
BRANCH  26  27
ATOM     27  C   UNL     1       7.140   6.114  17.156  0.00  0.00    +0.000 C 
ATOM     28  C   UNL     1       7.647   6.041  18.593  0.00  0.00    +0.000 C 
BRANCH  27  29
ATOM     29  C   UNL     1       6.879   4.737  16.531  0.00  0.00    +0.000 C 
BRANCH  29  30
ATOM     30  C   UNL     1       7.063   4.674  15.036  0.00  0.00    +0.000 C 
ATOM     31  O   UNL     1       7.679   5.461  14.366  0.00  0.00    +0.000 OA
BRANCH  30  32
ATOM     32  O   UNL     1       6.401   3.610  14.478  0.00  0.00    +0.000 OA
ATOM     33  H   UNL     1       6.995   3.020  13.981  0.00  0.00    +0.000 HD
ENDBRANCH  30  32
ENDBRANCH  29  30
ENDBRANCH  27  29
ENDBRANCH  26  27
ENDBRANCH  25  26
ENDBRANCH  14  25
TORSDOF 9
ENDMDL
MODEL 3
REMARK VINA RESULT:      -9.0      0.873      1.780
REMARK  Name = 
REMARK  15 active torsions:
REMARK  status: ('A' for Active; 'I' for Inactive)
REMARK    1  A    between atoms: C_1  and  O_2
REMARK    2  A    between atoms: O_2  and  C_3
REMARK    3  A    between atoms: C_6  and  C_7
REMARK    4  A    between atoms: C_12  and  C_13
REMARK    5  A    between atoms: C_12  and  C_14
REMARK    6  A    between atoms: C_18  and  C_19
REMARK    7  A    between atoms: C_20  and  C_21
REMARK    8  A    between atoms: C_21  and  C_22
REMARK    9  A    between atoms: C_22  and  C_23
REMARK   10  A    between atoms: C_23  and  C_24
REMARK   11  A    between atoms: C_23  and  C_25
REMARK   12  A    between atoms: C_25  and  C_26
REMARK   13  A    between atoms: C_26  and  O_28
REMARK   14  A    between atoms: C_30  and  O_31
REMARK   15  A    between atoms: O_31  and  C_32
REMARK                            x       y       z     vdW  Elec       q    Type
REMARK                         _______ _______ _______ _____ _____    ______ ____
ROOT
ATOM      1  C   UNL     1       2.400   8.337  17.896  0.00  0.00    +0.000 C 
ATOM      2  C   UNL     1       2.801   7.311  18.666  0.00  0.00    +0.000 C 
ATOM      3  C   UNL     1       2.229   7.120  20.050  0.00  0.00    +0.000 C 
ATOM      4  C   UNL     1       1.571   5.756  20.184  0.00  0.00    +0.000 C 
ATOM      5  C   UNL     1       2.599   4.645  19.926  0.00  0.00    +0.000 C 
ATOM      6  C   UNL     1       2.108   3.223  20.387  0.00  0.00    +0.000 C 
ATOM      7  C   UNL     1       1.857   3.229  21.921  0.00  0.00    +0.000 C 
ATOM      8  C   UNL     1       0.776   2.753  19.766  0.00  0.00    +0.000 C 
ATOM      9  C   UNL     1       3.233   2.194  20.120  0.00  0.00    +0.000 C 
ATOM     10  C   UNL     1       3.848   2.274  18.727  0.00  0.00    +0.000 C 
ATOM     11  C   UNL     1       4.346   3.683  18.389  0.00  0.00    +0.000 C 
ATOM     12  C   UNL     1       3.231   4.762  18.475  0.00  0.00    +0.000 C 
ATOM     13  C   UNL     1       2.212   4.485  17.344  0.00  0.00    +0.000 C 
ATOM     14  C   UNL     1       3.848   6.248  18.284  0.00  0.00    +0.000 C 
ENDROOT
BRANCH   1  18
ATOM     15  C   UNL     1      -0.624  11.039  19.106  0.00  0.00    +0.000 A 
ATOM     16  C   UNL     1      -0.865  10.126  18.059  0.00  0.00    +0.000 A 
ATOM     17  C   UNL     1       0.094   9.212  17.659  0.00  0.00    +0.000 A 
ATOM     18  C   UNL     1       1.355   9.286  18.224  0.00  0.00    +0.000 A 
ATOM     19  C   UNL     1       1.645  10.243  19.184  0.00  0.00    +0.000 A 
ATOM     20  C   UNL     1       0.665  11.118  19.654  0.00  0.00    +0.000 A 
BRANCH  15  22
ATOM     21  C   UNL     1      -2.839  11.750  18.748  0.00  0.00    +0.000 C 
ATOM     22  O   UNL     1      -1.669  11.790  19.586  0.00  0.00    +0.000 OA
ENDBRANCH  15  22
BRANCH  20  23
ATOM     23  O   UNL     1       1.206  11.876  20.648  0.00  0.00    +0.000 OA
ATOM     24  C   UNL     1       1.203  13.279  20.566  0.00  0.00    +0.000 C 
ENDBRANCH  20  23
ENDBRANCH   1  18
BRANCH  14  25
ATOM     25  C   UNL     1       4.581   6.453  16.916  0.00  0.00    +0.000 C 
BRANCH  25  26
ATOM     26  C   UNL     1       6.035   7.019  16.979  0.00  0.00    +0.000 C 
BRANCH  26  27
ATOM     27  C   UNL     1       7.172   5.985  17.116  0.00  0.00    +0.000 C 
ATOM     28  C   UNL     1       7.532   5.781  18.584  0.00  0.00    +0.000 C 
BRANCH  27  29
ATOM     29  C   UNL     1       6.794   4.685  16.395  0.00  0.00    +0.000 C 
BRANCH  29  30
ATOM     30  C   UNL     1       7.075   4.676  14.914  0.00  0.00    +0.000 C 
ATOM     31  O   UNL     1       7.753   5.472  14.319  0.00  0.00    +0.000 OA
BRANCH  30  32
ATOM     32  O   UNL     1       6.428   3.652  14.270  0.00  0.00    +0.000 OA
ATOM     33  H   UNL     1       6.703   3.561  13.341  0.00  0.00    +0.000 HD
ENDBRANCH  30  32
ENDBRANCH  29  30
ENDBRANCH  27  29
ENDBRANCH  26  27
ENDBRANCH  25  26
ENDBRANCH  14  25
TORSDOF 9
ENDMDL
MODEL 4
REMARK VINA RESULT:      -9.0      1.828      2.586
REMARK  Name = 
REMARK  15 active torsions:
REMARK  status: ('A' for Active; 'I' for Inactive)
REMARK    1  A    between atoms: C_1  and  O_2
REMARK    2  A    between atoms: O_2  and  C_3
REMARK    3  A    between atoms: C_6  and  C_7
REMARK    4  A    between atoms: C_12  and  C_13
REMARK    5  A    between atoms: C_12  and  C_14
REMARK    6  A    between atoms: C_18  and  C_19
REMARK    7  A    between atoms: C_20  and  C_21
REMARK    8  A    between atoms: C_21  and  C_22
REMARK    9  A    between atoms: C_22  and  C_23
REMARK   10  A    between atoms: C_23  and  C_24
REMARK   11  A    between atoms: C_23  and  C_25
REMARK   12  A    between atoms: C_25  and  C_26
REMARK   13  A    between atoms: C_26  and  O_28
REMARK   14  A    between atoms: C_30  and  O_31
REMARK   15  A    between atoms: O_31  and  C_32
REMARK                            x       y       z     vdW  Elec       q    Type
REMARK                         _______ _______ _______ _____ _____    ______ ____
ROOT
ATOM      1  C   UNL     1       2.293   8.254  18.222  0.00  0.00    +0.000 C 
ATOM      2  C   UNL     1       2.694   7.136  18.852  0.00  0.00    +0.000 C 
ATOM      3  C   UNL     1       2.199   6.819  20.243  0.00  0.00    +0.000 C 
ATOM      4  C   UNL     1       1.490   5.475  20.275  0.00  0.00    +0.000 C 
ATOM      5  C   UNL     1       2.451   4.360  19.835  0.00  0.00    +0.000 C 
ATOM      6  C   UNL     1       1.925   2.916  20.175  0.00  0.00    +0.000 C 
ATOM      7  C   UNL     1       1.769   2.766  21.714  0.00  0.00    +0.000 C 
ATOM      8  C   UNL     1       0.538   2.566  19.596  0.00  0.00    +0.000 C 
ATOM      9  C   UNL     1       2.985   1.880  19.728  0.00  0.00    +0.000 C 
ATOM     10  C   UNL     1       3.517   2.087  18.314  0.00  0.00    +0.000 C 
ATOM     11  C   UNL     1       4.056   3.504  18.094  0.00  0.00    +0.000 C 
ATOM     12  C   UNL     1       2.997   4.608  18.366  0.00  0.00    +0.000 C 
ATOM     13  C   UNL     1       1.900   4.493  17.281  0.00  0.00    +0.000 C 
ATOM     14  C   UNL     1       3.667   6.082  18.293  0.00  0.00    +0.000 C 
ENDROOT
BRANCH   1  18
ATOM     15  C   UNL     1      -0.629  10.845  19.851  0.00  0.00    +0.000 A 
ATOM     16  C   UNL     1      -0.633  10.549  18.473  0.00  0.00    +0.000 A 
ATOM     17  C   UNL     1       0.292   9.684  17.915  0.00  0.00    +0.000 A 
ATOM     18  C   UNL     1       1.312   9.201  18.716  0.00  0.00    +0.000 A 
ATOM     19  C   UNL     1       1.395   9.560  20.052  0.00  0.00    +0.000 A 
ATOM     20  C   UNL     1       0.423  10.366  20.646  0.00  0.00    +0.000 A 
BRANCH  15  22
ATOM     21  C   UNL     1      -1.580  12.975  20.166  0.00  0.00    +0.000 C 
ATOM     22  O   UNL     1      -1.679  11.555  20.381  0.00  0.00    +0.000 OA
ENDBRANCH  15  22
BRANCH  20  23
ATOM     23  O   UNL     1       0.708  10.476  21.973  0.00  0.00    +0.000 OA
ATOM     24  C   UNL     1       0.012   9.709  22.925  0.00  0.00    +0.000 C 
ENDBRANCH  20  23
ENDBRANCH   1  18
BRANCH  14  25
ATOM     25  C   UNL     1       4.323   6.406  16.908  0.00  0.00    +0.000 C 
BRANCH  25  26
ATOM     26  C   UNL     1       5.884   6.375  16.850  0.00  0.00    +0.000 C 
BRANCH  26  27
ATOM     27  C   UNL     1       6.540   4.988  16.693  0.00  0.00    +0.000 C 
ATOM     28  C   UNL     1       6.968   4.761  15.246  0.00  0.00    +0.000 C 
BRANCH  27  29
ATOM     29  C   UNL     1       7.688   4.829  17.699  0.00  0.00    +0.000 C 
BRANCH  29  30
ATOM     30  C   UNL     1       7.498   5.567  18.999  0.00  0.00    +0.000 C 
ATOM     31  O   UNL     1       6.694   5.300  19.853  0.00  0.00    +0.000 OA
BRANCH  30  32
ATOM     32  O   UNL     1       8.339   6.646  19.109  0.00  0.00    +0.000 OA
ATOM     33  H   UNL     1       8.506   6.897  20.035  0.00  0.00    +0.000 HD
ENDBRANCH  30  32
ENDBRANCH  29  30
ENDBRANCH  27  29
ENDBRANCH  26  27
ENDBRANCH  25  26
ENDBRANCH  14  25
TORSDOF 9
ENDMDL
MODEL 5
REMARK VINA RESULT:      -8.9      1.489      1.793
REMARK  Name = 
REMARK  15 active torsions:
REMARK  status: ('A' for Active; 'I' for Inactive)
REMARK    1  A    between atoms: C_1  and  O_2
REMARK    2  A    between atoms: O_2  and  C_3
REMARK    3  A    between atoms: C_6  and  C_7
REMARK    4  A    between atoms: C_12  and  C_13
REMARK    5  A    between atoms: C_12  and  C_14
REMARK    6  A    between atoms: C_18  and  C_19
REMARK    7  A    between atoms: C_20  and  C_21
REMARK    8  A    between atoms: C_21  and  C_22
REMARK    9  A    between atoms: C_22  and  C_23
REMARK   10  A    between atoms: C_23  and  C_24
REMARK   11  A    between atoms: C_23  and  C_25
REMARK   12  A    between atoms: C_25  and  C_26
REMARK   13  A    between atoms: C_26  and  O_28
REMARK   14  A    between atoms: C_30  and  O_31
REMARK   15  A    between atoms: O_31  and  C_32
REMARK                            x       y       z     vdW  Elec       q    Type
REMARK                         _______ _______ _______ _____ _____    ______ ____
ROOT
ATOM      1  C   UNL     1       2.321   8.447  17.733  0.00  0.00    +0.000 C 
ATOM      2  C   UNL     1       2.747   7.422  18.491  0.00  0.00    +0.000 C 
ATOM      3  C   UNL     1       2.281   7.277  19.920  0.00  0.00    +0.000 C 
ATOM      4  C   UNL     1       1.590   5.940  20.134  0.00  0.00    +0.000 C 
ATOM      5  C   UNL     1       2.556   4.789  19.820  0.00  0.00    +0.000 C 
ATOM      6  C   UNL     1       2.055   3.394  20.349  0.00  0.00    +0.000 C 
ATOM      7  C   UNL     1       1.928   3.437  21.898  0.00  0.00    +0.000 C 
ATOM      8  C   UNL     1       0.663   2.960  19.845  0.00  0.00    +0.000 C 
ATOM      9  C   UNL     1       3.120   2.320  20.016  0.00  0.00    +0.000 C 
ATOM     10  C   UNL     1       3.625   2.353  18.577  0.00  0.00    +0.000 C 
ATOM     11  C   UNL     1       4.141   3.737  18.170  0.00  0.00    +0.000 C 
ATOM     12  C   UNL     1       3.074   4.856  18.321  0.00  0.00    +0.000 C 
ATOM     13  C   UNL     1       1.959   4.594  17.281  0.00  0.00    +0.000 C 
ATOM     14  C   UNL     1       3.724   6.316  18.050  0.00  0.00    +0.000 C 
ENDROOT
BRANCH   1  18
ATOM     15  C   UNL     1      -0.620  11.358  18.618  0.00  0.00    +0.000 A 
ATOM     16  C   UNL     1       0.700  11.518  19.085  0.00  0.00    +0.000 A 
ATOM     17  C   UNL     1       1.691  10.598  18.789  0.00  0.00    +0.000 A 
ATOM     18  C   UNL     1       1.338   9.438  18.123  0.00  0.00    +0.000 A 
ATOM     19  C   UNL     1       0.024   9.212  17.743  0.00  0.00    +0.000 A 
ATOM     20  C   UNL     1      -0.969  10.168  17.963  0.00  0.00    +0.000 A 
BRANCH  15  22
ATOM     21  C   UNL     1      -2.269  12.312  20.002  0.00  0.00    +0.000 C 
ATOM     22  O   UNL     1      -1.512  12.390  18.779  0.00  0.00    +0.000 OA
ENDBRANCH  15  22
BRANCH  20  23
ATOM     23  O   UNL     1      -2.129   9.718  17.408  0.00  0.00    +0.000 OA
ATOM     24  C   UNL     1      -2.516  10.126  16.119  0.00  0.00    +0.000 C 
ENDBRANCH  20  23
ENDBRANCH   1  18
BRANCH  14  25
ATOM     25  C   UNL     1       4.351   6.469  16.624  0.00  0.00    +0.000 C 
BRANCH  25  26
ATOM     26  C   UNL     1       5.901   6.309  16.522  0.00  0.00    +0.000 C 
BRANCH  26  27
ATOM     27  C   UNL     1       6.454   4.872  16.615  0.00  0.00    +0.000 C 
ATOM     28  C   UNL     1       6.743   4.321  15.221  0.00  0.00    +0.000 C 
BRANCH  27  29
ATOM     29  C   UNL     1       7.670   4.832  17.549  0.00  0.00    +0.000 C 
BRANCH  29  30
ATOM     30  C   UNL     1       7.600   5.778  18.721  0.00  0.00    +0.000 C 
ATOM     31  O   UNL     1       8.165   6.837  18.808  0.00  0.00    +0.000 OA
BRANCH  30  32
ATOM     32  O   UNL     1       6.829   5.283  19.742  0.00  0.00    +0.000 OA
ATOM     33  H   UNL     1       6.008   4.870  19.424  0.00  0.00    +0.000 HD
ENDBRANCH  30  32
ENDBRANCH  29  30
ENDBRANCH  27  29
ENDBRANCH  26  27
ENDBRANCH  25  26
ENDBRANCH  14  25
TORSDOF 9
ENDMDL
MODEL 6
REMARK VINA RESULT:      -8.8      1.692      2.543
REMARK  Name = 
REMARK  15 active torsions:
REMARK  status: ('A' for Active; 'I' for Inactive)
REMARK    1  A    between atoms: C_1  and  O_2
REMARK    2  A    between atoms: O_2  and  C_3
REMARK    3  A    between atoms: C_6  and  C_7
REMARK    4  A    between atoms: C_12  and  C_13
REMARK    5  A    between atoms: C_12  and  C_14
REMARK    6  A    between atoms: C_18  and  C_19
REMARK    7  A    between atoms: C_20  and  C_21
REMARK    8  A    between atoms: C_21  and  C_22
REMARK    9  A    between atoms: C_22  and  C_23
REMARK   10  A    between atoms: C_23  and  C_24
REMARK   11  A    between atoms: C_23  and  C_25
REMARK   12  A    between atoms: C_25  and  C_26
REMARK   13  A    between atoms: C_26  and  O_28
REMARK   14  A    between atoms: C_30  and  O_31
REMARK   15  A    between atoms: O_31  and  C_32
REMARK                            x       y       z     vdW  Elec       q    Type
REMARK                         _______ _______ _______ _____ _____    ______ ____
ROOT
ATOM      1  C   UNL     1       2.421   8.434  17.667  0.00  0.00    +0.000 C 
ATOM      2  C   UNL     1       2.820   7.422  18.457  0.00  0.00    +0.000 C 
ATOM      3  C   UNL     1       2.312   7.306  19.874  0.00  0.00    +0.000 C 
ATOM      4  C   UNL     1       1.608   5.977  20.094  0.00  0.00    +0.000 C 
ATOM      5  C   UNL     1       2.578   4.816  19.831  0.00  0.00    +0.000 C 
ATOM      6  C   UNL     1       2.055   3.433  20.372  0.00  0.00    +0.000 C 
ATOM      7  C   UNL     1       1.883   3.508  21.915  0.00  0.00    +0.000 C 
ATOM      8  C   UNL     1       0.676   2.995  19.836  0.00  0.00    +0.000 C 
ATOM      9  C   UNL     1       3.124   2.349  20.090  0.00  0.00    +0.000 C 
ATOM     10  C   UNL     1       3.670   2.352  18.666  0.00  0.00    +0.000 C 
ATOM     11  C   UNL     1       4.205   3.725  18.248  0.00  0.00    +0.000 C 
ATOM     12  C   UNL     1       3.139   4.852  18.346  0.00  0.00    +0.000 C 
ATOM     13  C   UNL     1       2.054   4.574  17.280  0.00  0.00    +0.000 C 
ATOM     14  C   UNL     1       3.804   6.303  18.067  0.00  0.00    +0.000 C 
ENDROOT
BRANCH   1  18
ATOM     15  C   UNL     1      -0.358  11.376  18.902  0.00  0.00    +0.000 A 
ATOM     16  C   UNL     1      -0.809  10.177  18.314  0.00  0.00    +0.000 A 
ATOM     17  C   UNL     1       0.073   9.184  17.925  0.00  0.00    +0.000 A 
ATOM     18  C   UNL     1       1.431   9.436  18.009  0.00  0.00    +0.000 A 
ATOM     19  C   UNL     1       1.898  10.650  18.489  0.00  0.00    +0.000 A 
ATOM     20  C   UNL     1       1.021  11.628  18.960  0.00  0.00    +0.000 A 
BRANCH  15  22
ATOM     21  C   UNL     1      -1.488  12.055  20.852  0.00  0.00    +0.000 C 
ATOM     22  O   UNL     1      -1.281  12.240  19.439  0.00  0.00    +0.000 OA
ENDBRANCH  15  22
BRANCH  20  23
ATOM     23  O   UNL     1       1.756  12.664  19.451  0.00  0.00    +0.000 OA
ATOM     24  C   UNL     1       1.564  13.973  18.974  0.00  0.00    +0.000 C 
ENDBRANCH  20  23
ENDBRANCH   1  18
BRANCH  14  25
ATOM     25  C   UNL     1       4.473   6.426  16.656  0.00  0.00    +0.000 C 
BRANCH  25  26
ATOM     26  C   UNL     1       6.032   6.340  16.613  0.00  0.00    +0.000 C 
BRANCH  26  27
ATOM     27  C   UNL     1       6.645   4.924  16.601  0.00  0.00    +0.000 C 
ATOM     28  C   UNL     1       7.090   4.549  15.191  0.00  0.00    +0.000 C 
BRANCH  27  29
ATOM     29  C   UNL     1       7.768   4.825  17.641  0.00  0.00    +0.000 C 
BRANCH  29  30
ATOM     30  C   UNL     1       7.537   5.619  18.902  0.00  0.00    +0.000 C 
ATOM     31  O   UNL     1       6.793   5.319  19.799  0.00  0.00    +0.000 OA
BRANCH  30  32
ATOM     32  O   UNL     1       8.256   6.787  18.918  0.00  0.00    +0.000 OA
ATOM     33  H   UNL     1       9.173   6.658  19.217  0.00  0.00    +0.000 HD
ENDBRANCH  30  32
ENDBRANCH  29  30
ENDBRANCH  27  29
ENDBRANCH  26  27
ENDBRANCH  25  26
ENDBRANCH  14  25
TORSDOF 9
ENDMDL
MODEL 7
REMARK VINA RESULT:      -8.6      1.671      1.968
REMARK  Name = 
REMARK  15 active torsions:
REMARK  status: ('A' for Active; 'I' for Inactive)
REMARK    1  A    between atoms: C_1  and  O_2
REMARK    2  A    between atoms: O_2  and  C_3
REMARK    3  A    between atoms: C_6  and  C_7
REMARK    4  A    between atoms: C_12  and  C_13
REMARK    5  A    between atoms: C_12  and  C_14
REMARK    6  A    between atoms: C_18  and  C_19
REMARK    7  A    between atoms: C_20  and  C_21
REMARK    8  A    between atoms: C_21  and  C_22
REMARK    9  A    between atoms: C_22  and  C_23
REMARK   10  A    between atoms: C_23  and  C_24
REMARK   11  A    between atoms: C_23  and  C_25
REMARK   12  A    between atoms: C_25  and  C_26
REMARK   13  A    between atoms: C_26  and  O_28
REMARK   14  A    between atoms: C_30  and  O_31
REMARK   15  A    between atoms: O_31  and  C_32
REMARK                            x       y       z     vdW  Elec       q    Type
REMARK                         _______ _______ _______ _____ _____    ______ ____
ROOT
ATOM      1  C   UNL     1       2.453   8.335  17.753  0.00  0.00    +0.000 C 
ATOM      2  C   UNL     1       2.849   7.288  18.497  0.00  0.00    +0.000 C 
ATOM      3  C   UNL     1       2.359   7.124  19.915  0.00  0.00    +0.000 C 
ATOM      4  C   UNL     1       1.641   5.796  20.093  0.00  0.00    +0.000 C 
ATOM      5  C   UNL     1       2.593   4.634  19.771  0.00  0.00    +0.000 C 
ATOM      6  C   UNL     1       2.060   3.238  20.265  0.00  0.00    +0.000 C 
ATOM      7  C   UNL     1       1.909   3.253  21.812  0.00  0.00    +0.000 C 
ATOM      8  C   UNL     1       0.668   2.838  19.731  0.00  0.00    +0.000 C 
ATOM      9  C   UNL     1       3.111   2.153  19.927  0.00  0.00    +0.000 C 
ATOM     10  C   UNL     1       3.638   2.204  18.496  0.00  0.00    +0.000 C 
ATOM     11  C   UNL     1       4.185   3.586  18.125  0.00  0.00    +0.000 C 
ATOM     12  C   UNL     1       3.135   4.721  18.282  0.00  0.00    +0.000 C 
ATOM     13  C   UNL     1       2.032   4.499  17.220  0.00  0.00    +0.000 C 
ATOM     14  C   UNL     1       3.814   6.174  18.049  0.00  0.00    +0.000 C 
ENDROOT
BRANCH   1  18
ATOM     15  C   UNL     1      -0.444  11.287  18.649  0.00  0.00    +0.000 A 
ATOM     16  C   UNL     1       0.858  11.387  19.178  0.00  0.00    +0.000 A 
ATOM     17  C   UNL     1       1.836  10.453  18.881  0.00  0.00    +0.000 A 
ATOM     18  C   UNL     1       1.480   9.336  18.147  0.00  0.00    +0.000 A 
ATOM     19  C   UNL     1       0.179   9.165  17.701  0.00  0.00    +0.000 A 
ATOM     20  C   UNL     1      -0.796  10.138  17.924  0.00  0.00    +0.000 A 
BRANCH  15  22
ATOM     21  C   UNL     1      -0.671  13.625  18.804  0.00  0.00    +0.000 C 
ATOM     22  O   UNL     1      -1.314  12.336  18.821  0.00  0.00    +0.000 OA
ENDBRANCH  15  22
BRANCH  20  23
ATOM     23  O   UNL     1      -1.943   9.748  17.301  0.00  0.00    +0.000 OA
ATOM     24  C   UNL     1      -2.462  10.486  16.223  0.00  0.00    +0.000 C 
ENDBRANCH  20  23
ENDBRANCH   1  18
BRANCH  14  25
ATOM     25  C   UNL     1       4.466   6.344  16.636  0.00  0.00    +0.000 C 
BRANCH  25  26
ATOM     26  C   UNL     1       5.700   5.440  16.322  0.00  0.00    +0.000 C 
BRANCH  26  27
ATOM     27  C   UNL     1       7.069   5.945  16.822  0.00  0.00    +0.000 C 
ATOM     28  C   UNL     1       6.953   7.376  17.337  0.00  0.00    +0.000 C 
BRANCH  27  29
ATOM     29  C   UNL     1       7.647   4.971  17.857  0.00  0.00    +0.000 C 
BRANCH  29  30
ATOM     30  C   UNL     1       7.368   5.333  19.294  0.00  0.00    +0.000 C 
ATOM     31  O   UNL     1       6.284   5.548  19.770  0.00  0.00    +0.000 OA
BRANCH  30  32
ATOM     32  O   UNL     1       8.518   5.436  20.035  0.00  0.00    +0.000 OA
ATOM     33  H   UNL     1       8.599   4.731  20.700  0.00  0.00    +0.000 HD
ENDBRANCH  30  32
ENDBRANCH  29  30
ENDBRANCH  27  29
ENDBRANCH  26  27
ENDBRANCH  25  26
ENDBRANCH  14  25
TORSDOF 9
ENDMDL
MODEL 8
REMARK VINA RESULT:      -8.6      1.348      1.729
REMARK  Name = 
REMARK  15 active torsions:
REMARK  status: ('A' for Active; 'I' for Inactive)
REMARK    1  A    between atoms: C_1  and  O_2
REMARK    2  A    between atoms: O_2  and  C_3
REMARK    3  A    between atoms: C_6  and  C_7
REMARK    4  A    between atoms: C_12  and  C_13
REMARK    5  A    between atoms: C_12  and  C_14
REMARK    6  A    between atoms: C_18  and  C_19
REMARK    7  A    between atoms: C_20  and  C_21
REMARK    8  A    between atoms: C_21  and  C_22
REMARK    9  A    between atoms: C_22  and  C_23
REMARK   10  A    between atoms: C_23  and  C_24
REMARK   11  A    between atoms: C_23  and  C_25
REMARK   12  A    between atoms: C_25  and  C_26
REMARK   13  A    between atoms: C_26  and  O_28
REMARK   14  A    between atoms: C_30  and  O_31
REMARK   15  A    between atoms: O_31  and  C_32
REMARK                            x       y       z     vdW  Elec       q    Type
REMARK                         _______ _______ _______ _____ _____    ______ ____
ROOT
ATOM      1  C   UNL     1       2.223   8.311  18.659  0.00  0.00    +0.000 C 
ATOM      2  C   UNL     1       2.636   7.139  19.173  0.00  0.00    +0.000 C 
ATOM      3  C   UNL     1       2.170   6.691  20.537  0.00  0.00    +0.000 C 
ATOM      4  C   UNL     1       1.461   5.349  20.456  0.00  0.00    +0.000 C 
ATOM      5  C   UNL     1       2.412   4.282  19.893  0.00  0.00    +0.000 C 
ATOM      6  C   UNL     1       1.893   2.811  20.105  0.00  0.00    +0.000 C 
ATOM      7  C   UNL     1       1.768   2.516  21.626  0.00  0.00    +0.000 C 
ATOM      8  C   UNL     1       0.494   2.516  19.524  0.00  0.00    +0.000 C 
ATOM      9  C   UNL     1       2.943   1.824  19.540  0.00  0.00    +0.000 C 
ATOM     10  C   UNL     1       3.446   2.165  18.142  0.00  0.00    +0.000 C 
ATOM     11  C   UNL     1       3.981   3.597  18.046  0.00  0.00    +0.000 C 
ATOM     12  C   UNL     1       2.928   4.669  18.443  0.00  0.00    +0.000 C 
ATOM     13  C   UNL     1       1.809   4.656  17.375  0.00  0.00    +0.000 C 
ATOM     14  C   UNL     1       3.597   6.144  18.496  0.00  0.00    +0.000 C 
ENDROOT
BRANCH   1  18
ATOM     15  C   UNL     1      -0.425  11.110  20.409  0.00  0.00    +0.000 A 
ATOM     16  C   UNL     1      -0.241   9.843  20.999  0.00  0.00    +0.000 A 
ATOM     17  C   UNL     1       0.639   8.916  20.466  0.00  0.00    +0.000 A 
ATOM     18  C   UNL     1       1.253   9.205  19.261  0.00  0.00    +0.000 A 
ATOM     19  C   UNL     1       1.007  10.405  18.610  0.00  0.00    +0.000 A 
ATOM     20  C   UNL     1       0.186  11.381  19.176  0.00  0.00    +0.000 A 
BRANCH  15  22
ATOM     21  C   UNL     1      -0.376  12.868  21.974  0.00  0.00    +0.000 C 
ATOM     22  O   UNL     1      -1.161  12.055  21.082  0.00  0.00    +0.000 OA
ENDBRANCH  15  22
BRANCH  20  23
ATOM     23  O   UNL     1       0.202  12.477  18.369  0.00  0.00    +0.000 OA
ATOM     24  C   UNL     1       1.112  13.525  18.596  0.00  0.00    +0.000 C 
ENDBRANCH  20  23
ENDBRANCH   1  18
BRANCH  14  25
ATOM     25  C   UNL     1       4.225   6.599  17.135  0.00  0.00    +0.000 C 
BRANCH  25  26
ATOM     26  C   UNL     1       5.758   6.898  17.138  0.00  0.00    +0.000 C 
BRANCH  26  27
ATOM     27  C   UNL     1       6.665   5.854  16.454  0.00  0.00    +0.000 C 
ATOM     28  C   UNL     1       7.306   4.942  17.496  0.00  0.00    +0.000 C 
BRANCH  27  29
ATOM     29  C   UNL     1       5.879   5.093  15.379  0.00  0.00    +0.000 C 
BRANCH  29  30
ATOM     30  C   UNL     1       6.689   4.673  14.179  0.00  0.00    +0.000 C 
ATOM     31  O   UNL     1       6.440   3.753  13.445  0.00  0.00    +0.000 OA
BRANCH  30  32
ATOM     32  O   UNL     1       7.811   5.446  14.015  0.00  0.00    +0.000 OA
ATOM     33  H   UNL     1       7.846   5.872  13.141  0.00  0.00    +0.000 HD
ENDBRANCH  30  32
ENDBRANCH  29  30
ENDBRANCH  27  29
ENDBRANCH  26  27
ENDBRANCH  25  26
ENDBRANCH  14  25
TORSDOF 9
ENDMDL
MODEL 9
REMARK VINA RESULT:      -8.4      2.047      2.767
REMARK  Name = 
REMARK  15 active torsions:
REMARK  status: ('A' for Active; 'I' for Inactive)
REMARK    1  A    between atoms: C_1  and  O_2
REMARK    2  A    between atoms: O_2  and  C_3
REMARK    3  A    between atoms: C_6  and  C_7
REMARK    4  A    between atoms: C_12  and  C_13
REMARK    5  A    between atoms: C_12  and  C_14
REMARK    6  A    between atoms: C_18  and  C_19
REMARK    7  A    between atoms: C_20  and  C_21
REMARK    8  A    between atoms: C_21  and  C_22
REMARK    9  A    between atoms: C_22  and  C_23
REMARK   10  A    between atoms: C_23  and  C_24
REMARK   11  A    between atoms: C_23  and  C_25
REMARK   12  A    between atoms: C_25  and  C_26
REMARK   13  A    between atoms: C_26  and  O_28
REMARK   14  A    between atoms: C_30  and  O_31
REMARK   15  A    between atoms: O_31  and  C_32
REMARK                            x       y       z     vdW  Elec       q    Type
REMARK                         _______ _______ _______ _____ _____    ______ ____
ROOT
ATOM      1  C   UNL     1       2.391   8.432  17.670  0.00  0.00    +0.000 C 
ATOM      2  C   UNL     1       2.820   7.436  18.465  0.00  0.00    +0.000 C 
ATOM      3  C   UNL     1       2.302   7.302  19.876  0.00  0.00    +0.000 C 
ATOM      4  C   UNL     1       1.648   5.947  20.090  0.00  0.00    +0.000 C 
ATOM      5  C   UNL     1       2.665   4.824  19.837  0.00  0.00    +0.000 C 
ATOM      6  C   UNL     1       2.190   3.422  20.374  0.00  0.00    +0.000 C 
ATOM      7  C   UNL     1       1.999   3.490  21.915  0.00  0.00    +0.000 C 
ATOM      8  C   UNL     1       0.835   2.931  19.824  0.00  0.00    +0.000 C 
ATOM      9  C   UNL     1       3.303   2.380  20.105  0.00  0.00    +0.000 C 
ATOM     10  C   UNL     1       3.864   2.404  18.687  0.00  0.00    +0.000 C 
ATOM     11  C   UNL     1       4.350   3.796  18.273  0.00  0.00    +0.000 C 
ATOM     12  C   UNL     1       3.240   4.881  18.359  0.00  0.00    +0.000 C 
ATOM     13  C   UNL     1       2.178   4.561  17.281  0.00  0.00    +0.000 C 
ATOM     14  C   UNL     1       3.851   6.356  18.085  0.00  0.00    +0.000 C 
ENDROOT
BRANCH   1  18
ATOM     15  C   UNL     1      -0.537  11.236  18.882  0.00  0.00    +0.000 A 
ATOM     16  C   UNL     1      -0.907  10.106  18.125  0.00  0.00    +0.000 A 
ATOM     17  C   UNL     1       0.023   9.157  17.737  0.00  0.00    +0.000 A 
ATOM     18  C   UNL     1       1.360   9.396  18.000  0.00  0.00    +0.000 A 
ATOM     19  C   UNL     1       1.758  10.551  18.654  0.00  0.00    +0.000 A 
ATOM     20  C   UNL     1       0.824  11.477  19.122  0.00  0.00    +0.000 A 
BRANCH  15  22
ATOM     21  C   UNL     1      -2.823  11.796  18.831  0.00  0.00    +0.000 C 
ATOM     22  O   UNL     1      -1.522  12.041  19.399  0.00  0.00    +0.000 OA
ENDBRANCH  15  22
BRANCH  20  23
ATOM     23  O   UNL     1       1.489  12.453  19.799  0.00  0.00    +0.000 OA
ATOM     24  C   UNL     1       1.268  13.811  19.507  0.00  0.00    +0.000 C 
ENDBRANCH  20  23
ENDBRANCH   1  18
BRANCH  14  25
ATOM     25  C   UNL     1       4.530   6.505  16.682  0.00  0.00    +0.000 C 
BRANCH  25  26
ATOM     26  C   UNL     1       6.075   6.281  16.626  0.00  0.00    +0.000 C 
BRANCH  26  27
ATOM     27  C   UNL     1       6.897   6.855  17.799  0.00  0.00    +0.000 C 
ATOM     28  C   UNL     1       7.449   5.727  18.664  0.00  0.00    +0.000 C 
BRANCH  27  29
ATOM     29  C   UNL     1       7.981   7.804  17.270  0.00  0.00    +0.000 C 
BRANCH  29  30
ATOM     30  C   UNL     1       8.238   9.015  18.130  0.00  0.00    +0.000 C 
ATOM     31  O   UNL     1       7.868  10.137  17.900  0.00  0.00    +0.000 OA
BRANCH  30  32
ATOM     32  O   UNL     1       8.999   8.717  19.232  0.00  0.00    +0.000 OA
ATOM     33  H   UNL     1       9.571   7.942  19.092  0.00  0.00    +0.000 HD
ENDBRANCH  30  32
ENDBRANCH  29  30
ENDBRANCH  27  29
ENDBRANCH  26  27
ENDBRANCH  25  26
ENDBRANCH  14  25
TORSDOF 9
ENDMDL
