MODEL 1
REMARK VINA RESULT:      -7.5      0.000      0.000
REMARK  Name = 
REMARK  9 active torsions:
REMARK  status: ('A' for Active; 'I' for Inactive)
REMARK    1  A    between atoms: C_1  and  C_2
REMARK    2  A    between atoms: C_4  and  O_5
REMARK    3  A    between atoms: C_7  and  C_8
REMARK    4  A    between atoms: C_9  and  C_10
REMARK    5  A    between atoms: C_10  and  C_11
REMARK    6  A    between atoms: C_11  and  C_12
REMARK    7  A    between atoms: N_14  and  C_15
REMARK    8  A    between atoms: C_15  and  C_16
REMARK    9  A    between atoms: C_24  and  C_25
REMARK                            x       y       z     vdW  Elec       q    Type
REMARK                         _______ _______ _______ _____ _____    ______ ____
ROOT
ATOM      1  C   UNL     1       1.636   4.764  20.553  0.00  0.00    +0.000 C 
ATOM      2  O   UNL     1       1.050   3.694  20.432  0.00  0.00    +0.000 OA
ATOM      3  N   UNL     1       3.003   4.884  20.486  0.00  0.00    +0.000 N 
ATOM      4  H   UNL     1       3.412   5.797  20.324  0.00  0.00    +0.000 HD
ENDROOT
BRANCH   1   5
ATOM      5  C   UNL     1       0.922   6.088  20.758  0.00  0.00    +0.000 C 
BRANCH   5   6
ATOM      6  C   UNL     1       1.918   7.248  20.828  0.00  0.00    +0.000 C 
BRANCH   6  14
ATOM      7  C   UNL     1       2.663   7.760  17.939  0.00  0.00    +0.000 C 
ATOM      8  C   UNL     1       1.822   8.714  18.739  0.00  0.00    +0.000 A 
ATOM      9  N   UNL     1       1.444   9.823  18.065  0.00  0.00    +0.000 NA
ATOM     10  C   UNL     1       0.706  10.687  18.755  0.00  0.00    +0.000 A 
ATOM     11  N   UNL     1       0.285  10.581  20.011  0.00  0.00    +0.000 NA
ATOM     12  C   UNL     1       0.678   9.469  20.664  0.00  0.00    +0.000 A 
ATOM     13  C   UNL     1       0.209   9.378  22.088  0.00  0.00    +0.000 C 
ATOM     14  C   UNL     1       1.470   8.477  20.071  0.00  0.00    +0.000 A 
BRANCH  10  15
ATOM     15  O   UNL     1       0.361  11.812  18.070  0.00  0.00    +0.000 OA
ATOM     16  H   UNL     1      -0.355  12.118  18.649  0.00  0.00    +0.000 HD
ENDBRANCH  10  15
ENDBRANCH   6  14
ENDBRANCH   5   6
ENDBRANCH   1   5
BRANCH   3  17
ATOM     17  C   UNL     1       3.838   3.741  20.192  0.00  0.00    +0.000 C 
BRANCH  17  18
ATOM     18  C   UNL     1       4.400   3.885  18.823  0.00  0.00    +0.000 A 
ATOM     19  O   UNL     1       5.736   4.162  18.761  0.00  0.00    +0.000 OA
ATOM     20  C   UNL     1       6.050   4.342  17.452  0.00  0.00    +0.000 A 
ATOM     21  C   UNL     1       7.323   4.622  16.960  0.00  0.00    +0.000 A 
ATOM     22  C   UNL     1       7.427   4.840  15.582  0.00  0.00    +0.000 A 
ATOM     23  C   UNL     1       6.299   4.795  14.760  0.00  0.00    +0.000 A 
ATOM     24  C   UNL     1       5.037   4.471  15.282  0.00  0.00    +0.000 A 
ATOM     25  C   UNL     1       4.916   4.214  16.662  0.00  0.00    +0.000 A 
ATOM     26  C   UNL     1       3.869   3.797  17.544  0.00  0.00    +0.000 A 
ATOM     27  C   UNL     1       2.503   3.353  17.170  0.00  0.00    +0.000 C 
ENDBRANCH  17  18
ENDBRANCH   3  17
TORSDOF 6
ENDMDL
MODEL 2
REMARK VINA RESULT:      -7.5      2.682      8.308
REMARK  Name = 
REMARK  9 active torsions:
REMARK  status: ('A' for Active; 'I' for Inactive)
REMARK    1  A    between atoms: C_1  and  C_2
REMARK    2  A    between atoms: C_4  and  O_5
REMARK    3  A    between atoms: C_7  and  C_8
REMARK    4  A    between atoms: C_9  and  C_10
REMARK    5  A    between atoms: C_10  and  C_11
REMARK    6  A    between atoms: C_11  and  C_12
REMARK    7  A    between atoms: N_14  and  C_15
REMARK    8  A    between atoms: C_15  and  C_16
REMARK    9  A    between atoms: C_24  and  C_25
REMARK                            x       y       z     vdW  Elec       q    Type
REMARK                         _______ _______ _______ _____ _____    ______ ____
ROOT
ATOM      1  C   UNL     1       2.247   7.621  18.922  0.00  0.00    +0.000 C 
ATOM      2  O   UNL     1       2.169   7.383  20.123  0.00  0.00    +0.000 OA
ATOM      3  N   UNL     1       1.827   8.803  18.361  0.00  0.00    +0.000 N 
ATOM      4  H   UNL     1       2.151   9.054  17.434  0.00  0.00    +0.000 HD
ENDROOT
BRANCH   1   5
ATOM      5  C   UNL     1       2.844   6.653  17.917  0.00  0.00    +0.000 C 
BRANCH   5   6
ATOM      6  C   UNL     1       2.170   5.282  18.001  0.00  0.00    +0.000 C 
BRANCH   6  14
ATOM      7  C   UNL     1       1.075   4.076  20.553  0.00  0.00    +0.000 C 
ATOM      8  C   UNL     1       2.433   3.728  20.012  0.00  0.00    +0.000 A 
ATOM      9  N   UNL     1       3.127   2.849  20.769  0.00  0.00    +0.000 NA
ATOM     10  C   UNL     1       4.335   2.534  20.314  0.00  0.00    +0.000 A 
ATOM     11  N   UNL     1       4.929   2.962  19.206  0.00  0.00    +0.000 NA
ATOM     12  C   UNL     1       4.220   3.841  18.469  0.00  0.00    +0.000 A 
ATOM     13  C   UNL     1       4.916   4.329  17.230  0.00  0.00    +0.000 C 
ATOM     14  C   UNL     1       2.939   4.278  18.830  0.00  0.00    +0.000 A 
BRANCH  10  15
ATOM     15  O   UNL     1       5.031   1.671  21.106  0.00  0.00    +0.000 OA
ATOM     16  H   UNL     1       4.952   0.876  20.553  0.00  0.00    +0.000 HD
ENDBRANCH  10  15
ENDBRANCH   6  14
ENDBRANCH   5   6
ENDBRANCH   1   5
BRANCH   3  17
ATOM     17  C   UNL     1       1.326   9.881  19.183  0.00  0.00    +0.000 C 
BRANCH  17  18
ATOM     18  C   UNL     1      -0.073  10.191  18.784  0.00  0.00    +0.000 A 
ATOM     19  O   UNL     1      -0.461   9.700  17.570  0.00  0.00    +0.000 OA
ATOM     20  C   UNL     1      -1.722  10.149  17.339  0.00  0.00    +0.000 A 
ATOM     21  C   UNL     1      -2.488   9.854  16.214  0.00  0.00    +0.000 A 
ATOM     22  C   UNL     1      -3.741  10.471  16.131  0.00  0.00    +0.000 A 
ATOM     23  C   UNL     1      -4.177  11.350  17.125  0.00  0.00    +0.000 A 
ATOM     24  C   UNL     1      -3.396  11.595  18.266  0.00  0.00    +0.000 A 
ATOM     25  C   UNL     1      -2.146  10.958  18.385  0.00  0.00    +0.000 A 
ATOM     26  C   UNL     1      -1.118  10.883  19.378  0.00  0.00    +0.000 A 
ATOM     27  C   UNL     1      -1.163  11.425  20.760  0.00  0.00    +0.000 C 
ENDBRANCH  17  18
ENDBRANCH   3  17
TORSDOF 6
ENDMDL
MODEL 3
REMARK VINA RESULT:      -7.4      2.825      8.444
REMARK  Name = 
REMARK  9 active torsions:
REMARK  status: ('A' for Active; 'I' for Inactive)
REMARK    1  A    between atoms: C_1  and  C_2
REMARK    2  A    between atoms: C_4  and  O_5
REMARK    3  A    between atoms: C_7  and  C_8
REMARK    4  A    between atoms: C_9  and  C_10
REMARK    5  A    between atoms: C_10  and  C_11
REMARK    6  A    between atoms: C_11  and  C_12
REMARK    7  A    between atoms: N_14  and  C_15
REMARK    8  A    between atoms: C_15  and  C_16
REMARK    9  A    between atoms: C_24  and  C_25
REMARK                            x       y       z     vdW  Elec       q    Type
REMARK                         _______ _______ _______ _____ _____    ______ ____
ROOT
ATOM      1  C   UNL     1       1.954   8.491  19.031  0.00  0.00    +0.000 C 
ATOM      2  O   UNL     1       2.489   8.865  17.993  0.00  0.00    +0.000 OA
ATOM      3  N   UNL     1       1.198   9.317  19.828  0.00  0.00    +0.000 N 
ATOM      4  H   UNL     1       0.570   8.909  20.510  0.00  0.00    +0.000 HD
ENDROOT
BRANCH   1   5
ATOM      5  C   UNL     1       2.034   7.065  19.544  0.00  0.00    +0.000 C 
BRANCH   5   6
ATOM      6  C   UNL     1       2.424   6.096  18.425  0.00  0.00    +0.000 C 
BRANCH   6  14
ATOM      7  C   UNL     1       1.053   3.765  19.788  0.00  0.00    +0.000 C 
ATOM      8  C   UNL     1       2.536   3.804  19.548  0.00  0.00    +0.000 A 
ATOM      9  N   UNL     1       3.204   2.722  20.008  0.00  0.00    +0.000 NA
ATOM     10  C   UNL     1       4.518   2.738  19.816  0.00  0.00    +0.000 A 
ATOM     11  N   UNL     1       5.245   3.674  19.215  0.00  0.00    +0.000 NA
ATOM     12  C   UNL     1       4.558   4.745  18.769  0.00  0.00    +0.000 A 
ATOM     13  C   UNL     1       5.400   5.802  18.110  0.00  0.00    +0.000 C 
ATOM     14  C   UNL     1       3.171   4.876  18.913  0.00  0.00    +0.000 A 
BRANCH  10  15
ATOM     15  O   UNL     1       5.177   1.654  20.312  0.00  0.00    +0.000 OA
ATOM     16  H   UNL     1       4.582   0.962  19.981  0.00  0.00    +0.000 HD
ENDBRANCH  10  15
ENDBRANCH   6  14
ENDBRANCH   5   6
ENDBRANCH   1   5
BRANCH   3  17
ATOM     17  C   UNL     1       0.929  10.683  19.439  0.00  0.00    +0.000 C 
BRANCH  17  18
ATOM     18  C   UNL     1      -0.453  10.775  18.898  0.00  0.00    +0.000 A 
ATOM     19  O   UNL     1      -0.673  10.106  17.728  0.00  0.00    +0.000 OA
ATOM     20  C   UNL     1      -1.949  10.371  17.346  0.00  0.00    +0.000 A 
ATOM     21  C   UNL     1      -2.572   9.860  16.210  0.00  0.00    +0.000 A 
ATOM     22  C   UNL     1      -3.873  10.307  15.956  0.00  0.00    +0.000 A 
ATOM     23  C   UNL     1      -4.492  11.234  16.797  0.00  0.00    +0.000 A 
ATOM     24  C   UNL     1      -3.851  11.699  17.956  0.00  0.00    +0.000 A 
ATOM     25  C   UNL     1      -2.553  11.235  18.249  0.00  0.00    +0.000 A 
ATOM     26  C   UNL     1      -1.619  11.399  19.320  0.00  0.00    +0.000 A 
ATOM     27  C   UNL     1      -1.849  12.083  20.617  0.00  0.00    +0.000 C 
ENDBRANCH  17  18
ENDBRANCH   3  17
TORSDOF 6
ENDMDL
MODEL 4
REMARK VINA RESULT:      -7.4      2.852      8.438
REMARK  Name = 
REMARK  9 active torsions:
REMARK  status: ('A' for Active; 'I' for Inactive)
REMARK    1  A    between atoms: C_1  and  C_2
REMARK    2  A    between atoms: C_4  and  O_5
REMARK    3  A    between atoms: C_7  and  C_8
REMARK    4  A    between atoms: C_9  and  C_10
REMARK    5  A    between atoms: C_10  and  C_11
REMARK    6  A    between atoms: C_11  and  C_12
REMARK    7  A    between atoms: N_14  and  C_15
REMARK    8  A    between atoms: C_15  and  C_16
REMARK    9  A    between atoms: C_24  and  C_25
REMARK                            x       y       z     vdW  Elec       q    Type
REMARK                         _______ _______ _______ _____ _____    ______ ____
ROOT
ATOM      1  C   UNL     1       2.094   8.323  18.483  0.00  0.00    +0.000 C 
ATOM      2  O   UNL     1       2.517   8.692  17.393  0.00  0.00    +0.000 OA
ATOM      3  N   UNL     1       1.443   9.158  19.360  0.00  0.00    +0.000 N 
ATOM      4  H   UNL     1       0.888   8.757  20.106  0.00  0.00    +0.000 HD
ENDROOT
BRANCH   1   5
ATOM      5  C   UNL     1       2.208   6.894  18.983  0.00  0.00    +0.000 C 
BRANCH   5   6
ATOM      6  C   UNL     1       2.922   6.007  17.960  0.00  0.00    +0.000 C 
BRANCH   6  14
ATOM      7  C   UNL     1       5.816   5.785  18.823  0.00  0.00    +0.000 C 
ATOM      8  C   UNL     1       4.845   4.644  18.946  0.00  0.00    +0.000 A 
ATOM      9  N   UNL     1       5.377   3.511  19.456  0.00  0.00    +0.000 NA
ATOM     10  C   UNL     1       4.539   2.486  19.566  0.00  0.00    +0.000 A 
ATOM     11  N   UNL     1       3.249   2.448  19.255  0.00  0.00    +0.000 NA
ATOM     12  C   UNL     1       2.741   3.588  18.744  0.00  0.00    +0.000 A 
ATOM     13  C   UNL     1       1.285   3.519  18.379  0.00  0.00    +0.000 C 
ATOM     14  C   UNL     1       3.506   4.746  18.555  0.00  0.00    +0.000 A 
BRANCH  10  15
ATOM     15  O   UNL     1       5.102   1.345  20.053  0.00  0.00    +0.000 OA
ATOM     16  H   UNL     1       4.739   0.719  19.405  0.00  0.00    +0.000 HD
ENDBRANCH  10  15
ENDBRANCH   6  14
ENDBRANCH   5   6
ENDBRANCH   1   5
BRANCH   3  17
ATOM     17  C   UNL     1       1.154  10.529  19.005  0.00  0.00    +0.000 C 
BRANCH  17  18
ATOM     18  C   UNL     1      -0.285  10.649  18.650  0.00  0.00    +0.000 A 
ATOM     19  O   UNL     1      -0.650  10.070  17.468  0.00  0.00    +0.000 OA
ATOM     20  C   UNL     1      -1.964  10.352  17.270  0.00  0.00    +0.000 A 
ATOM     21  C   UNL     1      -2.725   9.924  16.185  0.00  0.00    +0.000 A 
ATOM     22  C   UNL     1      -4.047  10.378  16.131  0.00  0.00    +0.000 A 
ATOM     23  C   UNL     1      -4.555  11.232  17.112  0.00  0.00    +0.000 A 
ATOM     24  C   UNL     1      -3.774  11.613  18.213  0.00  0.00    +0.000 A 
ATOM     25  C   UNL     1      -2.450  11.139  18.306  0.00  0.00    +0.000 A 
ATOM     26  C   UNL     1      -1.388  11.229  19.261  0.00  0.00    +0.000 A 
ATOM     27  C   UNL     1      -1.454  11.810  20.625  0.00  0.00    +0.000 C 
ENDBRANCH  17  18
ENDBRANCH   3  17
TORSDOF 6
ENDMDL
MODEL 5
REMARK VINA RESULT:      -7.4      1.105      1.745
REMARK  Name = 
REMARK  9 active torsions:
REMARK  status: ('A' for Active; 'I' for Inactive)
REMARK    1  A    between atoms: C_1  and  C_2
REMARK    2  A    between atoms: C_4  and  O_5
REMARK    3  A    between atoms: C_7  and  C_8
REMARK    4  A    between atoms: C_9  and  C_10
REMARK    5  A    between atoms: C_10  and  C_11
REMARK    6  A    between atoms: C_11  and  C_12
REMARK    7  A    between atoms: N_14  and  C_15
REMARK    8  A    between atoms: C_15  and  C_16
REMARK    9  A    between atoms: C_24  and  C_25
REMARK                            x       y       z     vdW  Elec       q    Type
REMARK                         _______ _______ _______ _____ _____    ______ ____
ROOT
ATOM      1  C   UNL     1       1.997   4.132  19.834  0.00  0.00    +0.000 C 
ATOM      2  O   UNL     1       1.495   3.204  19.209  0.00  0.00    +0.000 OA
ATOM      3  N   UNL     1       3.341   4.214  20.109  0.00  0.00    +0.000 N 
ATOM      4  H   UNL     1       3.737   5.106  20.382  0.00  0.00    +0.000 HD
ENDROOT
BRANCH   1   5
ATOM      5  C   UNL     1       1.201   5.317  20.350  0.00  0.00    +0.000 C 
BRANCH   5   6
ATOM      6  C   UNL     1       2.121   6.486  20.711  0.00  0.00    +0.000 C 
BRANCH   6  14
ATOM      7  C   UNL     1       3.224   7.044  17.947  0.00  0.00    +0.000 C 
ATOM      8  C   UNL     1       2.334   8.012  18.674  0.00  0.00    +0.000 A 
ATOM      9  N   UNL     1       2.085   9.156  17.998  0.00  0.00    +0.000 NA
ATOM     10  C   UNL     1       1.308  10.032  18.625  0.00  0.00    +0.000 A 
ATOM     11  N   UNL     1       0.737   9.911  19.819  0.00  0.00    +0.000 NA
ATOM     12  C   UNL     1       1.003   8.764  20.476  0.00  0.00    +0.000 A 
ATOM     13  C   UNL     1       0.365   8.655  21.832  0.00  0.00    +0.000 C 
ATOM     14  C   UNL     1       1.818   7.755  19.948  0.00  0.00    +0.000 A 
BRANCH  10  15
ATOM     15  O   UNL     1       1.093  11.191  17.941  0.00  0.00    +0.000 OA
ATOM     16  H   UNL     1       1.587  11.793  18.522  0.00  0.00    +0.000 HD
ENDBRANCH  10  15
ENDBRANCH   6  14
ENDBRANCH   5   6
ENDBRANCH   1   5
BRANCH   3  17
ATOM     17  C   UNL     1       4.266   3.224  19.605  0.00  0.00    +0.000 C 
BRANCH  17  18
ATOM     18  C   UNL     1       4.984   3.781  18.428  0.00  0.00    +0.000 A 
ATOM     19  O   UNL     1       4.521   3.373  17.209  0.00  0.00    +0.000 OA
ATOM     20  C   UNL     1       5.342   3.907  16.268  0.00  0.00    +0.000 A 
ATOM     21  C   UNL     1       5.201   3.747  14.891  0.00  0.00    +0.000 A 
ATOM     22  C   UNL     1       6.191   4.324  14.089  0.00  0.00    +0.000 A 
ATOM     23  C   UNL     1       7.271   5.003  14.658  0.00  0.00    +0.000 A 
ATOM     24  C   UNL     1       7.363   5.180  16.047  0.00  0.00    +0.000 A 
ATOM     25  C   UNL     1       6.357   4.638  16.871  0.00  0.00    +0.000 A 
ATOM     26  C   UNL     1       6.051   4.653  18.268  0.00  0.00    +0.000 A 
ATOM     27  C   UNL     1       6.726   5.446  19.327  0.00  0.00    +0.000 C 
ENDBRANCH  17  18
ENDBRANCH   3  17
TORSDOF 6
ENDMDL
MODEL 6
REMARK VINA RESULT:      -7.3      2.843      8.227
REMARK  Name = 
REMARK  9 active torsions:
REMARK  status: ('A' for Active; 'I' for Inactive)
REMARK    1  A    between atoms: C_1  and  C_2
REMARK    2  A    between atoms: C_4  and  O_5
REMARK    3  A    between atoms: C_7  and  C_8
REMARK    4  A    between atoms: C_9  and  C_10
REMARK    5  A    between atoms: C_10  and  C_11
REMARK    6  A    between atoms: C_11  and  C_12
REMARK    7  A    between atoms: N_14  and  C_15
REMARK    8  A    between atoms: C_15  and  C_16
REMARK    9  A    between atoms: C_24  and  C_25
REMARK                            x       y       z     vdW  Elec       q    Type
REMARK                         _______ _______ _______ _____ _____    ______ ____
ROOT
ATOM      1  C   UNL     1       2.117   7.801  19.252  0.00  0.00    +0.000 C 
ATOM      2  O   UNL     1       1.852   7.538  20.420  0.00  0.00    +0.000 OA
ATOM      3  N   UNL     1       1.807   9.004  18.663  0.00  0.00    +0.000 N 
ATOM      4  H   UNL     1       2.274   9.269  17.804  0.00  0.00    +0.000 HD
ENDROOT
BRANCH   1   5
ATOM      5  C   UNL     1       2.847   6.845  18.326  0.00  0.00    +0.000 C 
BRANCH   5   6
ATOM      6  C   UNL     1       1.952   5.669  17.928  0.00  0.00    +0.000 C 
BRANCH   6  14
ATOM      7  C   UNL     1       4.405   4.767  16.399  0.00  0.00    +0.000 C 
ATOM      8  C   UNL     1       3.727   3.902  17.424  0.00  0.00    +0.000 A 
ATOM      9  N   UNL     1       4.293   2.686  17.590  0.00  0.00    +0.000 NA
ATOM     10  C   UNL     1       3.705   1.900  18.485  0.00  0.00    +0.000 A 
ATOM     11  N   UNL     1       2.648   2.171  19.242  0.00  0.00    +0.000 NA
ATOM     12  C   UNL     1       2.097   3.388  19.056  0.00  0.00    +0.000 A 
ATOM     13  C   UNL     1       0.891   3.669  19.907  0.00  0.00    +0.000 C 
ATOM     14  C   UNL     1       2.598   4.318  18.137  0.00  0.00    +0.000 A 
BRANCH  10  15
ATOM     15  O   UNL     1       4.271   0.668  18.616  0.00  0.00    +0.000 OA
ATOM     16  H   UNL     1       5.179   0.949  18.817  0.00  0.00    +0.000 HD
ENDBRANCH  10  15
ENDBRANCH   6  14
ENDBRANCH   5   6
ENDBRANCH   1   5
BRANCH   3  17
ATOM     17  C   UNL     1       1.202  10.072  19.425  0.00  0.00    +0.000 C 
BRANCH  17  18
ATOM     18  C   UNL     1      -0.168  10.327  18.907  0.00  0.00    +0.000 A 
ATOM     19  O   UNL     1      -0.450   9.775  17.690  0.00  0.00    +0.000 OA
ATOM     20  C   UNL     1      -1.699  10.181  17.343  0.00  0.00    +0.000 A 
ATOM     21  C   UNL     1      -2.369   9.819  16.177  0.00  0.00    +0.000 A 
ATOM     22  C   UNL     1      -3.625  10.398  15.972  0.00  0.00    +0.000 A 
ATOM     23  C   UNL     1      -4.157  11.306  16.890  0.00  0.00    +0.000 A 
ATOM     24  C   UNL     1      -3.473  11.620  18.075  0.00  0.00    +0.000 A 
ATOM     25  C   UNL     1      -2.221  11.021  18.318  0.00  0.00    +0.000 A 
ATOM     26  C   UNL     1      -1.272  11.016  19.389  0.00  0.00    +0.000 A 
ATOM     27  C   UNL     1      -1.437  11.614  20.738  0.00  0.00    +0.000 C 
ENDBRANCH  17  18
ENDBRANCH   3  17
TORSDOF 6
ENDMDL
MODEL 7
REMARK VINA RESULT:      -7.2      2.938      8.373
REMARK  Name = 
REMARK  9 active torsions:
REMARK  status: ('A' for Active; 'I' for Inactive)
REMARK    1  A    between atoms: C_1  and  C_2
REMARK    2  A    between atoms: C_4  and  O_5
REMARK    3  A    between atoms: C_7  and  C_8
REMARK    4  A    between atoms: C_9  and  C_10
REMARK    5  A    between atoms: C_10  and  C_11
REMARK    6  A    between atoms: C_11  and  C_12
REMARK    7  A    between atoms: N_14  and  C_15
REMARK    8  A    between atoms: C_15  and  C_16
REMARK    9  A    between atoms: C_24  and  C_25
REMARK                            x       y       z     vdW  Elec       q    Type
REMARK                         _______ _______ _______ _____ _____    ______ ____
ROOT
ATOM      1  C   UNL     1       1.766   8.055  19.942  0.00  0.00    +0.000 C 
ATOM      2  O   UNL     1       1.548   8.154  21.145  0.00  0.00    +0.000 OA
ATOM      3  N   UNL     1       1.472   9.049  19.040  0.00  0.00    +0.000 N 
ATOM      4  H   UNL     1       1.906   9.031  18.125  0.00  0.00    +0.000 HD
ENDROOT
BRANCH   1   5
ATOM      5  C   UNL     1       2.414   6.837  19.309  0.00  0.00    +0.000 C 
BRANCH   5   6
ATOM      6  C   UNL     1       2.734   5.772  20.361  0.00  0.00    +0.000 C 
BRANCH   6  14
ATOM      7  C   UNL     1       0.717   3.519  20.213  0.00  0.00    +0.000 C 
ATOM      8  C   UNL     1       2.126   3.377  19.712  0.00  0.00    +0.000 A 
ATOM      9  N   UNL     1       2.419   2.157  19.209  0.00  0.00    +0.000 NA
ATOM     10  C   UNL     1       3.664   2.005  18.768  0.00  0.00    +0.000 A 
ATOM     11  N   UNL     1       4.639   2.906  18.747  0.00  0.00    +0.000 NA
ATOM     12  C   UNL     1       4.325   4.114  19.257  0.00  0.00    +0.000 A 
ATOM     13  C   UNL     1       5.447   5.113  19.243  0.00  0.00    +0.000 C 
ATOM     14  C   UNL     1       3.059   4.418  19.773  0.00  0.00    +0.000 A 
BRANCH  10  15
ATOM     15  O   UNL     1       3.948   0.760  18.294  0.00  0.00    +0.000 OA
ATOM     16  H   UNL     1       4.097   0.314  19.144  0.00  0.00    +0.000 HD
ENDBRANCH  10  15
ENDBRANCH   6  14
ENDBRANCH   5   6
ENDBRANCH   1   5
BRANCH   3  17
ATOM     17  C   UNL     1       0.944  10.321  19.479  0.00  0.00    +0.000 C 
BRANCH  17  18
ATOM     18  C   UNL     1      -0.406  10.521  18.889  0.00  0.00    +0.000 A 
ATOM     19  O   UNL     1      -0.637   9.866  17.713  0.00  0.00    +0.000 OA
ATOM     20  C   UNL     1      -1.873  10.231  17.285  0.00  0.00    +0.000 A 
ATOM     21  C   UNL     1      -2.495   9.766  16.128  0.00  0.00    +0.000 A 
ATOM     22  C   UNL     1      -3.745  10.316  15.826  0.00  0.00    +0.000 A 
ATOM     23  C   UNL     1      -4.317  11.294  16.643  0.00  0.00    +0.000 A 
ATOM     24  C   UNL     1      -3.682  11.712  17.822  0.00  0.00    +0.000 A 
ATOM     25  C   UNL     1      -2.437  11.146  18.163  0.00  0.00    +0.000 A 
ATOM     26  C   UNL     1      -1.531  11.239  19.267  0.00  0.00    +0.000 A 
ATOM     27  C   UNL     1      -1.752  11.947  20.553  0.00  0.00    +0.000 C 
ENDBRANCH  17  18
ENDBRANCH   3  17
TORSDOF 6
ENDMDL
MODEL 8
REMARK VINA RESULT:      -7.2      2.912      8.313
REMARK  Name = 
REMARK  9 active torsions:
REMARK  status: ('A' for Active; 'I' for Inactive)
REMARK    1  A    between atoms: C_1  and  C_2
REMARK    2  A    between atoms: C_4  and  O_5
REMARK    3  A    between atoms: C_7  and  C_8
REMARK    4  A    between atoms: C_9  and  C_10
REMARK    5  A    between atoms: C_10  and  C_11
REMARK    6  A    between atoms: C_11  and  C_12
REMARK    7  A    between atoms: N_14  and  C_15
REMARK    8  A    between atoms: C_15  and  C_16
REMARK    9  A    between atoms: C_24  and  C_25
REMARK                            x       y       z     vdW  Elec       q    Type
REMARK                         _______ _______ _______ _____ _____    ______ ____
ROOT
ATOM      1  C   UNL     1       1.808   8.039  19.680  0.00  0.00    +0.000 C 
ATOM      2  O   UNL     1       1.589   8.209  20.875  0.00  0.00    +0.000 OA
ATOM      3  N   UNL     1       1.601   9.012  18.732  0.00  0.00    +0.000 N 
ATOM      4  H   UNL     1       2.040   8.919  17.824  0.00  0.00    +0.000 HD
ENDROOT
BRANCH   1   5
ATOM      5  C   UNL     1       2.364   6.747  19.109  0.00  0.00    +0.000 C 
BRANCH   5   6
ATOM      6  C   UNL     1       2.793   5.789  20.224  0.00  0.00    +0.000 C 
BRANCH   6  14
ATOM      7  C   UNL     1       5.516   5.033  19.139  0.00  0.00    +0.000 C 
ATOM      8  C   UNL     1       4.379   4.054  19.227  0.00  0.00    +0.000 A 
ATOM      9  N   UNL     1       4.671   2.817  18.765  0.00  0.00    +0.000 NA
ATOM     10  C   UNL     1       3.678   1.937  18.823  0.00  0.00    +0.000 A 
ATOM     11  N   UNL     1       2.450   2.120  19.295  0.00  0.00    +0.000 NA
ATOM     12  C   UNL     1       2.181   3.362  19.746  0.00  0.00    +0.000 A 
ATOM     13  C   UNL     1       0.780   3.555  20.256  0.00  0.00    +0.000 C 
ATOM     14  C   UNL     1       3.122   4.398  19.733  0.00  0.00    +0.000 A 
BRANCH  10  15
ATOM     15  O   UNL     1       3.982   0.706  18.325  0.00  0.00    +0.000 OA
ATOM     16  H   UNL     1       3.244   0.618  17.701  0.00  0.00    +0.000 HD
ENDBRANCH  10  15
ENDBRANCH   6  14
ENDBRANCH   5   6
ENDBRANCH   1   5
BRANCH   3  17
ATOM     17  C   UNL     1       1.172  10.340  19.109  0.00  0.00    +0.000 C 
BRANCH  17  18
ATOM     18  C   UNL     1      -0.245  10.530  18.699  0.00  0.00    +0.000 A 
ATOM     19  O   UNL     1      -0.596   9.955  17.511  0.00  0.00    +0.000 OA
ATOM     20  C   UNL     1      -1.885  10.303  17.261  0.00  0.00    +0.000 A 
ATOM     21  C   UNL     1      -2.627   9.902  16.153  0.00  0.00    +0.000 A 
ATOM     22  C   UNL     1      -3.921  10.423  16.044  0.00  0.00    +0.000 A 
ATOM     23  C   UNL     1      -4.418  11.316  16.996  0.00  0.00    +0.000 A 
ATOM     24  C   UNL     1      -3.658  11.670  18.122  0.00  0.00    +0.000 A 
ATOM     25  C   UNL     1      -2.366  11.129  18.269  0.00  0.00    +0.000 A 
ATOM     26  C   UNL     1      -1.337  11.175  19.262  0.00  0.00    +0.000 A 
ATOM     27  C   UNL     1      -1.422  11.778  20.616  0.00  0.00    +0.000 C 
ENDBRANCH  17  18
ENDBRANCH   3  17
TORSDOF 6
ENDMDL
MODEL 9
REMARK VINA RESULT:      -7.2      1.123      2.411
REMARK  Name = 
REMARK  9 active torsions:
REMARK  status: ('A' for Active; 'I' for Inactive)
REMARK    1  A    between atoms: C_1  and  C_2
REMARK    2  A    between atoms: C_4  and  O_5
REMARK    3  A    between atoms: C_7  and  C_8
REMARK    4  A    between atoms: C_9  and  C_10
REMARK    5  A    between atoms: C_10  and  C_11
REMARK    6  A    between atoms: C_11  and  C_12
REMARK    7  A    between atoms: N_14  and  C_15
REMARK    8  A    between atoms: C_15  and  C_16
REMARK    9  A    between atoms: C_24  and  C_25
REMARK                            x       y       z     vdW  Elec       q    Type
REMARK                         _______ _______ _______ _____ _____    ______ ____
ROOT
ATOM      1  C   UNL     1       1.865   4.396  19.487  0.00  0.00    +0.000 C 
ATOM      2  O   UNL     1       1.328   4.109  18.422  0.00  0.00    +0.000 OA
ATOM      3  N   UNL     1       3.013   3.789  19.937  0.00  0.00    +0.000 N 
ATOM      4  H   UNL     1       3.554   4.235  20.668  0.00  0.00    +0.000 HD
ENDROOT
BRANCH   1   5
ATOM      5  C   UNL     1       1.346   5.475  20.419  0.00  0.00    +0.000 C 
BRANCH   5   6
ATOM      6  C   UNL     1       2.342   6.632  20.534  0.00  0.00    +0.000 C 
BRANCH   6  14
ATOM      7  C   UNL     1       0.599   8.699  21.896  0.00  0.00    +0.000 C 
ATOM      8  C   UNL     1       1.072   8.847  20.477  0.00  0.00    +0.000 A 
ATOM      9  N   UNL     1       0.639   9.969  19.859  0.00  0.00    +0.000 NA
ATOM     10  C   UNL     1       1.036  10.117  18.600  0.00  0.00    +0.000 A 
ATOM     11  N   UNL     1       1.817   9.310  17.889  0.00  0.00    +0.000 NA
ATOM     12  C   UNL     1       2.233   8.197  18.525  0.00  0.00    +0.000 A 
ATOM     13  C   UNL     1       3.098   7.287  17.698  0.00  0.00    +0.000 C 
ATOM     14  C   UNL     1       1.883   7.898  19.847  0.00  0.00    +0.000 A 
BRANCH  10  15
ATOM     15  O   UNL     1       0.565  11.237  17.985  0.00  0.00    +0.000 OA
ATOM     16  H   UNL     1      -0.205  10.843  17.543  0.00  0.00    +0.000 HD
ENDBRANCH  10  15
ENDBRANCH   6  14
ENDBRANCH   5   6
ENDBRANCH   1   5
BRANCH   3  17
ATOM     17  C   UNL     1       3.703   2.809  19.129  0.00  0.00    +0.000 C 
BRANCH  17  18
ATOM     18  C   UNL     1       4.557   3.510  18.134  0.00  0.00    +0.000 A 
ATOM     19  O   UNL     1       4.359   3.151  16.831  0.00  0.00    +0.000 OA
ATOM     20  C   UNL     1       5.274   3.822  16.084  0.00  0.00    +0.000 A 
ATOM     21  C   UNL     1       5.392   3.749  14.699  0.00  0.00    +0.000 A 
ATOM     22  C   UNL     1       6.445   4.467  14.122  0.00  0.00    +0.000 A 
ATOM     23  C   UNL     1       7.334   5.199  14.912  0.00  0.00    +0.000 A 
ATOM     24  C   UNL     1       7.163   5.284  16.303  0.00  0.00    +0.000 A 
ATOM     25  C   UNL     1       6.089   4.596  16.900  0.00  0.00    +0.000 A 
ATOM     26  C   UNL     1       5.542   4.484  18.218  0.00  0.00    +0.000 A 
ATOM     27  C   UNL     1       5.937   5.256  19.423  0.00  0.00    +0.000 C 
ENDBRANCH  17  18
ENDBRANCH   3  17
TORSDOF 6
ENDMDL
