MODEL 1
REMARK VINA RESULT:      -8.1      0.000      0.000
REMARK  Name = 
REMARK  4 active torsions:
REMARK  status: ('A' for Active; 'I' for Inactive)
REMARK    1  A    between atoms: N_1  and  C_2
REMARK    2  A    between atoms: N_6  and  C_7
REMARK    3  A    between atoms: C_11  and  N_12
REMARK    4  A    between atoms: C_19  and  C_20
REMARK                            x       y       z     vdW  Elec       q    Type
REMARK                         _______ _______ _______ _____ _____    ______ ____
ROOT
ATOM      1  N   UNL     1       1.498  10.164  18.469  0.00  0.00    +0.000 N 
ATOM      2  C   UNL     1       1.390   9.196  19.432  0.00  0.00    +0.000 A 
ATOM      3  N   UNL     1       0.693   9.251  20.551  0.00  0.00    +0.000 NA
ATOM      4  C   UNL     1       0.877   8.055  21.183  0.00  0.00    +0.000 A 
ATOM      5  C   UNL     1       1.699   7.240  20.451  0.00  0.00    +0.000 A 
ATOM      6  C   UNL     1       2.200   5.936  20.597  0.00  0.00    +0.000 A 
ATOM      7  C   UNL     1       3.007   5.448  19.650  0.00  0.00    +0.000 A 
ATOM      8  C   UNL     1       3.374   6.346  18.505  0.00  0.00    +0.000 A 
ATOM      9  N   UNL     1       2.901   7.551  18.337  0.00  0.00    +0.000 NA
ATOM     10  N   UNL     1       2.048   7.965  19.329  0.00  0.00    +0.000 N 
ATOM     11  H   UNL     1       1.957   9.887  17.606  0.00  0.00    +0.000 HD
ENDROOT
BRANCH   8  12
ATOM     12  C   UNL     1       4.334   5.787  17.502  0.00  0.00    +0.000 A 
ATOM     13  C   UNL     1       4.032   4.584  16.858  0.00  0.00    +0.000 A 
ATOM     14  F   UNL     1       2.919   3.895  17.156  0.00  0.00    +0.000 F 
ATOM     15  C   UNL     1       4.879   4.043  15.890  0.00  0.00    +0.000 A 
ATOM     16  C   UNL     1       6.065   4.691  15.557  0.00  0.00    +0.000 A 
ATOM     17  C   UNL     1       6.391   5.885  16.192  0.00  0.00    +0.000 A 
ATOM     18  C   UNL     1       5.526   6.429  17.147  0.00  0.00    +0.000 A 
ATOM     19  F   UNL     1       5.882   7.603  17.688  0.00  0.00    +0.000 F 
ENDBRANCH   8  12
BRANCH   1  24
ATOM     20  C   UNL     1      -0.119  12.034  18.481  0.00  0.00    +0.000 A 
ATOM     21  S   UNL     1       0.050  13.762  18.661  0.00  0.00    +0.000 S 
ATOM     22  N   UNL     1       1.670  13.784  18.951  0.00  0.00    +0.000 NA
ATOM     23  C   UNL     1       2.107  12.532  18.911  0.00  0.00    +0.000 A 
ATOM     24  C   UNL     1       1.160  11.485  18.632  0.00  0.00    +0.000 A 
BRANCH  20  29
ATOM     25  C   UNL     1      -2.902  10.694  16.498  0.00  0.00    +0.000 C 
ATOM     26  C   UNL     1      -4.042  10.734  17.523  0.00  0.00    +0.000 C 
ATOM     27  C   UNL     1      -3.765  11.794  18.590  0.00  0.00    +0.000 C 
ATOM     28  C   UNL     1      -2.414  11.575  19.287  0.00  0.00    +0.000 C 
ATOM     29  N   UNL     1      -1.357  11.464  18.290  0.00  0.00    +0.000 N 
ATOM     30  C   UNL     1      -1.550  10.476  17.219  0.00  0.00    +0.000 C 
BRANCH  25  31
ATOM     31  N   UNL     1      -3.161   9.653  15.494  0.00  0.00    +0.000 NA
ATOM     32  H   UNL     1      -3.677   8.886  15.924  0.00  0.00    +0.000 HD
ATOM     33  H   UNL     1      -2.280   9.256  15.169  0.00  0.00    +0.000 HD
ENDBRANCH  25  31
ENDBRANCH  20  29
ENDBRANCH   1  24
TORSDOF 4
ENDMDL
MODEL 2
REMARK VINA RESULT:      -8.1      0.064      1.512
REMARK  Name = 
REMARK  4 active torsions:
REMARK  status: ('A' for Active; 'I' for Inactive)
REMARK    1  A    between atoms: N_1  and  C_2
REMARK    2  A    between atoms: N_6  and  C_7
REMARK    3  A    between atoms: C_11  and  N_12
REMARK    4  A    between atoms: C_19  and  C_20
REMARK                            x       y       z     vdW  Elec       q    Type
REMARK                         _______ _______ _______ _____ _____    ______ ____
ROOT
ATOM      1  N   UNL     1       1.498  10.141  18.452  0.00  0.00    +0.000 N 
ATOM      2  C   UNL     1       1.405   9.174  19.417  0.00  0.00    +0.000 A 
ATOM      3  N   UNL     1       0.726   9.230  20.548  0.00  0.00    +0.000 NA
ATOM      4  C   UNL     1       0.917   8.033  21.177  0.00  0.00    +0.000 A 
ATOM      5  C   UNL     1       1.727   7.218  20.432  0.00  0.00    +0.000 A 
ATOM      6  C   UNL     1       2.227   5.913  20.571  0.00  0.00    +0.000 A 
ATOM      7  C   UNL     1       3.019   5.423  19.611  0.00  0.00    +0.000 A 
ATOM      8  C   UNL     1       3.368   6.320  18.459  0.00  0.00    +0.000 A 
ATOM      9  N   UNL     1       2.895   7.526  18.299  0.00  0.00    +0.000 NA
ATOM     10  N   UNL     1       2.058   7.942  19.304  0.00  0.00    +0.000 N 
ATOM     11  H   UNL     1       1.943   9.863  17.582  0.00  0.00    +0.000 HD
ENDROOT
BRANCH   8  12
ATOM     12  C   UNL     1       4.311   5.759  17.442  0.00  0.00    +0.000 A 
ATOM     13  C   UNL     1       5.491   6.448  17.145  0.00  0.00    +0.000 A 
ATOM     14  F   UNL     1       5.774   7.627  17.722  0.00  0.00    +0.000 F 
ATOM     15  C   UNL     1       6.417   5.945  16.230  0.00  0.00    +0.000 A 
ATOM     16  C   UNL     1       6.171   4.743  15.573  0.00  0.00    +0.000 A 
ATOM     17  C   UNL     1       4.999   4.046  15.846  0.00  0.00    +0.000 A 
ATOM     18  C   UNL     1       4.085   4.547  16.779  0.00  0.00    +0.000 A 
ATOM     19  F   UNL     1       2.998   3.803  17.023  0.00  0.00    +0.000 F 
ENDBRANCH   8  12
BRANCH   1  24
ATOM     20  C   UNL     1      -0.112  12.016  18.476  0.00  0.00    +0.000 A 
ATOM     21  S   UNL     1       0.063  13.743  18.660  0.00  0.00    +0.000 S 
ATOM     22  N   UNL     1       1.684  13.759  18.944  0.00  0.00    +0.000 NA
ATOM     23  C   UNL     1       2.117  12.506  18.899  0.00  0.00    +0.000 A 
ATOM     24  C   UNL     1       1.166  11.463  18.621  0.00  0.00    +0.000 A 
BRANCH  20  29
ATOM     25  C   UNL     1      -2.903  10.680  16.501  0.00  0.00    +0.000 C 
ATOM     26  C   UNL     1      -4.042  10.729  17.526  0.00  0.00    +0.000 C 
ATOM     27  C   UNL     1      -3.759  11.791  18.589  0.00  0.00    +0.000 C 
ATOM     28  C   UNL     1      -2.409  11.570  19.285  0.00  0.00    +0.000 C 
ATOM     29  N   UNL     1      -1.353  11.451  18.288  0.00  0.00    +0.000 N 
ATOM     30  C   UNL     1      -1.551  10.459  17.221  0.00  0.00    +0.000 C 
BRANCH  25  31
ATOM     31  N   UNL     1      -3.167   9.637  15.500  0.00  0.00    +0.000 NA
ATOM     32  H   UNL     1      -3.018  10.016  14.565  0.00  0.00    +0.000 HD
ATOM     33  H   UNL     1      -4.145   9.356  15.540  0.00  0.00    +0.000 HD
ENDBRANCH  25  31
ENDBRANCH  20  29
ENDBRANCH   1  24
TORSDOF 4
ENDMDL
MODEL 3
REMARK VINA RESULT:      -7.4      0.897      2.033
REMARK  Name = 
REMARK  4 active torsions:
REMARK  status: ('A' for Active; 'I' for Inactive)
REMARK    1  A    between atoms: N_1  and  C_2
REMARK    2  A    between atoms: N_6  and  C_7
REMARK    3  A    between atoms: C_11  and  N_12
REMARK    4  A    between atoms: C_19  and  C_20
REMARK                            x       y       z     vdW  Elec       q    Type
REMARK                         _______ _______ _______ _____ _____    ______ ____
ROOT
ATOM      1  N   UNL     1       1.210  10.275  18.661  0.00  0.00    +0.000 N 
ATOM      2  C   UNL     1       1.122   9.331  19.649  0.00  0.00    +0.000 A 
ATOM      3  N   UNL     1       0.485   9.431  20.801  0.00  0.00    +0.000 NA
ATOM      4  C   UNL     1       0.664   8.243  21.449  0.00  0.00    +0.000 A 
ATOM      5  C   UNL     1       1.424   7.389  20.695  0.00  0.00    +0.000 A 
ATOM      6  C   UNL     1       1.892   6.073  20.846  0.00  0.00    +0.000 A 
ATOM      7  C   UNL     1       2.635   5.541  19.870  0.00  0.00    +0.000 A 
ATOM      8  C   UNL     1       2.970   6.403  18.688  0.00  0.00    +0.000 A 
ATOM      9  N   UNL     1       2.525   7.618  18.517  0.00  0.00    +0.000 NA
ATOM     10  N   UNL     1       1.737   8.079  19.541  0.00  0.00    +0.000 N 
ATOM     11  H   UNL     1       1.616   9.966  17.782  0.00  0.00    +0.000 HD
ENDROOT
BRANCH   8  12
ATOM     12  C   UNL     1       3.861   5.794  17.651  0.00  0.00    +0.000 A 
ATOM     13  C   UNL     1       4.957   6.519  17.174  0.00  0.00    +0.000 A 
ATOM     14  F   UNL     1       5.199   7.771  17.595  0.00  0.00    +0.000 F 
ATOM     15  C   UNL     1       5.835   5.978  16.235  0.00  0.00    +0.000 A 
ATOM     16  C   UNL     1       5.623   4.697  15.734  0.00  0.00    +0.000 A 
ATOM     17  C   UNL     1       4.533   3.960  16.187  0.00  0.00    +0.000 A 
ATOM     18  C   UNL     1       3.669   4.503  17.144  0.00  0.00    +0.000 A 
ATOM     19  F   UNL     1       2.665   3.722  17.565  0.00  0.00    +0.000 F 
ENDBRANCH   8  12
BRANCH   1  24
ATOM     20  C   UNL     1      -0.296  12.229  18.503  0.00  0.00    +0.000 A 
ATOM     21  S   UNL     1      -0.066  13.942  18.749  0.00  0.00    +0.000 S 
ATOM     22  N   UNL     1       1.498  13.871  19.257  0.00  0.00    +0.000 NA
ATOM     23  C   UNL     1       1.872  12.598  19.244  0.00  0.00    +0.000 A 
ATOM     24  C   UNL     1       0.921  11.610  18.812  0.00  0.00    +0.000 A 
BRANCH  20  29
ATOM     25  C   UNL     1      -3.847  11.423  18.964  0.00  0.00    +0.000 C 
ATOM     26  C   UNL     1      -4.060  10.379  17.860  0.00  0.00    +0.000 C 
ATOM     27  C   UNL     1      -2.737   9.697  17.508  0.00  0.00    +0.000 C 
ATOM     28  C   UNL     1      -1.655  10.706  17.102  0.00  0.00    +0.000 C 
ATOM     29  N   UNL     1      -1.523  11.731  18.130  0.00  0.00    +0.000 N 
ATOM     30  C   UNL     1      -2.751  12.429  18.537  0.00  0.00    +0.000 C 
BRANCH  25  31
ATOM     31  N   UNL     1      -5.116  12.096  19.275  0.00  0.00    +0.000 NA
ATOM     32  H   UNL     1      -4.957  12.810  19.985  0.00  0.00    +0.000 HD
ATOM     33  H   UNL     1      -5.771  11.431  19.684  0.00  0.00    +0.000 HD
ENDBRANCH  25  31
ENDBRANCH  20  29
ENDBRANCH   1  24
TORSDOF 4
ENDMDL
MODEL 4
REMARK VINA RESULT:      -7.4      0.981      1.261
REMARK  Name = 
REMARK  4 active torsions:
REMARK  status: ('A' for Active; 'I' for Inactive)
REMARK    1  A    between atoms: N_1  and  C_2
REMARK    2  A    between atoms: N_6  and  C_7
REMARK    3  A    between atoms: C_11  and  N_12
REMARK    4  A    between atoms: C_19  and  C_20
REMARK                            x       y       z     vdW  Elec       q    Type
REMARK                         _______ _______ _______ _____ _____    ______ ____
ROOT
ATOM      1  N   UNL     1       1.410  10.282  18.665  0.00  0.00    +0.000 N 
ATOM      2  C   UNL     1       1.190   9.296  19.590  0.00  0.00    +0.000 A 
ATOM      3  N   UNL     1       0.360   9.327  20.616  0.00  0.00    +0.000 NA
ATOM      4  C   UNL     1       0.471   8.120  21.243  0.00  0.00    +0.000 A 
ATOM      5  C   UNL     1       1.382   7.322  20.604  0.00  0.00    +0.000 A 
ATOM      6  C   UNL     1       1.868   6.017  20.787  0.00  0.00    +0.000 A 
ATOM      7  C   UNL     1       2.789   5.550  19.938  0.00  0.00    +0.000 A 
ATOM      8  C   UNL     1       3.289   6.470  18.863  0.00  0.00    +0.000 A 
ATOM      9  N   UNL     1       2.834   7.677  18.661  0.00  0.00    +0.000 NA
ATOM     10  N   UNL     1       1.862   8.069  19.547  0.00  0.00    +0.000 N 
ATOM     11  H   UNL     1       1.974  10.023  17.861  0.00  0.00    +0.000 HD
ENDROOT
BRANCH   8  12
ATOM     12  C   UNL     1       4.368   5.934  17.977  0.00  0.00    +0.000 A 
ATOM     13  C   UNL     1       4.553   6.486  16.706  0.00  0.00    +0.000 A 
ATOM     14  F   UNL     1       3.749   7.459  16.246  0.00  0.00    +0.000 F 
ATOM     15  C   UNL     1       5.569   6.043  15.859  0.00  0.00    +0.000 A 
ATOM     16  C   UNL     1       6.418   5.016  16.262  0.00  0.00    +0.000 A 
ATOM     17  C   UNL     1       6.247   4.444  17.518  0.00  0.00    +0.000 A 
ATOM     18  C   UNL     1       5.238   4.908  18.368  0.00  0.00    +0.000 A 
ATOM     19  F   UNL     1       5.158   4.341  19.580  0.00  0.00    +0.000 F 
ENDBRANCH   8  12
BRANCH   1  24
ATOM     20  C   UNL     1      -0.230  12.130  18.596  0.00  0.00    +0.000 A 
ATOM     21  S   UNL     1      -0.093  13.860  18.781  0.00  0.00    +0.000 S 
ATOM     22  N   UNL     1       1.510  13.905  19.149  0.00  0.00    +0.000 NA
ATOM     23  C   UNL     1       1.965  12.658  19.132  0.00  0.00    +0.000 A 
ATOM     24  C   UNL     1       1.048  11.599  18.810  0.00  0.00    +0.000 A 
BRANCH  20  29
ATOM     25  C   UNL     1      -2.889  10.736  16.484  0.00  0.00    +0.000 C 
ATOM     26  C   UNL     1      -4.082  10.773  17.447  0.00  0.00    +0.000 C 
ATOM     27  C   UNL     1      -3.873  11.847  18.515  0.00  0.00    +0.000 C 
ATOM     28  C   UNL     1      -2.560  11.652  19.284  0.00  0.00    +0.000 C 
ATOM     29  N   UNL     1      -1.449  11.543  18.346  0.00  0.00    +0.000 N 
ATOM     30  C   UNL     1      -1.574  10.542  17.277  0.00  0.00    +0.000 C 
BRANCH  25  31
ATOM     31  N   UNL     1      -3.082   9.681  15.479  0.00  0.00    +0.000 NA
ATOM     32  H   UNL     1      -4.052   9.685  15.164  0.00  0.00    +0.000 HD
ATOM     33  H   UNL     1      -2.924   8.767  15.899  0.00  0.00    +0.000 HD
ENDBRANCH  25  31
ENDBRANCH  20  29
ENDBRANCH   1  24
TORSDOF 4
ENDMDL
MODEL 5
REMARK VINA RESULT:      -7.4      0.914      1.382
REMARK  Name = 
REMARK  4 active torsions:
REMARK  status: ('A' for Active; 'I' for Inactive)
REMARK    1  A    between atoms: N_1  and  C_2
REMARK    2  A    between atoms: N_6  and  C_7
REMARK    3  A    between atoms: C_11  and  N_12
REMARK    4  A    between atoms: C_19  and  C_20
REMARK                            x       y       z     vdW  Elec       q    Type
REMARK                         _______ _______ _______ _____ _____    ______ ____
ROOT
ATOM      1  N   UNL     1       1.207  10.302  18.673  0.00  0.00    +0.000 N 
ATOM      2  C   UNL     1       1.104   9.360  19.661  0.00  0.00    +0.000 A 
ATOM      3  N   UNL     1       0.448   9.461  20.802  0.00  0.00    +0.000 NA
ATOM      4  C   UNL     1       0.617   8.274  21.454  0.00  0.00    +0.000 A 
ATOM      5  C   UNL     1       1.389   7.419  20.714  0.00  0.00    +0.000 A 
ATOM      6  C   UNL     1       1.855   6.104  20.874  0.00  0.00    +0.000 A 
ATOM      7  C   UNL     1       2.615   5.571  19.912  0.00  0.00    +0.000 A 
ATOM      8  C   UNL     1       2.968   6.431  18.734  0.00  0.00    +0.000 A 
ATOM      9  N   UNL     1       2.526   7.646  18.554  0.00  0.00    +0.000 NA
ATOM     10  N   UNL     1       1.720   8.108  19.565  0.00  0.00    +0.000 N 
ATOM     11  H   UNL     1       1.627   9.993  17.801  0.00  0.00    +0.000 HD
ENDROOT
BRANCH   8  12
ATOM     12  C   UNL     1       3.875   5.821  17.713  0.00  0.00    +0.000 A 
ATOM     13  C   UNL     1       3.607   4.535  17.235  0.00  0.00    +0.000 A 
ATOM     14  F   UNL     1       2.576   3.817  17.709  0.00  0.00    +0.000 F 
ATOM     15  C   UNL     1       4.404   3.939  16.257  0.00  0.00    +0.000 A 
ATOM     16  C   UNL     1       5.507   4.617  15.745  0.00  0.00    +0.000 A 
ATOM     17  C   UNL     1       5.800   5.894  16.213  0.00  0.00    +0.000 A 
ATOM     18  C   UNL     1       4.983   6.490  17.179  0.00  0.00    +0.000 A 
ATOM     19  F   UNL     1       5.299   7.738  17.553  0.00  0.00    +0.000 F 
ENDBRANCH   8  12
BRANCH   1  24
ATOM     20  C   UNL     1      -0.305  12.252  18.508  0.00  0.00    +0.000 A 
ATOM     21  S   UNL     1      -0.078  13.966  18.744  0.00  0.00    +0.000 S 
ATOM     22  N   UNL     1       1.488  13.903  19.247  0.00  0.00    +0.000 NA
ATOM     23  C   UNL     1       1.865  12.630  19.239  0.00  0.00    +0.000 A 
ATOM     24  C   UNL     1       0.915  11.637  18.817  0.00  0.00    +0.000 A 
BRANCH  20  29
ATOM     25  C   UNL     1      -3.848  11.424  18.992  0.00  0.00    +0.000 C 
ATOM     26  C   UNL     1      -4.063  10.384  17.887  0.00  0.00    +0.000 C 
ATOM     27  C   UNL     1      -2.740   9.710  17.523  0.00  0.00    +0.000 C 
ATOM     28  C   UNL     1      -1.665  10.726  17.112  0.00  0.00    +0.000 C 
ATOM     29  N   UNL     1      -1.532  11.748  18.143  0.00  0.00    +0.000 N 
ATOM     30  C   UNL     1      -2.761  12.438  18.562  0.00  0.00    +0.000 C 
BRANCH  25  31
ATOM     31  N   UNL     1      -5.118  12.089  19.315  0.00  0.00    +0.000 NA
ATOM     32  H   UNL     1      -4.947  12.850  19.973  0.00  0.00    +0.000 HD
ATOM     33  H   UNL     1      -5.741  11.438  19.791  0.00  0.00    +0.000 HD
ENDBRANCH  25  31
ENDBRANCH  20  29
ENDBRANCH   1  24
TORSDOF 4
ENDMDL
MODEL 6
REMARK VINA RESULT:      -7.3      4.097      6.671
REMARK  Name = 
REMARK  4 active torsions:
REMARK  status: ('A' for Active; 'I' for Inactive)
REMARK    1  A    between atoms: N_1  and  C_2
REMARK    2  A    between atoms: N_6  and  C_7
REMARK    3  A    between atoms: C_11  and  N_12
REMARK    4  A    between atoms: C_19  and  C_20
REMARK                            x       y       z     vdW  Elec       q    Type
REMARK                         _______ _______ _______ _____ _____    ______ ____
ROOT
ATOM      1  N   UNL     1      -3.936  11.874  19.368  0.00  0.00    +0.000 N 
ATOM      2  C   UNL     1      -2.992  12.686  19.939  0.00  0.00    +0.000 A 
ATOM      3  N   UNL     1      -3.137  13.941  20.321  0.00  0.00    +0.000 NA
ATOM      4  C   UNL     1      -1.938  14.330  20.843  0.00  0.00    +0.000 A 
ATOM      5  C   UNL     1      -1.029  13.307  20.787  0.00  0.00    +0.000 A 
ATOM      6  C   UNL     1       0.307  13.137  21.184  0.00  0.00    +0.000 A 
ATOM      7  C   UNL     1       0.897  11.957  20.963  0.00  0.00    +0.000 A 
ATOM      8  C   UNL     1       0.108  10.895  20.254  0.00  0.00    +0.000 A 
ATOM      9  N   UNL     1      -1.142  11.025  19.899  0.00  0.00    +0.000 NA
ATOM     10  N   UNL     1      -1.689  12.248  20.196  0.00  0.00    +0.000 N 
ATOM     11  H   UNL     1      -3.687  10.893  19.279  0.00  0.00    +0.000 HD
ENDROOT
BRANCH   8  12
ATOM     12  C   UNL     1       0.825   9.615  19.964  0.00  0.00    +0.000 A 
ATOM     13  C   UNL     1       1.398   9.418  18.704  0.00  0.00    +0.000 A 
ATOM     14  F   UNL     1       1.277  10.337  17.733  0.00  0.00    +0.000 F 
ATOM     15  C   UNL     1       2.108   8.256  18.400  0.00  0.00    +0.000 A 
ATOM     16  C   UNL     1       2.244   7.249  19.352  0.00  0.00    +0.000 A 
ATOM     17  C   UNL     1       1.674   7.420  20.610  0.00  0.00    +0.000 A 
ATOM     18  C   UNL     1       0.981   8.596  20.912  0.00  0.00    +0.000 A 
ATOM     19  F   UNL     1       0.495   8.711  22.155  0.00  0.00    +0.000 F 
ENDBRANCH   8  12
BRANCH   1  24
ATOM     20  C   UNL     1      -6.260  12.708  19.487  0.00  0.00    +0.000 A 
ATOM     21  S   UNL     1      -7.488  13.008  18.283  0.00  0.00    +0.000 S 
ATOM     22  N   UNL     1      -6.570  12.668  16.959  0.00  0.00    +0.000 NA
ATOM     23  C   UNL     1      -5.360  12.323  17.382  0.00  0.00    +0.000 A 
ATOM     24  C   UNL     1      -5.110  12.303  18.799  0.00  0.00    +0.000 A 
BRANCH  20  29
ATOM     25  C   UNL     1      -7.815  12.040  22.744  0.00  0.00    +0.000 C 
ATOM     26  C   UNL     1      -7.617  13.387  23.449  0.00  0.00    +0.000 C 
ATOM     27  C   UNL     1      -7.481  14.512  22.422  0.00  0.00    +0.000 C 
ATOM     28  C   UNL     1      -6.347  14.250  21.422  0.00  0.00    +0.000 C 
ATOM     29  N   UNL     1      -6.513  12.932  20.820  0.00  0.00    +0.000 N 
ATOM     30  C   UNL     1      -6.665  11.794  21.738  0.00  0.00    +0.000 C 
BRANCH  25  31
ATOM     31  N   UNL     1      -7.915  10.959  23.735  0.00  0.00    +0.000 NA
ATOM     32  H   UNL     1      -7.330  11.182  24.540  0.00  0.00    +0.000 HD
ATOM     33  H   UNL     1      -7.544  10.094  23.346  0.00  0.00    +0.000 HD
ENDBRANCH  25  31
ENDBRANCH  20  29
ENDBRANCH   1  24
TORSDOF 4
ENDMDL
MODEL 7
REMARK VINA RESULT:      -7.2      1.532      2.644
REMARK  Name = 
REMARK  4 active torsions:
REMARK  status: ('A' for Active; 'I' for Inactive)
REMARK    1  A    between atoms: N_1  and  C_2
REMARK    2  A    between atoms: N_6  and  C_7
REMARK    3  A    between atoms: C_11  and  N_12
REMARK    4  A    between atoms: C_19  and  C_20
REMARK                            x       y       z     vdW  Elec       q    Type
REMARK                         _______ _______ _______ _____ _____    ______ ____
ROOT
ATOM      1  N   UNL     1       1.649  10.924  18.521  0.00  0.00    +0.000 N 
ATOM      2  C   UNL     1       1.340  10.138  19.598  0.00  0.00    +0.000 A 
ATOM      3  N   UNL     1       0.745  10.507  20.718  0.00  0.00    +0.000 NA
ATOM      4  C   UNL     1       0.638   9.386  21.489  0.00  0.00    +0.000 A 
ATOM      5  C   UNL     1       1.172   8.301  20.846  0.00  0.00    +0.000 A 
ATOM      6  C   UNL     1       1.314   6.936  21.143  0.00  0.00    +0.000 A 
ATOM      7  C   UNL     1       1.909   6.142  20.246  0.00  0.00    +0.000 A 
ATOM      8  C   UNL     1       2.438   6.770  18.990  0.00  0.00    +0.000 A 
ATOM      9  N   UNL     1       2.295   8.031  18.684  0.00  0.00    +0.000 NA
ATOM     10  N   UNL     1       1.639   8.772  19.635  0.00  0.00    +0.000 N 
ATOM     11  H   UNL     1       1.970  10.437  17.689  0.00  0.00    +0.000 HD
ENDROOT
BRANCH   8  12
ATOM     12  C   UNL     1       3.158   5.862  18.044  0.00  0.00    +0.000 A 
ATOM     13  C   UNL     1       4.350   6.290  17.453  0.00  0.00    +0.000 A 
ATOM     14  F   UNL     1       4.839   7.519  17.682  0.00  0.00    +0.000 F 
ATOM     15  C   UNL     1       5.075   5.463  16.593  0.00  0.00    +0.000 A 
ATOM     16  C   UNL     1       4.608   4.188  16.289  0.00  0.00    +0.000 A 
ATOM     17  C   UNL     1       3.419   3.744  16.858  0.00  0.00    +0.000 A 
ATOM     18  C   UNL     1       2.709   4.572  17.734  0.00  0.00    +0.000 A 
ATOM     19  F   UNL     1       1.595   4.065  18.278  0.00  0.00    +0.000 F 
ENDBRANCH   8  12
BRANCH   1  24
ATOM     20  C   UNL     1       0.577  13.151  18.581  0.00  0.00    +0.000 A 
ATOM     21  S   UNL     1       1.186  14.778  18.414  0.00  0.00    +0.000 S 
ATOM     22  N   UNL     1       2.783  14.394  18.314  0.00  0.00    +0.000 NA
ATOM     23  C   UNL     1       2.889  13.073  18.392  0.00  0.00    +0.000 A 
ATOM     24  C   UNL     1       1.685  12.297  18.526  0.00  0.00    +0.000 A 
BRANCH  20  29
ATOM     25  C   UNL     1      -2.470  12.727  20.583  0.00  0.00    +0.000 C 
ATOM     26  C   UNL     1      -3.385  12.011  19.582  0.00  0.00    +0.000 C 
ATOM     27  C   UNL     1      -2.554  11.266  18.537  0.00  0.00    +0.000 C 
ATOM     28  C   UNL     1      -1.571  12.193  17.809  0.00  0.00    +0.000 C 
ATOM     29  N   UNL     1      -0.764  12.919  18.782  0.00  0.00    +0.000 N 
ATOM     30  C   UNL     1      -1.485  13.654  19.832  0.00  0.00    +0.000 C 
BRANCH  25  31
ATOM     31  N   UNL     1      -3.275  13.466  21.566  0.00  0.00    +0.000 NA
ATOM     32  H   UNL     1      -3.278  12.960  22.452  0.00  0.00    +0.000 HD
ATOM     33  H   UNL     1      -4.246  13.508  21.260  0.00  0.00    +0.000 HD
ENDBRANCH  25  31
ENDBRANCH  20  29
ENDBRANCH   1  24
TORSDOF 4
ENDMDL
MODEL 8
REMARK VINA RESULT:      -7.2      1.514      2.163
REMARK  Name = 
REMARK  4 active torsions:
REMARK  status: ('A' for Active; 'I' for Inactive)
REMARK    1  A    between atoms: N_1  and  C_2
REMARK    2  A    between atoms: N_6  and  C_7
REMARK    3  A    between atoms: C_11  and  N_12
REMARK    4  A    between atoms: C_19  and  C_20
REMARK                            x       y       z     vdW  Elec       q    Type
REMARK                         _______ _______ _______ _____ _____    ______ ____
ROOT
ATOM      1  N   UNL     1       1.677  10.930  18.512  0.00  0.00    +0.000 N 
ATOM      2  C   UNL     1       1.342  10.134  19.575  0.00  0.00    +0.000 A 
ATOM      3  N   UNL     1       0.707  10.490  20.677  0.00  0.00    +0.000 NA
ATOM      4  C   UNL     1       0.587   9.364  21.437  0.00  0.00    +0.000 A 
ATOM      5  C   UNL     1       1.153   8.289  20.806  0.00  0.00    +0.000 A 
ATOM      6  C   UNL     1       1.300   6.923  21.100  0.00  0.00    +0.000 A 
ATOM      7  C   UNL     1       1.932   6.141  20.219  0.00  0.00    +0.000 A 
ATOM      8  C   UNL     1       2.495   6.783  18.984  0.00  0.00    +0.000 A 
ATOM      9  N   UNL     1       2.349   8.044  18.681  0.00  0.00    +0.000 NA
ATOM     10  N   UNL     1       1.654   8.771  19.614  0.00  0.00    +0.000 N 
ATOM     11  H   UNL     1       2.030  10.451  17.688  0.00  0.00    +0.000 HD
ENDROOT
BRANCH   8  12
ATOM     12  C   UNL     1       3.255   5.887  18.057  0.00  0.00    +0.000 A 
ATOM     13  C   UNL     1       2.759   4.612  17.772  0.00  0.00    +0.000 A 
ATOM     14  F   UNL     1       1.636   4.156  18.351  0.00  0.00    +0.000 F 
ATOM     15  C   UNL     1       3.414   3.756  16.886  0.00  0.00    +0.000 A 
ATOM     16  C   UNL     1       4.599   4.154  16.275  0.00  0.00    +0.000 A 
ATOM     17  C   UNL     1       5.117   5.415  16.550  0.00  0.00    +0.000 A 
ATOM     18  C   UNL     1       4.443   6.274  17.425  0.00  0.00    +0.000 A 
ATOM     19  F   UNL     1       4.977   7.489  17.612  0.00  0.00    +0.000 F 
ENDBRANCH   8  12
BRANCH   1  24
ATOM     20  C   UNL     1       0.580  13.145  18.581  0.00  0.00    +0.000 A 
ATOM     21  S   UNL     1       1.173  14.779  18.428  0.00  0.00    +0.000 S 
ATOM     22  N   UNL     1       2.775  14.414  18.335  0.00  0.00    +0.000 NA
ATOM     23  C   UNL     1       2.894  13.094  18.405  0.00  0.00    +0.000 A 
ATOM     24  C   UNL     1       1.698  12.304  18.526  0.00  0.00    +0.000 A 
BRANCH  20  29
ATOM     25  C   UNL     1      -2.468  12.649  20.564  0.00  0.00    +0.000 C 
ATOM     26  C   UNL     1      -3.375  11.949  19.543  0.00  0.00    +0.000 C 
ATOM     27  C   UNL     1      -2.535  11.235  18.484  0.00  0.00    +0.000 C 
ATOM     28  C   UNL     1      -1.557  12.187  17.781  0.00  0.00    +0.000 C 
ATOM     29  N   UNL     1      -0.759  12.897  18.772  0.00  0.00    +0.000 N 
ATOM     30  C   UNL     1      -1.489  13.601  19.836  0.00  0.00    +0.000 C 
BRANCH  25  31
ATOM     31  N   UNL     1      -3.282  13.358  21.561  0.00  0.00    +0.000 NA
ATOM     32  H   UNL     1      -2.860  13.252  22.483  0.00  0.00    +0.000 HD
ATOM     33  H   UNL     1      -4.206  12.933  21.622  0.00  0.00    +0.000 HD
ENDBRANCH  25  31
ENDBRANCH  20  29
ENDBRANCH   1  24
TORSDOF 4
ENDMDL
MODEL 9
REMARK VINA RESULT:      -7.2      3.975      6.441
REMARK  Name = 
REMARK  4 active torsions:
REMARK  status: ('A' for Active; 'I' for Inactive)
REMARK    1  A    between atoms: N_1  and  C_2
REMARK    2  A    between atoms: N_6  and  C_7
REMARK    3  A    between atoms: C_11  and  N_12
REMARK    4  A    between atoms: C_19  and  C_20
REMARK                            x       y       z     vdW  Elec       q    Type
REMARK                         _______ _______ _______ _____ _____    ______ ____
ROOT
ATOM      1  N   UNL     1      -3.765  11.747  19.315  0.00  0.00    +0.000 N 
ATOM      2  C   UNL     1      -2.812  12.549  19.883  0.00  0.00    +0.000 A 
ATOM      3  N   UNL     1      -2.951  13.797  20.290  0.00  0.00    +0.000 NA
ATOM      4  C   UNL     1      -1.743  14.178  20.798  0.00  0.00    +0.000 A 
ATOM      5  C   UNL     1      -0.835  13.157  20.708  0.00  0.00    +0.000 A 
ATOM      6  C   UNL     1       0.508  12.981  21.078  0.00  0.00    +0.000 A 
ATOM      7  C   UNL     1       1.095  11.806  20.825  0.00  0.00    +0.000 A 
ATOM      8  C   UNL     1       0.294  10.756  20.112  0.00  0.00    +0.000 A 
ATOM      9  N   UNL     1      -0.962  10.891  19.781  0.00  0.00    +0.000 NA
ATOM     10  N   UNL     1      -1.504  12.108  20.109  0.00  0.00    +0.000 N 
ATOM     11  H   UNL     1      -3.518  10.768  19.203  0.00  0.00    +0.000 HD
ENDROOT
BRANCH   8  12
ATOM     12  C   UNL     1       1.007   9.482  19.786  0.00  0.00    +0.000 A 
ATOM     13  C   UNL     1       1.129   8.493  20.767  0.00  0.00    +0.000 A 
ATOM     14  F   UNL     1       0.659   8.683  22.010  0.00  0.00    +0.000 F 
ATOM     15  C   UNL     1       1.754   7.274  20.499  0.00  0.00    +0.000 A 
ATOM     16  C   UNL     1       2.291   7.025  19.239  0.00  0.00    +0.000 A 
ATOM     17  C   UNL     1       2.189   7.998  18.251  0.00  0.00    +0.000 A 
ATOM     18  C   UNL     1       1.544   9.209  18.523  0.00  0.00    +0.000 A 
ATOM     19  F   UNL     1       1.446  10.084  17.512  0.00  0.00    +0.000 F 
ENDBRANCH   8  12
BRANCH   1  24
ATOM     20  C   UNL     1      -6.079  12.601  19.489  0.00  0.00    +0.000 A 
ATOM     21  S   UNL     1      -7.333  12.909  18.315  0.00  0.00    +0.000 S 
ATOM     22  N   UNL     1      -6.451  12.559  16.970  0.00  0.00    +0.000 NA
ATOM     23  C   UNL     1      -5.235  12.205  17.363  0.00  0.00    +0.000 A 
ATOM     24  C   UNL     1      -4.950  12.185  18.773  0.00  0.00    +0.000 A 
BRANCH  20  29
ATOM     25  C   UNL     1      -7.689  12.065  22.743  0.00  0.00    +0.000 C 
ATOM     26  C   UNL     1      -7.326  13.365  23.471  0.00  0.00    +0.000 C 
ATOM     27  C   UNL     1      -7.059  14.484  22.464  0.00  0.00    +0.000 C 
ATOM     28  C   UNL     1      -5.970  14.105  21.452  0.00  0.00    +0.000 C 
ATOM     29  N   UNL     1      -6.297  12.829  20.828  0.00  0.00    +0.000 N 
ATOM     30  C   UNL     1      -6.581  11.700  21.726  0.00  0.00    +0.000 C 
BRANCH  25  31
ATOM     31  N   UNL     1      -7.914  10.986  23.716  0.00  0.00    +0.000 NA
ATOM     32  H   UNL     1      -7.648  11.307  24.647  0.00  0.00    +0.000 HD
ATOM     33  H   UNL     1      -7.308  10.195  23.505  0.00  0.00    +0.000 HD
ENDBRANCH  25  31
ENDBRANCH  20  29
ENDBRANCH   1  24
TORSDOF 4
ENDMDL
