MODEL 1
REMARK VINA RESULT:      -8.1      0.000      0.000
REMARK  Name = 
REMARK  7 active torsions:
REMARK  status: ('A' for Active; 'I' for Inactive)
REMARK    1  A    between atoms: C_1  and  C_2
REMARK    2  A    between atoms: C_5  and  C_6
REMARK    3  A    between atoms: C_6  and  C_7
REMARK    4  A    between atoms: C_6  and  C_8
REMARK    5  A    between atoms: C_6  and  N_9
REMARK    6  A    between atoms: C_10  and  C_12
REMARK    7  A    between atoms: N_20  and  O_21
REMARK                            x       y       z     vdW  Elec       q    Type
REMARK                         _______ _______ _______ _____ _____    ______ ____
ROOT
ATOM      1  C   UNL     1       5.625   6.028  17.066  0.00  0.00    +0.000 C 
ATOM      2  C   UNL     1       6.639   6.895  17.837  0.00  0.00    +0.000 C 
ATOM      3  C   UNL     1       4.915   6.872  15.978  0.00  0.00    +0.000 C 
ENDROOT
BRANCH   1   8
ATOM      4  C   UNL     1       5.868   3.518  12.072  0.00  0.00    +0.000 C 
ATOM      5  C   UNL     1       6.054   3.880  13.515  0.00  0.00    +0.000 C 
ATOM      6  C   UNL     1       5.301   3.370  14.496  0.00  0.00    +0.000 C 
ATOM      7  C   UNL     1       5.423   3.658  15.955  0.00  0.00    +0.000 C 
ATOM      8  C   UNL     1       6.367   4.801  16.383  0.00  0.00    +0.000 C 
ATOM      9  C   UNL     1       7.385   5.219  15.300  0.00  0.00    +0.000 C 
ATOM     10  C   UNL     1       7.156   4.819  13.852  0.00  0.00    +0.000 C 
ATOM     11  N   UNL     1       7.924   5.252  12.888  0.00  0.00    +0.000 NA
BRANCH  11  12
ATOM     12  O   UNL     1       8.939   6.092  13.356  0.00  0.00    +0.000 OA
ATOM     13  H   UNL     1       8.453   6.690  13.955  0.00  0.00    +0.000 HD
ENDBRANCH  11  12
ENDBRANCH   1   8
BRANCH   1  14
ATOM     14  N   UNL     1       4.576   5.514  17.987  0.00  0.00    +0.000 N 
ATOM     15  C   UNL     1       4.809   4.663  19.052  0.00  0.00    +0.000 C 
ATOM     16  O   UNL     1       5.919   4.287  19.404  0.00  0.00    +0.000 OA
ATOM     17  H   UNL     1       3.614   5.695  17.744  0.00  0.00    +0.000 HD
BRANCH  15  18
ATOM     18  C   UNL     1       3.606   4.147  19.768  0.00  0.00    +0.000 A 
ATOM     19  C   UNL     1       2.495   4.997  19.870  0.00  0.00    +0.000 A 
ATOM     20  C   UNL     1       1.350   4.580  20.550  0.00  0.00    +0.000 A 
ATOM     21  C   UNL     1       1.305   3.312  21.124  0.00  0.00    +0.000 A 
ATOM     22  C   UNL     1       2.399   2.453  21.008  0.00  0.00    +0.000 A 
ATOM     23  C   UNL     1       3.547   2.864  20.327  0.00  0.00    +0.000 A 
ENDBRANCH  15  18
ENDBRANCH   1  14
TORSDOF 4
ENDMDL
MODEL 2
REMARK VINA RESULT:      -8.1      2.088      7.150
REMARK  Name = 
REMARK  7 active torsions:
REMARK  status: ('A' for Active; 'I' for Inactive)
REMARK    1  A    between atoms: C_1  and  C_2
REMARK    2  A    between atoms: C_5  and  C_6
REMARK    3  A    between atoms: C_6  and  C_7
REMARK    4  A    between atoms: C_6  and  C_8
REMARK    5  A    between atoms: C_6  and  N_9
REMARK    6  A    between atoms: C_10  and  C_12
REMARK    7  A    between atoms: N_20  and  O_21
REMARK                            x       y       z     vdW  Elec       q    Type
REMARK                         _______ _______ _______ _____ _____    ______ ____
ROOT
ATOM      1  C   UNL     1       4.761   5.240  17.439  0.00  0.00    +0.000 C 
ATOM      2  C   UNL     1       5.128   6.720  17.667  0.00  0.00    +0.000 C 
ATOM      3  C   UNL     1       5.508   4.339  18.453  0.00  0.00    +0.000 C 
ENDROOT
BRANCH   1   8
ATOM      4  C   UNL     1       1.189   2.886  21.044  0.00  0.00    +0.000 C 
ATOM      5  C   UNL     1       1.798   3.586  19.866  0.00  0.00    +0.000 C 
ATOM      6  C   UNL     1       2.146   2.951  18.742  0.00  0.00    +0.000 C 
ATOM      7  C   UNL     1       2.741   3.565  17.519  0.00  0.00    +0.000 C 
ATOM      8  C   UNL     1       3.195   5.037  17.604  0.00  0.00    +0.000 C 
ATOM      9  C   UNL     1       2.592   5.816  18.794  0.00  0.00    +0.000 C 
ATOM     10  C   UNL     1       1.977   5.059  19.959  0.00  0.00    +0.000 C 
ATOM     11  N   UNL     1       1.567   5.670  21.038  0.00  0.00    +0.000 NA
BRANCH  11  12
ATOM     12  O   UNL     1       1.763   7.054  20.970  0.00  0.00    +0.000 OA
ATOM     13  H   UNL     1       2.046   7.269  21.878  0.00  0.00    +0.000 HD
ENDBRANCH  11  12
ENDBRANCH   1   8
BRANCH   1  14
ATOM     14  N   UNL     1       5.168   4.809  16.074  0.00  0.00    +0.000 N 
ATOM     15  C   UNL     1       6.447   4.922  15.560  0.00  0.00    +0.000 C 
ATOM     16  O   UNL     1       7.412   5.329  16.193  0.00  0.00    +0.000 OA
ATOM     17  H   UNL     1       4.438   4.533  15.437  0.00  0.00    +0.000 HD
BRANCH  15  18
ATOM     18  C   UNL     1       6.620   4.566  14.122  0.00  0.00    +0.000 A 
ATOM     19  C   UNL     1       5.767   3.591  13.585  0.00  0.00    +0.000 A 
ATOM     20  C   UNL     1       5.896   3.196  12.253  0.00  0.00    +0.000 A 
ATOM     21  C   UNL     1       6.872   3.778  11.448  0.00  0.00    +0.000 A 
ATOM     22  C   UNL     1       7.711   4.765  11.969  0.00  0.00    +0.000 A 
ATOM     23  C   UNL     1       7.584   5.165  13.301  0.00  0.00    +0.000 A 
ENDBRANCH  15  18
ENDBRANCH   1  14
TORSDOF 4
ENDMDL
MODEL 3
REMARK VINA RESULT:      -8.1      0.106      1.059
REMARK  Name = 
REMARK  7 active torsions:
REMARK  status: ('A' for Active; 'I' for Inactive)
REMARK    1  A    between atoms: C_1  and  C_2
REMARK    2  A    between atoms: C_5  and  C_6
REMARK    3  A    between atoms: C_6  and  C_7
REMARK    4  A    between atoms: C_6  and  C_8
REMARK    5  A    between atoms: C_6  and  N_9
REMARK    6  A    between atoms: C_10  and  C_12
REMARK    7  A    between atoms: N_20  and  O_21
REMARK                            x       y       z     vdW  Elec       q    Type
REMARK                         _______ _______ _______ _____ _____    ______ ____
ROOT
ATOM      1  C   UNL     1       5.628   6.119  17.031  0.00  0.00    +0.000 C 
ATOM      2  C   UNL     1       6.647   6.988  17.795  0.00  0.00    +0.000 C 
ATOM      3  C   UNL     1       4.940   6.950  15.920  0.00  0.00    +0.000 C 
ENDROOT
BRANCH   1   8
ATOM      4  C   UNL     1       5.890   3.511  12.088  0.00  0.00    +0.000 C 
ATOM      5  C   UNL     1       6.065   3.898  13.527  0.00  0.00    +0.000 C 
ATOM      6  C   UNL     1       5.295   3.417  14.508  0.00  0.00    +0.000 C 
ATOM      7  C   UNL     1       5.405   3.731  15.963  0.00  0.00    +0.000 C 
ATOM      8  C   UNL     1       6.360   4.869  16.380  0.00  0.00    +0.000 C 
ATOM      9  C   UNL     1       7.396   5.252  15.300  0.00  0.00    +0.000 C 
ATOM     10  C   UNL     1       7.177   4.827  13.858  0.00  0.00    +0.000 C 
ATOM     11  N   UNL     1       7.961   5.231  12.894  0.00  0.00    +0.000 NA
BRANCH  11  12
ATOM     12  O   UNL     1       8.983   6.066  13.358  0.00  0.00    +0.000 OA
ATOM     13  H   UNL     1       8.570   6.487  14.135  0.00  0.00    +0.000 HD
ENDBRANCH  11  12
ENDBRANCH   1   8
BRANCH   1  14
ATOM     14  N   UNL     1       4.564   5.637  17.952  0.00  0.00    +0.000 N 
ATOM     15  C   UNL     1       4.778   4.820  19.047  0.00  0.00    +0.000 C 
ATOM     16  O   UNL     1       5.882   4.452  19.427  0.00  0.00    +0.000 OA
ATOM     17  H   UNL     1       3.607   5.814  17.689  0.00  0.00    +0.000 HD
BRANCH  15  18
ATOM     18  C   UNL     1       3.564   4.330  19.760  0.00  0.00    +0.000 A 
ATOM     19  C   UNL     1       3.592   3.026  20.276  0.00  0.00    +0.000 A 
ATOM     20  C   UNL     1       2.477   2.503  20.930  0.00  0.00    +0.000 A 
ATOM     21  C   UNL     1       1.331   3.280  21.081  0.00  0.00    +0.000 A 
ATOM     22  C   UNL     1       1.303   4.586  20.589  0.00  0.00    +0.000 A 
ATOM     23  C   UNL     1       2.417   5.116  19.935  0.00  0.00    +0.000 A 
ENDBRANCH  15  18
ENDBRANCH   1  14
TORSDOF 4
ENDMDL
MODEL 4
REMARK VINA RESULT:      -8.1      1.966      6.358
REMARK  Name = 
REMARK  7 active torsions:
REMARK  status: ('A' for Active; 'I' for Inactive)
REMARK    1  A    between atoms: C_1  and  C_2
REMARK    2  A    between atoms: C_5  and  C_6
REMARK    3  A    between atoms: C_6  and  C_7
REMARK    4  A    between atoms: C_6  and  C_8
REMARK    5  A    between atoms: C_6  and  N_9
REMARK    6  A    between atoms: C_10  and  C_12
REMARK    7  A    between atoms: N_20  and  O_21
REMARK                            x       y       z     vdW  Elec       q    Type
REMARK                         _______ _______ _______ _____ _____    ______ ____
ROOT
ATOM      1  C   UNL     1       6.262   5.852  17.625  0.00  0.00    +0.000 C 
ATOM      2  C   UNL     1       6.413   7.356  17.325  0.00  0.00    +0.000 C 
ATOM      3  C   UNL     1       7.554   5.302  18.278  0.00  0.00    +0.000 C 
ENDROOT
BRANCH   1   8
ATOM      4  C   UNL     1       1.805   2.494  18.022  0.00  0.00    +0.000 C 
ATOM      5  C   UNL     1       2.831   3.564  18.253  0.00  0.00    +0.000 C 
ATOM      6  C   UNL     1       2.704   4.808  17.780  0.00  0.00    +0.000 C 
ATOM      7  C   UNL     1       3.661   5.936  17.972  0.00  0.00    +0.000 C 
ATOM      8  C   UNL     1       5.032   5.614  18.601  0.00  0.00    +0.000 C 
ATOM      9  C   UNL     1       5.084   4.260  19.343  0.00  0.00    +0.000 C 
ATOM     10  C   UNL     1       4.014   3.213  19.080  0.00  0.00    +0.000 C 
ATOM     11  N   UNL     1       4.086   2.013  19.591  0.00  0.00    +0.000 NA
BRANCH  11  12
ATOM     12  O   UNL     1       5.230   1.838  20.377  0.00  0.00    +0.000 OA
ATOM     13  H   UNL     1       4.892   2.009  21.276  0.00  0.00    +0.000 HD
ENDBRANCH  11  12
ENDBRANCH   1   8
BRANCH   1  14
ATOM     14  N   UNL     1       6.041   5.092  16.366  0.00  0.00    +0.000 N 
ATOM     15  C   UNL     1       6.845   5.171  15.244  0.00  0.00    +0.000 C 
ATOM     16  O   UNL     1       7.876   5.829  15.179  0.00  0.00    +0.000 OA
ATOM     17  H   UNL     1       5.176   4.580  16.277  0.00  0.00    +0.000 HD
BRANCH  15  18
ATOM     18  C   UNL     1       6.373   4.440  14.033  0.00  0.00    +0.000 A 
ATOM     19  C   UNL     1       7.289   4.252  12.987  0.00  0.00    +0.000 A 
ATOM     20  C   UNL     1       6.900   3.598  11.818  0.00  0.00    +0.000 A 
ATOM     21  C   UNL     1       5.598   3.122  11.689  0.00  0.00    +0.000 A 
ATOM     22  C   UNL     1       4.686   3.286  12.733  0.00  0.00    +0.000 A 
ATOM     23  C   UNL     1       5.071   3.938  13.907  0.00  0.00    +0.000 A 
ENDBRANCH  15  18
ENDBRANCH   1  14
TORSDOF 4
ENDMDL
MODEL 5
REMARK VINA RESULT:      -8.1      2.006      6.319
REMARK  Name = 
REMARK  7 active torsions:
REMARK  status: ('A' for Active; 'I' for Inactive)
REMARK    1  A    between atoms: C_1  and  C_2
REMARK    2  A    between atoms: C_5  and  C_6
REMARK    3  A    between atoms: C_6  and  C_7
REMARK    4  A    between atoms: C_6  and  C_8
REMARK    5  A    between atoms: C_6  and  N_9
REMARK    6  A    between atoms: C_10  and  C_12
REMARK    7  A    between atoms: N_20  and  O_21
REMARK                            x       y       z     vdW  Elec       q    Type
REMARK                         _______ _______ _______ _____ _____    ______ ____
ROOT
ATOM      1  C   UNL     1       6.359   5.758  17.561  0.00  0.00    +0.000 C 
ATOM      2  C   UNL     1       6.550   7.263  17.288  0.00  0.00    +0.000 C 
ATOM      3  C   UNL     1       7.630   5.167  18.220  0.00  0.00    +0.000 C 
ENDROOT
BRANCH   1   8
ATOM      4  C   UNL     1       1.878   2.428  17.911  0.00  0.00    +0.000 C 
ATOM      5  C   UNL     1       2.906   3.493  18.151  0.00  0.00    +0.000 C 
ATOM      6  C   UNL     1       2.793   4.734  17.667  0.00  0.00    +0.000 C 
ATOM      7  C   UNL     1       3.754   5.859  17.866  0.00  0.00    +0.000 C 
ATOM      8  C   UNL     1       5.113   5.533  18.520  0.00  0.00    +0.000 C 
ATOM      9  C   UNL     1       5.146   4.185  19.271  0.00  0.00    +0.000 C 
ATOM     10  C   UNL     1       4.074   3.142  19.000  0.00  0.00    +0.000 C 
ATOM     11  N   UNL     1       4.131   1.945  19.520  0.00  0.00    +0.000 NA
BRANCH  11  12
ATOM     12  O   UNL     1       5.261   1.770  20.325  0.00  0.00    +0.000 OA
ATOM     13  H   UNL     1       4.992   1.033  20.904  0.00  0.00    +0.000 HD
ENDBRANCH  11  12
ENDBRANCH   1   8
BRANCH   1  14
ATOM     14  N   UNL     1       6.135   5.023  16.287  0.00  0.00    +0.000 N 
ATOM     15  C   UNL     1       6.928   5.137  15.160  0.00  0.00    +0.000 C 
ATOM     16  O   UNL     1       7.951   5.807  15.101  0.00  0.00    +0.000 OA
ATOM     17  H   UNL     1       5.275   4.504  16.195  0.00  0.00    +0.000 HD
BRANCH  15  18
ATOM     18  C   UNL     1       6.453   4.428  13.937  0.00  0.00    +0.000 A 
ATOM     19  C   UNL     1       5.117   4.002  13.909  0.00  0.00    +0.000 A 
ATOM     20  C   UNL     1       4.621   3.310  12.803  0.00  0.00    +0.000 A 
ATOM     21  C   UNL     1       5.453   3.047  11.718  0.00  0.00    +0.000 A 
ATOM     22  C   UNL     1       6.778   3.486  11.730  0.00  0.00    +0.000 A 
ATOM     23  C   UNL     1       7.279   4.181  12.833  0.00  0.00    +0.000 A 
ENDBRANCH  15  18
ENDBRANCH   1  14
TORSDOF 4
ENDMDL
MODEL 6
REMARK VINA RESULT:      -8.0      2.098      7.143
REMARK  Name = 
REMARK  7 active torsions:
REMARK  status: ('A' for Active; 'I' for Inactive)
REMARK    1  A    between atoms: C_1  and  C_2
REMARK    2  A    between atoms: C_5  and  C_6
REMARK    3  A    between atoms: C_6  and  C_7
REMARK    4  A    between atoms: C_6  and  C_8
REMARK    5  A    between atoms: C_6  and  N_9
REMARK    6  A    between atoms: C_10  and  C_12
REMARK    7  A    between atoms: N_20  and  O_21
REMARK                            x       y       z     vdW  Elec       q    Type
REMARK                         _______ _______ _______ _____ _____    ______ ____
ROOT
ATOM      1  C   UNL     1       4.699   5.374  17.451  0.00  0.00    +0.000 C 
ATOM      2  C   UNL     1       5.026   6.873  17.600  0.00  0.00    +0.000 C 
ATOM      3  C   UNL     1       5.472   4.548  18.508  0.00  0.00    +0.000 C 
ENDROOT
BRANCH   1   8
ATOM      4  C   UNL     1       1.215   2.935  21.085  0.00  0.00    +0.000 C 
ATOM      5  C   UNL     1       1.797   3.652  19.903  0.00  0.00    +0.000 C 
ATOM      6  C   UNL     1       2.146   3.028  18.774  0.00  0.00    +0.000 C 
ATOM      7  C   UNL     1       2.715   3.657  17.546  0.00  0.00    +0.000 C 
ATOM      8  C   UNL     1       3.139   5.138  17.632  0.00  0.00    +0.000 C 
ATOM      9  C   UNL     1       2.533   5.901  18.830  0.00  0.00    +0.000 C 
ATOM     10  C   UNL     1       1.946   5.127  19.999  0.00  0.00    +0.000 C 
ATOM     11  N   UNL     1       1.535   5.727  21.085  0.00  0.00    +0.000 NA
BRANCH  11  12
ATOM     12  O   UNL     1       1.701   7.114  21.019  0.00  0.00    +0.000 OA
ATOM     13  H   UNL     1       0.799   7.422  20.813  0.00  0.00    +0.000 HD
ENDBRANCH  11  12
ENDBRANCH   1   8
BRANCH   1  14
ATOM     14  N   UNL     1       5.115   4.884  16.109  0.00  0.00    +0.000 N 
ATOM     15  C   UNL     1       6.390   5.002  15.586  0.00  0.00    +0.000 C 
ATOM     16  O   UNL     1       7.345   5.466  16.195  0.00  0.00    +0.000 OA
ATOM     17  H   UNL     1       4.391   4.556  15.489  0.00  0.00    +0.000 HD
BRANCH  15  18
ATOM     18  C   UNL     1       6.570   4.576  14.168  0.00  0.00    +0.000 A 
ATOM     19  C   UNL     1       7.585   5.196  13.425  0.00  0.00    +0.000 A 
ATOM     20  C   UNL     1       7.785   4.859  12.086  0.00  0.00    +0.000 A 
ATOM     21  C   UNL     1       6.979   3.896  11.484  0.00  0.00    +0.000 A 
ATOM     22  C   UNL     1       5.981   3.259  12.223  0.00  0.00    +0.000 A 
ATOM     23  C   UNL     1       5.777   3.591  13.564  0.00  0.00    +0.000 A 
ENDBRANCH  15  18
ENDBRANCH   1  14
TORSDOF 4
ENDMDL
MODEL 7
REMARK VINA RESULT:      -7.8      3.019      4.873
REMARK  Name = 
REMARK  7 active torsions:
REMARK  status: ('A' for Active; 'I' for Inactive)
REMARK    1  A    between atoms: C_1  and  C_2
REMARK    2  A    between atoms: C_5  and  C_6
REMARK    3  A    between atoms: C_6  and  C_7
REMARK    4  A    between atoms: C_6  and  C_8
REMARK    5  A    between atoms: C_6  and  N_9
REMARK    6  A    between atoms: C_10  and  C_12
REMARK    7  A    between atoms: N_20  and  O_21
REMARK                            x       y       z     vdW  Elec       q    Type
REMARK                         _______ _______ _______ _____ _____    ______ ____
ROOT
ATOM      1  C   UNL     1       3.842   4.274  18.173  0.00  0.00    +0.000 C 
ATOM      2  C   UNL     1       2.920   3.484  17.225  0.00  0.00    +0.000 C 
ATOM      3  C   UNL     1       3.918   3.578  19.554  0.00  0.00    +0.000 C 
ENDROOT
BRANCH   1   8
ATOM      4  C   UNL     1       7.859   8.110  17.498  0.00  0.00    +0.000 C 
ATOM      5  C   UNL     1       7.047   6.849  17.462  0.00  0.00    +0.000 C 
ATOM      6  C   UNL     1       6.226   6.541  16.453  0.00  0.00    +0.000 C 
ATOM      7  C   UNL     1       5.394   5.308  16.325  0.00  0.00    +0.000 C 
ATOM      8  C   UNL     1       5.300   4.377  17.552  0.00  0.00    +0.000 C 
ATOM      9  C   UNL     1       6.407   4.605  18.605  0.00  0.00    +0.000 C 
ATOM     10  C   UNL     1       7.208   5.896  18.591  0.00  0.00    +0.000 C 
ATOM     11  N   UNL     1       8.067   6.183  19.533  0.00  0.00    +0.000 NA
BRANCH  11  12
ATOM     12  O   UNL     1       8.142   5.181  20.505  0.00  0.00    +0.000 OA
ATOM     13  H   UNL     1       9.041   4.828  20.371  0.00  0.00    +0.000 HD
ENDBRANCH  11  12
ENDBRANCH   1   8
BRANCH   1  14
ATOM     14  N   UNL     1       3.307   5.645  18.394  0.00  0.00    +0.000 N 
ATOM     15  C   UNL     1       2.634   6.056  19.529  0.00  0.00    +0.000 C 
ATOM     16  O   UNL     1       2.457   5.356  20.518  0.00  0.00    +0.000 OA
ATOM     17  H   UNL     1       3.326   6.282  17.613  0.00  0.00    +0.000 HD
BRANCH  15  18
ATOM     18  C   UNL     1       2.051   7.429  19.498  0.00  0.00    +0.000 A 
ATOM     19  C   UNL     1       2.137   8.145  18.295  0.00  0.00    +0.000 A 
ATOM     20  C   UNL     1       1.634   9.444  18.210  0.00  0.00    +0.000 A 
ATOM     21  C   UNL     1       1.035  10.031  19.322  0.00  0.00    +0.000 A 
ATOM     22  C   UNL     1       0.926   9.316  20.517  0.00  0.00    +0.000 A 
ATOM     23  C   UNL     1       1.427   8.015  20.606  0.00  0.00    +0.000 A 
ENDBRANCH  15  18
ENDBRANCH   1  14
TORSDOF 4
ENDMDL
MODEL 8
REMARK VINA RESULT:      -7.7      2.953      6.733
REMARK  Name = 
REMARK  7 active torsions:
REMARK  status: ('A' for Active; 'I' for Inactive)
REMARK    1  A    between atoms: C_1  and  C_2
REMARK    2  A    between atoms: C_5  and  C_6
REMARK    3  A    between atoms: C_6  and  C_7
REMARK    4  A    between atoms: C_6  and  C_8
REMARK    5  A    between atoms: C_6  and  N_9
REMARK    6  A    between atoms: C_10  and  C_12
REMARK    7  A    between atoms: N_20  and  O_21
REMARK                            x       y       z     vdW  Elec       q    Type
REMARK                         _______ _______ _______ _____ _____    ______ ____
ROOT
ATOM      1  C   UNL     1       6.034   6.313  16.962  0.00  0.00    +0.000 C 
ATOM      2  C   UNL     1       7.028   5.138  16.879  0.00  0.00    +0.000 C 
ATOM      3  C   UNL     1       5.211   6.413  15.654  0.00  0.00    +0.000 C 
ENDROOT
BRANCH   1   8
ATOM      4  C   UNL     1       1.477   3.330  18.239  0.00  0.00    +0.000 C 
ATOM      5  C   UNL     1       2.632   4.286  18.274  0.00  0.00    +0.000 C 
ATOM      6  C   UNL     1       2.524   5.569  17.914  0.00  0.00    +0.000 C 
ATOM      7  C   UNL     1       3.609   6.593  17.930  0.00  0.00    +0.000 C 
ATOM      8  C   UNL     1       5.050   6.107  18.191  0.00  0.00    +0.000 C 
ATOM      9  C   UNL     1       5.137   4.701  18.824  0.00  0.00    +0.000 C 
ATOM     10  C   UNL     1       3.934   3.773  18.771  0.00  0.00    +0.000 C 
ATOM     11  N   UNL     1       4.001   2.535  19.184  0.00  0.00    +0.000 NA
BRANCH  11  12
ATOM     12  O   UNL     1       5.274   2.203  19.660  0.00  0.00    +0.000 OA
ATOM     13  H   UNL     1       5.598   1.589  18.975  0.00  0.00    +0.000 HD
ENDBRANCH  11  12
ENDBRANCH   1   8
BRANCH   1  14
ATOM     14  N   UNL     1       6.763   7.599  17.130  0.00  0.00    +0.000 N 
ATOM     15  C   UNL     1       7.774   7.818  18.048  0.00  0.00    +0.000 C 
ATOM     16  O   UNL     1       8.235   6.957  18.787  0.00  0.00    +0.000 OA
ATOM     17  H   UNL     1       6.413   8.400  16.629  0.00  0.00    +0.000 HD
BRANCH  15  18
ATOM     18  C   UNL     1       8.280   9.217  18.159  0.00  0.00    +0.000 A 
ATOM     19  C   UNL     1       9.280   9.474  19.108  0.00  0.00    +0.000 A 
ATOM     20  C   UNL     1       9.776  10.767  19.277  0.00  0.00    +0.000 A 
ATOM     21  C   UNL     1       9.282  11.808  18.494  0.00  0.00    +0.000 A 
ATOM     22  C   UNL     1       8.302  11.556  17.533  0.00  0.00    +0.000 A 
ATOM     23  C   UNL     1       7.804  10.263  17.359  0.00  0.00    +0.000 A 
ENDBRANCH  15  18
ENDBRANCH   1  14
TORSDOF 4
ENDMDL
MODEL 9
REMARK VINA RESULT:      -7.7      3.018      4.842
REMARK  Name = 
REMARK  7 active torsions:
REMARK  status: ('A' for Active; 'I' for Inactive)
REMARK    1  A    between atoms: C_1  and  C_2
REMARK    2  A    between atoms: C_5  and  C_6
REMARK    3  A    between atoms: C_6  and  C_7
REMARK    4  A    between atoms: C_6  and  C_8
REMARK    5  A    between atoms: C_6  and  N_9
REMARK    6  A    between atoms: C_10  and  C_12
REMARK    7  A    between atoms: N_20  and  O_21
REMARK                            x       y       z     vdW  Elec       q    Type
REMARK                         _______ _______ _______ _____ _____    ______ ____
ROOT
ATOM      1  C   UNL     1       3.907   4.268  18.332  0.00  0.00    +0.000 C 
ATOM      2  C   UNL     1       2.901   3.542  17.417  0.00  0.00    +0.000 C 
ATOM      3  C   UNL     1       4.109   3.474  19.646  0.00  0.00    +0.000 C 
ENDROOT
BRANCH   1   8
ATOM      4  C   UNL     1       7.793   8.202  17.485  0.00  0.00    +0.000 C 
ATOM      5  C   UNL     1       6.999   6.930  17.462  0.00  0.00    +0.000 C 
ATOM      6  C   UNL     1       6.095   6.654  16.517  0.00  0.00    +0.000 C 
ATOM      7  C   UNL     1       5.272   5.414  16.405  0.00  0.00    +0.000 C 
ATOM      8  C   UNL     1       5.301   4.426  17.589  0.00  0.00    +0.000 C 
ATOM      9  C   UNL     1       6.495   4.624  18.549  0.00  0.00    +0.000 C 
ATOM     10  C   UNL     1       7.274   5.929  18.526  0.00  0.00    +0.000 C 
ATOM     11  N   UNL     1       8.210   6.187  19.400  0.00  0.00    +0.000 NA
BRANCH  11  12
ATOM     12  O   UNL     1       8.385   5.142  20.313  0.00  0.00    +0.000 OA
ATOM     13  H   UNL     1       8.372   5.610  21.168  0.00  0.00    +0.000 HD
ENDBRANCH  11  12
ENDBRANCH   1   8
BRANCH   1  14
ATOM     14  N   UNL     1       3.394   5.616  18.700  0.00  0.00    +0.000 N 
ATOM     15  C   UNL     1       2.342   5.851  19.567  0.00  0.00    +0.000 C 
ATOM     16  O   UNL     1       1.751   4.976  20.187  0.00  0.00    +0.000 OA
ATOM     17  H   UNL     1       3.754   6.406  18.188  0.00  0.00    +0.000 HD
BRANCH  15  18
ATOM     18  C   UNL     1       1.887   7.265  19.694  0.00  0.00    +0.000 A 
ATOM     19  C   UNL     1       1.410   7.686  20.943  0.00  0.00    +0.000 A 
ATOM     20  C   UNL     1       0.946   8.990  21.118  0.00  0.00    +0.000 A 
ATOM     21  C   UNL     1       0.964   9.883  20.049  0.00  0.00    +0.000 A 
ATOM     22  C   UNL     1       1.458   9.478  18.808  0.00  0.00    +0.000 A 
ATOM     23  C   UNL     1       1.925   8.174  18.628  0.00  0.00    +0.000 A 
ENDBRANCH  15  18
ENDBRANCH   1  14
TORSDOF 4
ENDMDL
