MODEL 1
REMARK VINA RESULT:      -7.5      0.000      0.000
REMARK  Name = 
REMARK  15 active torsions:
REMARK  status: ('A' for Active; 'I' for Inactive)
REMARK    1  A    between atoms: C_1  and  C_2
REMARK    2  A    between atoms: C_2  and  C_3
REMARK    3  A    between atoms: C_4  and  C_5
REMARK    4  A    between atoms: C_5  and  N_6
REMARK    5  A    between atoms: C_7  and  O_8
REMARK    6  A    between atoms: O_8  and  C_9
REMARK    7  A    between atoms: C_9  and  C_10
REMARK    8  A    between atoms: C_10  and  C_11
REMARK    9  A    between atoms: C_10  and  C_12
REMARK   10  A    between atoms: C_10  and  C_13
REMARK   11  A    between atoms: C_13  and  N_14
REMARK   12  A    between atoms: N_20  and  C_21
REMARK   13  A    between atoms: C_21  and  C_22
REMARK   14  A    between atoms: C_22  and  C_24
REMARK   15  A    between atoms: N_32  and  C_33
REMARK                            x       y       z     vdW  Elec       q    Type
REMARK                         _______ _______ _______ _____ _____    ______ ____
ROOT
ATOM      1  N   UNL     1       2.531   7.544  18.724  0.00  0.00    +0.000 N 
ATOM      2  C   UNL     1       2.439   6.660  19.801  0.00  0.00    +0.000 A 
ATOM      3  N   UNL     1       1.654   7.144  20.741  0.00  0.00    +0.000 NA
ATOM      4  C   UNL     1       1.269   8.361  20.290  0.00  0.00    +0.000 A 
ATOM      5  C   UNL     1       1.810   8.673  19.079  0.00  0.00    +0.000 A 
ATOM      6  C   UNL     1       1.583   9.963  18.484  0.00  0.00    +0.000 A 
ATOM      7  O   UNL     1       2.164  10.365  17.478  0.00  0.00    +0.000 OA
ATOM      8  N   UNL     1       0.687  10.774  19.199  0.00  0.00    +0.000 N 
ATOM      9  C   UNL     1       0.122  10.452  20.445  0.00  0.00    +0.000 A 
ATOM     10  O   UNL     1      -0.592  11.255  21.052  0.00  0.00    +0.000 OA
ATOM     11  N   UNL     1       0.450   9.214  20.987  0.00  0.00    +0.000 N 
ATOM     12  C   UNL     1      -0.043   8.817  22.295  0.00  0.00    +0.000 C 
ENDROOT
BRANCH   1  13
ATOM     13  C   UNL     1       3.300   7.272  17.501  0.00  0.00    +0.000 C 
BRANCH  13  17
ATOM     14  C   UNL     1       7.118   6.427  17.339  0.00  0.00    +0.000 C 
ATOM     15  C   UNL     1       5.679   6.542  16.905  0.00  0.00    +0.000 C 
ATOM     16  C   UNL     1       5.308   5.866  15.613  0.00  0.00    +0.000 C 
ATOM     17  C   UNL     1       4.795   7.199  17.686  0.00  0.00    +0.000 C 
ENDBRANCH  13  17
ENDBRANCH   1  13
BRANCH   2  18
ATOM     18  O   UNL     1       3.050   5.470  19.897  0.00  0.00    +0.000 OA
BRANCH  18  19
ATOM     19  C   UNL     1       2.117   4.361  19.814  0.00  0.00    +0.000 C 
BRANCH  19  20
ATOM     20  C   UNL     1       2.536   3.176  18.892  0.00  0.00    +0.000 C 
ATOM     21  C   UNL     1       1.359   2.166  18.868  0.00  0.00    +0.000 C 
ATOM     22  C   UNL     1       2.768   3.685  17.458  0.00  0.00    +0.000 C 
BRANCH  20  23
ATOM     23  C   UNL     1       3.811   2.486  19.440  0.00  0.00    +0.000 C 
BRANCH  23  24
ATOM     24  N   UNL     1       5.042   3.245  19.203  0.00  0.00    +0.000 NA
ATOM     25  H   UNL     1       4.827   4.226  19.030  0.00  0.00    +0.000 HD
ATOM     26  H   UNL     1       5.495   2.908  18.353  0.00  0.00    +0.000 HD
ENDBRANCH  23  24
ENDBRANCH  20  23
ENDBRANCH  19  20
ENDBRANCH  18  19
ENDBRANCH   2  18
BRANCH   8  27
ATOM     27  C   UNL     1       0.428  12.131  18.696  0.00  0.00    +0.000 C 
BRANCH  27  28
ATOM     28  C   UNL     1       1.377  13.203  19.243  0.00  0.00    +0.000 C 
ATOM     29  O   UNL     1       2.285  12.956  20.034  0.00  0.00    +0.000 OA
BRANCH  28  30
ATOM     30  C   UNL     1       1.143  14.626  18.811  0.00  0.00    +0.000 A 
ATOM     31  C   UNL     1       2.248  15.420  18.465  0.00  0.00    +0.000 A 
ATOM     32  C   UNL     1       2.085  16.778  18.169  0.00  0.00    +0.000 A 
ATOM     33  C   UNL     1       0.815  17.352  18.193  0.00  0.00    +0.000 A 
ATOM     34  C   UNL     1      -0.296  16.560  18.481  0.00  0.00    +0.000 A 
ATOM     35  C   UNL     1      -0.136  15.202  18.784  0.00  0.00    +0.000 A 
ENDBRANCH  28  30
ENDBRANCH  27  28
ENDBRANCH   8  27
TORSDOF 10
ENDMDL
MODEL 2
REMARK VINA RESULT:      -7.3      2.659      4.820
REMARK  Name = 
REMARK  15 active torsions:
REMARK  status: ('A' for Active; 'I' for Inactive)
REMARK    1  A    between atoms: C_1  and  C_2
REMARK    2  A    between atoms: C_2  and  C_3
REMARK    3  A    between atoms: C_4  and  C_5
REMARK    4  A    between atoms: C_5  and  N_6
REMARK    5  A    between atoms: C_7  and  O_8
REMARK    6  A    between atoms: O_8  and  C_9
REMARK    7  A    between atoms: C_9  and  C_10
REMARK    8  A    between atoms: C_10  and  C_11
REMARK    9  A    between atoms: C_10  and  C_12
REMARK   10  A    between atoms: C_10  and  C_13
REMARK   11  A    between atoms: C_13  and  N_14
REMARK   12  A    between atoms: N_20  and  C_21
REMARK   13  A    between atoms: C_21  and  C_22
REMARK   14  A    between atoms: C_22  and  C_24
REMARK   15  A    between atoms: N_32  and  C_33
REMARK                            x       y       z     vdW  Elec       q    Type
REMARK                         _______ _______ _______ _____ _____    ______ ____
ROOT
ATOM      1  N   UNL     1       2.057   7.013  19.758  0.00  0.00    +0.000 N 
ATOM      2  C   UNL     1       2.960   7.156  18.704  0.00  0.00    +0.000 A 
ATOM      3  N   UNL     1       2.925   8.379  18.217  0.00  0.00    +0.000 NA
ATOM      4  C   UNL     1       1.969   9.018  18.931  0.00  0.00    +0.000 A 
ATOM      5  C   UNL     1       1.377   8.216  19.860  0.00  0.00    +0.000 A 
ATOM      6  C   UNL     1       0.278   8.699  20.653  0.00  0.00    +0.000 A 
ATOM      7  O   UNL     1      -0.400   7.987  21.390  0.00  0.00    +0.000 OA
ATOM      8  N   UNL     1      -0.018  10.058  20.456  0.00  0.00    +0.000 N 
ATOM      9  C   UNL     1       0.596  10.889  19.503  0.00  0.00    +0.000 A 
ATOM     10  O   UNL     1       0.222  12.052  19.331  0.00  0.00    +0.000 OA
ATOM     11  N   UNL     1       1.601  10.324  18.726  0.00  0.00    +0.000 N 
ATOM     12  C   UNL     1       2.255  11.091  17.679  0.00  0.00    +0.000 C 
ENDROOT
BRANCH   1  13
ATOM     13  C   UNL     1       1.890   5.776  20.536  0.00  0.00    +0.000 C 
BRANCH  13  17
ATOM     14  C   UNL     1       0.754   2.269  19.223  0.00  0.00    +0.000 C 
ATOM     15  C   UNL     1       1.222   3.331  20.184  0.00  0.00    +0.000 C 
ATOM     16  C   UNL     1       1.623   2.868  21.558  0.00  0.00    +0.000 C 
ATOM     17  C   UNL     1       1.294   4.618  19.777  0.00  0.00    +0.000 C 
ENDBRANCH  13  17
ENDBRANCH   1  13
BRANCH   2  18
ATOM     18  O   UNL     1       3.771   6.200  18.226  0.00  0.00    +0.000 OA
BRANCH  18  19
ATOM     19  C   UNL     1       4.788   6.733  17.338  0.00  0.00    +0.000 C 
BRANCH  19  20
ATOM     20  C   UNL     1       6.231   6.175  17.530  0.00  0.00    +0.000 C 
ATOM     21  C   UNL     1       6.532   5.241  16.329  0.00  0.00    +0.000 C 
ATOM     22  C   UNL     1       7.247   7.331  17.512  0.00  0.00    +0.000 C 
BRANCH  20  23
ATOM     23  C   UNL     1       6.333   5.378  18.855  0.00  0.00    +0.000 C 
BRANCH  23  24
ATOM     24  N   UNL     1       5.873   3.991  18.748  0.00  0.00    +0.000 NA
ATOM     25  H   UNL     1       6.351   3.516  17.983  0.00  0.00    +0.000 HD
ATOM     26  H   UNL     1       4.882   3.976  18.506  0.00  0.00    +0.000 HD
ENDBRANCH  23  24
ENDBRANCH  20  23
ENDBRANCH  19  20
ENDBRANCH  18  19
ENDBRANCH   2  18
BRANCH   8  27
ATOM     27  C   UNL     1      -1.157  10.632  21.185  0.00  0.00    +0.000 C 
BRANCH  27  28
ATOM     28  C   UNL     1      -0.820  11.147  22.589  0.00  0.00    +0.000 C 
ATOM     29  O   UNL     1       0.062  10.654  23.290  0.00  0.00    +0.000 OA
BRANCH  28  30
ATOM     30  C   UNL     1      -1.646  12.282  23.132  0.00  0.00    +0.000 A 
ATOM     31  C   UNL     1      -1.048  13.542  23.287  0.00  0.00    +0.000 A 
ATOM     32  C   UNL     1      -1.746  14.593  23.894  0.00  0.00    +0.000 A 
ATOM     33  C   UNL     1      -3.054  14.401  24.332  0.00  0.00    +0.000 A 
ATOM     34  C   UNL     1      -3.678  13.171  24.132  0.00  0.00    +0.000 A 
ATOM     35  C   UNL     1      -2.980  12.115  23.531  0.00  0.00    +0.000 A 
ENDBRANCH  28  30
ENDBRANCH  27  28
ENDBRANCH   8  27
TORSDOF 10
ENDMDL
MODEL 3
REMARK VINA RESULT:      -7.3      1.178      1.744
REMARK  Name = 
REMARK  15 active torsions:
REMARK  status: ('A' for Active; 'I' for Inactive)
REMARK    1  A    between atoms: C_1  and  C_2
REMARK    2  A    between atoms: C_2  and  C_3
REMARK    3  A    between atoms: C_4  and  C_5
REMARK    4  A    between atoms: C_5  and  N_6
REMARK    5  A    between atoms: C_7  and  O_8
REMARK    6  A    between atoms: O_8  and  C_9
REMARK    7  A    between atoms: C_9  and  C_10
REMARK    8  A    between atoms: C_10  and  C_11
REMARK    9  A    between atoms: C_10  and  C_12
REMARK   10  A    between atoms: C_10  and  C_13
REMARK   11  A    between atoms: C_13  and  N_14
REMARK   12  A    between atoms: N_20  and  C_21
REMARK   13  A    between atoms: C_21  and  C_22
REMARK   14  A    between atoms: C_22  and  C_24
REMARK   15  A    between atoms: N_32  and  C_33
REMARK                            x       y       z     vdW  Elec       q    Type
REMARK                         _______ _______ _______ _____ _____    ______ ____
ROOT
ATOM      1  N   UNL     1       2.308   7.765  18.761  0.00  0.00    +0.000 N 
ATOM      2  C   UNL     1       2.164   6.840  19.797  0.00  0.00    +0.000 A 
ATOM      3  N   UNL     1       1.504   7.367  20.808  0.00  0.00    +0.000 NA
ATOM      4  C   UNL     1       1.255   8.646  20.442  0.00  0.00    +0.000 A 
ATOM      5  C   UNL     1       1.762   8.955  19.215  0.00  0.00    +0.000 A 
ATOM      6  C   UNL     1       1.670  10.294  18.699  0.00  0.00    +0.000 A 
ATOM      7  O   UNL     1       2.240  10.675  17.679  0.00  0.00    +0.000 OA
ATOM      8  N   UNL     1       0.929  11.171  19.508  0.00  0.00    +0.000 N 
ATOM      9  C   UNL     1       0.400  10.854  20.771  0.00  0.00    +0.000 A 
ATOM     10  O   UNL     1      -0.167  11.705  21.460  0.00  0.00    +0.000 OA
ATOM     11  N   UNL     1       0.595   9.556  21.230  0.00  0.00    +0.000 N 
ATOM     12  C   UNL     1       0.131   9.152  22.547  0.00  0.00    +0.000 C 
ENDROOT
BRANCH   1  13
ATOM     13  C   UNL     1       2.964   7.467  17.479  0.00  0.00    +0.000 C 
BRANCH  13  17
ATOM     14  C   UNL     1       6.619   6.081  17.662  0.00  0.00    +0.000 C 
ATOM     15  C   UNL     1       5.140   6.125  17.376  0.00  0.00    +0.000 C 
ATOM     16  C   UNL     1       4.500   4.836  16.939  0.00  0.00    +0.000 C 
ATOM     17  C   UNL     1       4.458   7.277  17.552  0.00  0.00    +0.000 C 
ENDBRANCH  13  17
ENDBRANCH   1  13
BRANCH   2  18
ATOM     18  O   UNL     1       2.620   5.579  19.797  0.00  0.00    +0.000 OA
BRANCH  18  19
ATOM     19  C   UNL     1       2.001   4.769  20.830  0.00  0.00    +0.000 C 
BRANCH  19  20
ATOM     20  C   UNL     1       1.892   3.242  20.534  0.00  0.00    +0.000 C 
ATOM     21  C   UNL     1       3.287   2.759  20.060  0.00  0.00    +0.000 C 
ATOM     22  C   UNL     1       1.528   2.483  21.823  0.00  0.00    +0.000 C 
BRANCH  20  23
ATOM     23  C   UNL     1       0.839   2.977  19.428  0.00  0.00    +0.000 C 
BRANCH  23  24
ATOM     24  N   UNL     1       1.261   3.413  18.094  0.00  0.00    +0.000 NA
ATOM     25  H   UNL     1       1.861   4.234  18.162  0.00  0.00    +0.000 HD
ATOM     26  H   UNL     1       0.446   3.710  17.556  0.00  0.00    +0.000 HD
ENDBRANCH  23  24
ENDBRANCH  20  23
ENDBRANCH  19  20
ENDBRANCH  18  19
ENDBRANCH   2  18
BRANCH   8  27
ATOM     27  C   UNL     1       0.821  12.576  19.089  0.00  0.00    +0.000 C 
BRANCH  27  28
ATOM     28  C   UNL     1       1.958  13.476  19.584  0.00  0.00    +0.000 C 
ATOM     29  O   UNL     1       2.633  13.219  20.578  0.00  0.00    +0.000 OA
BRANCH  28  30
ATOM     30  C   UNL     1       2.215  14.752  18.827  0.00  0.00    +0.000 A 
ATOM     31  C   UNL     1       1.330  15.830  18.994  0.00  0.00    +0.000 A 
ATOM     32  C   UNL     1       1.467  16.991  18.224  0.00  0.00    +0.000 A 
ATOM     33  C   UNL     1       2.501  17.096  17.297  0.00  0.00    +0.000 A 
ATOM     34  C   UNL     1       3.419  16.055  17.163  0.00  0.00    +0.000 A 
ATOM     35  C   UNL     1       3.281  14.889  17.926  0.00  0.00    +0.000 A 
ENDBRANCH  28  30
ENDBRANCH  27  28
ENDBRANCH   8  27
TORSDOF 10
ENDMDL
MODEL 4
REMARK VINA RESULT:      -7.2      0.890      1.249
REMARK  Name = 
REMARK  15 active torsions:
REMARK  status: ('A' for Active; 'I' for Inactive)
REMARK    1  A    between atoms: C_1  and  C_2
REMARK    2  A    between atoms: C_2  and  C_3
REMARK    3  A    between atoms: C_4  and  C_5
REMARK    4  A    between atoms: C_5  and  N_6
REMARK    5  A    between atoms: C_7  and  O_8
REMARK    6  A    between atoms: O_8  and  C_9
REMARK    7  A    between atoms: C_9  and  C_10
REMARK    8  A    between atoms: C_10  and  C_11
REMARK    9  A    between atoms: C_10  and  C_12
REMARK   10  A    between atoms: C_10  and  C_13
REMARK   11  A    between atoms: C_13  and  N_14
REMARK   12  A    between atoms: N_20  and  C_21
REMARK   13  A    between atoms: C_21  and  C_22
REMARK   14  A    between atoms: C_22  and  C_24
REMARK   15  A    between atoms: N_32  and  C_33
REMARK                            x       y       z     vdW  Elec       q    Type
REMARK                         _______ _______ _______ _____ _____    ______ ____
ROOT
ATOM      1  N   UNL     1       2.253   7.608  18.842  0.00  0.00    +0.000 N 
ATOM      2  C   UNL     1       2.214   6.790  19.973  0.00  0.00    +0.000 A 
ATOM      3  N   UNL     1       1.556   7.376  20.953  0.00  0.00    +0.000 NA
ATOM      4  C   UNL     1       1.203   8.589  20.469  0.00  0.00    +0.000 A 
ATOM      5  C   UNL     1       1.640   8.799  19.196  0.00  0.00    +0.000 A 
ATOM      6  C   UNL     1       1.433  10.067  18.549  0.00  0.00    +0.000 A 
ATOM      7  O   UNL     1       1.936  10.376  17.470  0.00  0.00    +0.000 OA
ATOM      8  N   UNL     1       0.663  10.974  19.296  0.00  0.00    +0.000 N 
ATOM      9  C   UNL     1       0.206  10.756  20.607  0.00  0.00    +0.000 A 
ATOM     10  O   UNL     1      -0.395  11.636  21.230  0.00  0.00    +0.000 OA
ATOM     11  N   UNL     1       0.510   9.531  21.188  0.00  0.00    +0.000 N 
ATOM     12  C   UNL     1       0.126   9.238  22.559  0.00  0.00    +0.000 C 
ENDROOT
BRANCH   1  13
ATOM     13  C   UNL     1       2.879   7.220  17.570  0.00  0.00    +0.000 C 
BRANCH  13  17
ATOM     14  C   UNL     1       6.591   5.981  17.622  0.00  0.00    +0.000 C 
ATOM     15  C   UNL     1       5.106   5.977  17.363  0.00  0.00    +0.000 C 
ATOM     16  C   UNL     1       4.511   4.685  16.873  0.00  0.00    +0.000 C 
ATOM     17  C   UNL     1       4.381   7.090  17.608  0.00  0.00    +0.000 C 
ENDBRANCH  13  17
ENDBRANCH   1  13
BRANCH   2  18
ATOM     18  O   UNL     1       2.759   5.570  20.083  0.00  0.00    +0.000 OA
BRANCH  18  19
ATOM     19  C   UNL     1       1.857   4.522  19.642  0.00  0.00    +0.000 C 
BRANCH  19  20
ATOM     20  C   UNL     1       2.211   3.073  20.095  0.00  0.00    +0.000 C 
ATOM     21  C   UNL     1       3.756   2.940  20.067  0.00  0.00    +0.000 C 
ATOM     22  C   UNL     1       1.731   2.843  21.539  0.00  0.00    +0.000 C 
BRANCH  20  23
ATOM     23  C   UNL     1       1.576   2.033  19.137  0.00  0.00    +0.000 C 
BRANCH  23  24
ATOM     24  N   UNL     1       2.352   1.805  17.915  0.00  0.00    +0.000 NA
ATOM     25  H   UNL     1       1.759   1.412  17.185  0.00  0.00    +0.000 HD
ATOM     26  H   UNL     1       3.072   1.104  18.092  0.00  0.00    +0.000 HD
ENDBRANCH  23  24
ENDBRANCH  20  23
ENDBRANCH  19  20
ENDBRANCH  18  19
ENDBRANCH   2  18
BRANCH   8  27
ATOM     27  C   UNL     1       0.439  12.315  18.740  0.00  0.00    +0.000 C 
BRANCH  27  28
ATOM     28  C   UNL     1       1.486  13.357  19.149  0.00  0.00    +0.000 C 
ATOM     29  O   UNL     1       2.498  13.075  19.788  0.00  0.00    +0.000 OA
BRANCH  28  30
ATOM     30  C   UNL     1       1.223  14.792  18.778  0.00  0.00    +0.000 A 
ATOM     31  C   UNL     1       2.313  15.627  18.484  0.00  0.00    +0.000 A 
ATOM     32  C   UNL     1       2.121  16.993  18.247  0.00  0.00    +0.000 A 
ATOM     33  C   UNL     1       0.838  17.534  18.279  0.00  0.00    +0.000 A 
ATOM     34  C   UNL     1      -0.257  16.704  18.514  0.00  0.00    +0.000 A 
ATOM     35  C   UNL     1      -0.069  15.338  18.759  0.00  0.00    +0.000 A 
ENDBRANCH  28  30
ENDBRANCH  27  28
ENDBRANCH   8  27
TORSDOF 10
ENDMDL
MODEL 5
REMARK VINA RESULT:      -7.2      0.856      1.099
REMARK  Name = 
REMARK  15 active torsions:
REMARK  status: ('A' for Active; 'I' for Inactive)
REMARK    1  A    between atoms: C_1  and  C_2
REMARK    2  A    between atoms: C_2  and  C_3
REMARK    3  A    between atoms: C_4  and  C_5
REMARK    4  A    between atoms: C_5  and  N_6
REMARK    5  A    between atoms: C_7  and  O_8
REMARK    6  A    between atoms: O_8  and  C_9
REMARK    7  A    between atoms: C_9  and  C_10
REMARK    8  A    between atoms: C_10  and  C_11
REMARK    9  A    between atoms: C_10  and  C_12
REMARK   10  A    between atoms: C_10  and  C_13
REMARK   11  A    between atoms: C_13  and  N_14
REMARK   12  A    between atoms: N_20  and  C_21
REMARK   13  A    between atoms: C_21  and  C_22
REMARK   14  A    between atoms: C_22  and  C_24
REMARK   15  A    between atoms: N_32  and  C_33
REMARK                            x       y       z     vdW  Elec       q    Type
REMARK                         _______ _______ _______ _____ _____    ______ ____
ROOT
ATOM      1  N   UNL     1       2.604   7.570  18.506  0.00  0.00    +0.000 N 
ATOM      2  C   UNL     1       2.476   6.578  19.481  0.00  0.00    +0.000 A 
ATOM      3  N   UNL     1       1.716   6.990  20.474  0.00  0.00    +0.000 NA
ATOM      4  C   UNL     1       1.383   8.265  20.162  0.00  0.00    +0.000 A 
ATOM      5  C   UNL     1       1.934   8.684  18.988  0.00  0.00    +0.000 A 
ATOM      6  C   UNL     1       1.761  10.039  18.539  0.00  0.00    +0.000 A 
ATOM      7  O   UNL     1       2.357  10.524  17.579  0.00  0.00    +0.000 OA
ATOM      8  N   UNL     1       0.904  10.806  19.345  0.00  0.00    +0.000 N 
ATOM      9  C   UNL     1       0.329  10.373  20.553  0.00  0.00    +0.000 A 
ATOM     10  O   UNL     1      -0.347  11.135  21.249  0.00  0.00    +0.000 OA
ATOM     11  N   UNL     1       0.604   9.071  20.954  0.00  0.00    +0.000 N 
ATOM     12  C   UNL     1       0.098   8.555  22.214  0.00  0.00    +0.000 C 
ENDROOT
BRANCH   1  13
ATOM     13  C   UNL     1       3.357   7.401  17.255  0.00  0.00    +0.000 C 
BRANCH  13  17
ATOM     14  C   UNL     1       7.061   6.159  17.488  0.00  0.00    +0.000 C 
ATOM     15  C   UNL     1       5.608   6.195  17.090  0.00  0.00    +0.000 C 
ATOM     16  C   UNL     1       5.077   4.987  16.367  0.00  0.00    +0.000 C 
ATOM     17  C   UNL     1       4.849   7.263  17.418  0.00  0.00    +0.000 C 
ENDBRANCH  13  17
ENDBRANCH   1  13
BRANCH   2  18
ATOM     18  O   UNL     1       3.036   5.360  19.443  0.00  0.00    +0.000 OA
BRANCH  18  19
ATOM     19  C   UNL     1       2.731   4.576  20.626  0.00  0.00    +0.000 C 
BRANCH  19  20
ATOM     20  C   UNL     1       2.552   3.043  20.408  0.00  0.00    +0.000 C 
ATOM     21  C   UNL     1       1.704   2.501  21.588  0.00  0.00    +0.000 C 
ATOM     22  C   UNL     1       1.785   2.785  19.100  0.00  0.00    +0.000 C 
BRANCH  20  23
ATOM     23  C   UNL     1       3.931   2.334  20.382  0.00  0.00    +0.000 C 
BRANCH  23  24
ATOM     24  N   UNL     1       4.880   2.923  19.433  0.00  0.00    +0.000 NA
ATOM     25  H   UNL     1       4.458   2.996  18.508  0.00  0.00    +0.000 HD
ATOM     26  H   UNL     1       5.683   2.304  19.322  0.00  0.00    +0.000 HD
ENDBRANCH  23  24
ENDBRANCH  20  23
ENDBRANCH  19  20
ENDBRANCH  18  19
ENDBRANCH   2  18
BRANCH   8  27
ATOM     27  C   UNL     1       0.703  12.219  18.995  0.00  0.00    +0.000 C 
BRANCH  27  28
ATOM     28  C   UNL     1       1.722  13.179  19.619  0.00  0.00    +0.000 C 
ATOM     29  O   UNL     1       2.222  12.999  20.727  0.00  0.00    +0.000 OA
BRANCH  28  30
ATOM     30  C   UNL     1       2.081  14.416  18.839  0.00  0.00    +0.000 A 
ATOM     31  C   UNL     1       3.253  14.413  18.066  0.00  0.00    +0.000 A 
ATOM     32  C   UNL     1       3.683  15.577  17.418  0.00  0.00    +0.000 A 
ATOM     33  C   UNL     1       2.936  16.748  17.518  0.00  0.00    +0.000 A 
ATOM     34  C   UNL     1       1.742  16.748  18.236  0.00  0.00    +0.000 A 
ATOM     35  C   UNL     1       1.312  15.587  18.892  0.00  0.00    +0.000 A 
ENDBRANCH  28  30
ENDBRANCH  27  28
ENDBRANCH   8  27
TORSDOF 10
ENDMDL
MODEL 6
REMARK VINA RESULT:      -7.2      1.938      3.184
REMARK  Name = 
REMARK  15 active torsions:
REMARK  status: ('A' for Active; 'I' for Inactive)
REMARK    1  A    between atoms: C_1  and  C_2
REMARK    2  A    between atoms: C_2  and  C_3
REMARK    3  A    between atoms: C_4  and  C_5
REMARK    4  A    between atoms: C_5  and  N_6
REMARK    5  A    between atoms: C_7  and  O_8
REMARK    6  A    between atoms: O_8  and  C_9
REMARK    7  A    between atoms: C_9  and  C_10
REMARK    8  A    between atoms: C_10  and  C_11
REMARK    9  A    between atoms: C_10  and  C_12
REMARK   10  A    between atoms: C_10  and  C_13
REMARK   11  A    between atoms: C_13  and  N_14
REMARK   12  A    between atoms: N_20  and  C_21
REMARK   13  A    between atoms: C_21  and  C_22
REMARK   14  A    between atoms: C_22  and  C_24
REMARK   15  A    between atoms: N_32  and  C_33
REMARK                            x       y       z     vdW  Elec       q    Type
REMARK                         _______ _______ _______ _____ _____    ______ ____
ROOT
ATOM      1  N   UNL     1       2.502   7.486  18.633  0.00  0.00    +0.000 N 
ATOM      2  C   UNL     1       2.527   6.602  19.713  0.00  0.00    +0.000 A 
ATOM      3  N   UNL     1       1.866   7.094  20.740  0.00  0.00    +0.000 NA
ATOM      4  C   UNL     1       1.446   8.317  20.338  0.00  0.00    +0.000 A 
ATOM      5  C   UNL     1       1.843   8.624  19.071  0.00  0.00    +0.000 A 
ATOM      6  C   UNL     1       1.562   9.917  18.508  0.00  0.00    +0.000 A 
ATOM      7  O   UNL     1       2.024  10.314  17.440  0.00  0.00    +0.000 OA
ATOM      8  N   UNL     1       0.768  10.739  19.325  0.00  0.00    +0.000 N 
ATOM      9  C   UNL     1       0.352  10.421  20.630  0.00  0.00    +0.000 A 
ATOM     10  O   UNL     1      -0.274  11.233  21.317  0.00  0.00    +0.000 OA
ATOM     11  N   UNL     1       0.727   9.179  21.128  0.00  0.00    +0.000 N 
ATOM     12  C   UNL     1       0.389   8.786  22.485  0.00  0.00    +0.000 C 
ENDROOT
BRANCH   1  13
ATOM     13  C   UNL     1       3.115   7.207  17.326  0.00  0.00    +0.000 C 
BRANCH  13  17
ATOM     14  C   UNL     1       6.888   6.172  17.217  0.00  0.00    +0.000 C 
ATOM     15  C   UNL     1       5.399   6.103  16.991  0.00  0.00    +0.000 C 
ATOM     16  C   UNL     1       4.862   4.815  16.430  0.00  0.00    +0.000 C 
ATOM     17  C   UNL     1       4.622   7.157  17.323  0.00  0.00    +0.000 C 
ENDBRANCH  13  17
ENDBRANCH   1  13
BRANCH   2  18
ATOM     18  O   UNL     1       3.131   5.404  19.735  0.00  0.00    +0.000 OA
BRANCH  18  19
ATOM     19  C   UNL     1       2.314   4.363  19.139  0.00  0.00    +0.000 C 
BRANCH  19  20
ATOM     20  C   UNL     1       2.295   2.993  19.882  0.00  0.00    +0.000 C 
ATOM     21  C   UNL     1       1.290   3.113  21.057  0.00  0.00    +0.000 C 
ATOM     22  C   UNL     1       1.799   1.888  18.931  0.00  0.00    +0.000 C 
BRANCH  20  23
ATOM     23  C   UNL     1       3.705   2.651  20.428  0.00  0.00    +0.000 C 
BRANCH  23  24
ATOM     24  N   UNL     1       4.774   2.802  19.437  0.00  0.00    +0.000 NA
ATOM     25  H   UNL     1       5.585   3.256  19.856  0.00  0.00    +0.000 HD
ATOM     26  H   UNL     1       4.465   3.423  18.690  0.00  0.00    +0.000 HD
ENDBRANCH  23  24
ENDBRANCH  20  23
ENDBRANCH  19  20
ENDBRANCH  18  19
ENDBRANCH   2  18
BRANCH   8  27
ATOM     27  C   UNL     1       0.468  12.099  18.857  0.00  0.00    +0.000 C 
BRANCH  27  28
ATOM     28  C   UNL     1      -1.027  12.421  18.754  0.00  0.00    +0.000 C 
ATOM     29  O   UNL     1      -1.560  13.337  19.376  0.00  0.00    +0.000 OA
BRANCH  28  30
ATOM     30  C   UNL     1      -1.871  11.536  17.876  0.00  0.00    +0.000 A 
ATOM     31  C   UNL     1      -2.526  10.436  18.453  0.00  0.00    +0.000 A 
ATOM     32  C   UNL     1      -3.226   9.524  17.655  0.00  0.00    +0.000 A 
ATOM     33  C   UNL     1      -3.298   9.713  16.277  0.00  0.00    +0.000 A 
ATOM     34  C   UNL     1      -2.699  10.832  15.700  0.00  0.00    +0.000 A 
ATOM     35  C   UNL     1      -1.992  11.743  16.494  0.00  0.00    +0.000 A 
ENDBRANCH  28  30
ENDBRANCH  27  28
ENDBRANCH   8  27
TORSDOF 10
ENDMDL
MODEL 7
REMARK VINA RESULT:      -7.2      1.240      1.754
REMARK  Name = 
REMARK  15 active torsions:
REMARK  status: ('A' for Active; 'I' for Inactive)
REMARK    1  A    between atoms: C_1  and  C_2
REMARK    2  A    between atoms: C_2  and  C_3
REMARK    3  A    between atoms: C_4  and  C_5
REMARK    4  A    between atoms: C_5  and  N_6
REMARK    5  A    between atoms: C_7  and  O_8
REMARK    6  A    between atoms: O_8  and  C_9
REMARK    7  A    between atoms: C_9  and  C_10
REMARK    8  A    between atoms: C_10  and  C_11
REMARK    9  A    between atoms: C_10  and  C_12
REMARK   10  A    between atoms: C_10  and  C_13
REMARK   11  A    between atoms: C_13  and  N_14
REMARK   12  A    between atoms: N_20  and  C_21
REMARK   13  A    between atoms: C_21  and  C_22
REMARK   14  A    between atoms: C_22  and  C_24
REMARK   15  A    between atoms: N_32  and  C_33
REMARK                            x       y       z     vdW  Elec       q    Type
REMARK                         _______ _______ _______ _____ _____    ______ ____
ROOT
ATOM      1  N   UNL     1       2.103   7.972  19.173  0.00  0.00    +0.000 N 
ATOM      2  C   UNL     1       1.921   7.028  20.186  0.00  0.00    +0.000 A 
ATOM      3  N   UNL     1       1.180   7.518  21.158  0.00  0.00    +0.000 NA
ATOM      4  C   UNL     1       0.913   8.794  20.793  0.00  0.00    +0.000 A 
ATOM      5  C   UNL     1       1.489   9.137  19.607  0.00  0.00    +0.000 A 
ATOM      6  C   UNL     1       1.386  10.480  19.103  0.00  0.00    +0.000 A 
ATOM      7  O   UNL     1       2.009  10.895  18.127  0.00  0.00    +0.000 OA
ATOM      8  N   UNL     1       0.566  11.321  19.873  0.00  0.00    +0.000 N 
ATOM      9  C   UNL     1      -0.034  10.967  21.094  0.00  0.00    +0.000 A 
ATOM     10  O   UNL     1      -0.673  11.790  21.756  0.00  0.00    +0.000 OA
ATOM     11  N   UNL     1       0.174   9.669  21.548  0.00  0.00    +0.000 N 
ATOM     12  C   UNL     1      -0.362   9.231  22.826  0.00  0.00    +0.000 C 
ENDROOT
BRANCH   1  13
ATOM     13  C   UNL     1       2.850   7.715  17.934  0.00  0.00    +0.000 C 
BRANCH  13  17
ATOM     14  C   UNL     1       4.500   4.343  16.828  0.00  0.00    +0.000 C 
ATOM     15  C   UNL     1       4.369   5.808  17.158  0.00  0.00    +0.000 C 
ATOM     16  C   UNL     1       5.545   6.683  16.818  0.00  0.00    +0.000 C 
ATOM     17  C   UNL     1       3.222   6.273  17.697  0.00  0.00    +0.000 C 
ENDBRANCH  13  17
ENDBRANCH   1  13
BRANCH   2  18
ATOM     18  O   UNL     1       2.419   5.782  20.199  0.00  0.00    +0.000 OA
BRANCH  18  19
ATOM     19  C   UNL     1       1.395   4.783  20.444  0.00  0.00    +0.000 C 
BRANCH  19  20
ATOM     20  C   UNL     1       1.849   3.294  20.351  0.00  0.00    +0.000 C 
ATOM     21  C   UNL     1       3.368   3.290  20.037  0.00  0.00    +0.000 C 
ATOM     22  C   UNL     1       1.631   2.594  21.703  0.00  0.00    +0.000 C 
BRANCH  20  23
ATOM     23  C   UNL     1       1.077   2.561  19.225  0.00  0.00    +0.000 C 
BRANCH  23  24
ATOM     24  N   UNL     1       1.946   1.923  18.231  0.00  0.00    +0.000 NA
ATOM     25  H   UNL     1       1.928   0.910  18.341  0.00  0.00    +0.000 HD
ATOM     26  H   UNL     1       2.914   2.202  18.392  0.00  0.00    +0.000 HD
ENDBRANCH  23  24
ENDBRANCH  20  23
ENDBRANCH  19  20
ENDBRANCH  18  19
ENDBRANCH   2  18
BRANCH   8  27
ATOM     27  C   UNL     1       0.438  12.727  19.466  0.00  0.00    +0.000 C 
BRANCH  27  28
ATOM     28  C   UNL     1       1.598  13.625  19.910  0.00  0.00    +0.000 C 
ATOM     29  O   UNL     1       2.170  13.498  20.991  0.00  0.00    +0.000 OA
BRANCH  28  30
ATOM     30  C   UNL     1       2.014  14.736  18.983  0.00  0.00    +0.000 A 
ATOM     31  C   UNL     1       3.158  14.564  18.189  0.00  0.00    +0.000 A 
ATOM     32  C   UNL     1       3.643  15.613  17.399  0.00  0.00    +0.000 A 
ATOM     33  C   UNL     1       2.978  16.836  17.378  0.00  0.00    +0.000 A 
ATOM     34  C   UNL     1       1.809  17.001  18.119  0.00  0.00    +0.000 A 
ATOM     35  C   UNL     1       1.324  15.955  18.915  0.00  0.00    +0.000 A 
ENDBRANCH  28  30
ENDBRANCH  27  28
ENDBRANCH   8  27
TORSDOF 10
ENDMDL
MODEL 8
REMARK VINA RESULT:      -7.1      2.062      3.186
REMARK  Name = 
REMARK  15 active torsions:
REMARK  status: ('A' for Active; 'I' for Inactive)
REMARK    1  A    between atoms: C_1  and  C_2
REMARK    2  A    between atoms: C_2  and  C_3
REMARK    3  A    between atoms: C_4  and  C_5
REMARK    4  A    between atoms: C_5  and  N_6
REMARK    5  A    between atoms: C_7  and  O_8
REMARK    6  A    between atoms: O_8  and  C_9
REMARK    7  A    between atoms: C_9  and  C_10
REMARK    8  A    between atoms: C_10  and  C_11
REMARK    9  A    between atoms: C_10  and  C_12
REMARK   10  A    between atoms: C_10  and  C_13
REMARK   11  A    between atoms: C_13  and  N_14
REMARK   12  A    between atoms: N_20  and  C_21
REMARK   13  A    between atoms: C_21  and  C_22
REMARK   14  A    between atoms: C_22  and  C_24
REMARK   15  A    between atoms: N_32  and  C_33
REMARK                            x       y       z     vdW  Elec       q    Type
REMARK                         _______ _______ _______ _____ _____    ______ ____
ROOT
ATOM      1  N   UNL     1       2.025   7.870  19.115  0.00  0.00    +0.000 N 
ATOM      2  C   UNL     1       1.972   6.914  20.132  0.00  0.00    +0.000 A 
ATOM      3  N   UNL     1       1.338   7.384  21.186  0.00  0.00    +0.000 NA
ATOM      4  C   UNL     1       1.014   8.659  20.867  0.00  0.00    +0.000 A 
ATOM      5  C   UNL     1       1.447   9.021  19.627  0.00  0.00    +0.000 A 
ATOM      6  C   UNL     1       1.269  10.367  19.152  0.00  0.00    +0.000 A 
ATOM      7  O   UNL     1       1.772  10.800  18.117  0.00  0.00    +0.000 OA
ATOM      8  N   UNL     1       0.529  11.188  20.019  0.00  0.00    +0.000 N 
ATOM      9  C   UNL     1       0.076  10.814  21.296  0.00  0.00    +0.000 A 
ATOM     10  O   UNL     1      -0.495  11.621  22.034  0.00  0.00    +0.000 OA
ATOM     11  N   UNL     1       0.352   9.516  21.710  0.00  0.00    +0.000 N 
ATOM     12  C   UNL     1      -0.030   9.058  23.035  0.00  0.00    +0.000 C 
ENDROOT
BRANCH   1  13
ATOM     13  C   UNL     1       2.631   7.635  17.797  0.00  0.00    +0.000 C 
BRANCH  13  17
ATOM     14  C   UNL     1       6.288   6.242  17.759  0.00  0.00    +0.000 C 
ATOM     15  C   UNL     1       4.800   6.304  17.529  0.00  0.00    +0.000 C 
ATOM     16  C   UNL     1       4.142   5.046  17.032  0.00  0.00    +0.000 C 
ATOM     17  C   UNL     1       4.126   7.442  17.804  0.00  0.00    +0.000 C 
ENDBRANCH  13  17
ENDBRANCH   1  13
BRANCH   2  18
ATOM     18  O   UNL     1       2.486   5.676  20.076  0.00  0.00    +0.000 OA
BRANCH  18  19
ATOM     19  C   UNL     1       1.487   4.680  19.733  0.00  0.00    +0.000 C 
BRANCH  19  20
ATOM     20  C   UNL     1       1.859   3.198  20.038  0.00  0.00    +0.000 C 
ATOM     21  C   UNL     1       3.406   3.098  20.043  0.00  0.00    +0.000 C 
ATOM     22  C   UNL     1       1.343   2.804  21.433  0.00  0.00    +0.000 C 
BRANCH  20  23
ATOM     23  C   UNL     1       1.274   2.256  18.954  0.00  0.00    +0.000 C 
BRANCH  23  24
ATOM     24  N   UNL     1       2.259   1.813  17.963  0.00  0.00    +0.000 NA
ATOM     25  H   UNL     1       2.112   2.293  17.077  0.00  0.00    +0.000 HD
ATOM     26  H   UNL     1       2.125   0.820  17.767  0.00  0.00    +0.000 HD
ENDBRANCH  23  24
ENDBRANCH  20  23
ENDBRANCH  19  20
ENDBRANCH  18  19
ENDBRANCH   2  18
BRANCH   8  27
ATOM     27  C   UNL     1       0.337  12.596  19.644  0.00  0.00    +0.000 C 
BRANCH  27  28
ATOM     28  C   UNL     1      -0.578  12.812  18.433  0.00  0.00    +0.000 C 
ATOM     29  O   UNL     1      -0.355  13.653  17.565  0.00  0.00    +0.000 OA
BRANCH  28  30
ATOM     30  C   UNL     1      -1.825  11.973  18.344  0.00  0.00    +0.000 A 
ATOM     31  C   UNL     1      -1.871  10.924  17.412  0.00  0.00    +0.000 A 
ATOM     32  C   UNL     1      -3.049  10.194  17.217  0.00  0.00    +0.000 A 
ATOM     33  C   UNL     1      -4.186  10.490  17.966  0.00  0.00    +0.000 A 
ATOM     34  C   UNL     1      -4.135  11.492  18.934  0.00  0.00    +0.000 A 
ATOM     35  C   UNL     1      -2.960  12.229  19.127  0.00  0.00    +0.000 A 
ENDBRANCH  28  30
ENDBRANCH  27  28
ENDBRANCH   8  27
TORSDOF 10
ENDMDL
MODEL 9
REMARK VINA RESULT:      -7.1      1.110      1.774
REMARK  Name = 
REMARK  15 active torsions:
REMARK  status: ('A' for Active; 'I' for Inactive)
REMARK    1  A    between atoms: C_1  and  C_2
REMARK    2  A    between atoms: C_2  and  C_3
REMARK    3  A    between atoms: C_4  and  C_5
REMARK    4  A    between atoms: C_5  and  N_6
REMARK    5  A    between atoms: C_7  and  O_8
REMARK    6  A    between atoms: O_8  and  C_9
REMARK    7  A    between atoms: C_9  and  C_10
REMARK    8  A    between atoms: C_10  and  C_11
REMARK    9  A    between atoms: C_10  and  C_12
REMARK   10  A    between atoms: C_10  and  C_13
REMARK   11  A    between atoms: C_13  and  N_14
REMARK   12  A    between atoms: N_20  and  C_21
REMARK   13  A    between atoms: C_21  and  C_22
REMARK   14  A    between atoms: C_22  and  C_24
REMARK   15  A    between atoms: N_32  and  C_33
REMARK                            x       y       z     vdW  Elec       q    Type
REMARK                         _______ _______ _______ _____ _____    ______ ____
ROOT
ATOM      1  N   UNL     1       2.302   7.840  18.960  0.00  0.00    +0.000 N 
ATOM      2  C   UNL     1       2.093   7.024  20.073  0.00  0.00    +0.000 A 
ATOM      3  N   UNL     1       1.297   7.610  20.943  0.00  0.00    +0.000 NA
ATOM      4  C   UNL     1       1.021   8.824  20.411  0.00  0.00    +0.000 A 
ATOM      5  C   UNL     1       1.644   9.033  19.218  0.00  0.00    +0.000 A 
ATOM      6  C   UNL     1       1.537  10.301  18.547  0.00  0.00    +0.000 A 
ATOM      7  O   UNL     1       2.195  10.608  17.555  0.00  0.00    +0.000 OA
ATOM      8  N   UNL     1       0.665  11.208  19.170  0.00  0.00    +0.000 N 
ATOM      9  C   UNL     1       0.016  10.992  20.398  0.00  0.00    +0.000 A 
ATOM     10  O   UNL     1      -0.670  11.873  20.924  0.00  0.00    +0.000 OA
ATOM     11  N   UNL     1       0.229   9.766  21.019  0.00  0.00    +0.000 N 
ATOM     12  C   UNL     1      -0.356   9.475  22.316  0.00  0.00    +0.000 C 
ENDROOT
BRANCH   1  13
ATOM     13  C   UNL     1       3.111   7.452  17.796  0.00  0.00    +0.000 C 
BRANCH  13  17
ATOM     14  C   UNL     1       4.397   3.896  16.788  0.00  0.00    +0.000 C 
ATOM     15  C   UNL     1       4.338   5.398  16.888  0.00  0.00    +0.000 C 
ATOM     16  C   UNL     1       5.301   6.169  16.026  0.00  0.00    +0.000 C 
ATOM     17  C   UNL     1       3.426   5.981  17.696  0.00  0.00    +0.000 C 
ENDBRANCH  13  17
ENDBRANCH   1  13
BRANCH   2  18
ATOM     18  O   UNL     1       2.614   5.803  20.263  0.00  0.00    +0.000 OA
BRANCH  18  19
ATOM     19  C   UNL     1       1.639   4.861  20.782  0.00  0.00    +0.000 C 
BRANCH  19  20
ATOM     20  C   UNL     1       1.900   3.357  20.468  0.00  0.00    +0.000 C 
ATOM     21  C   UNL     1       3.412   3.200  20.164  0.00  0.00    +0.000 C 
ATOM     22  C   UNL     1       1.560   2.498  21.699  0.00  0.00    +0.000 C 
BRANCH  20  23
ATOM     23  C   UNL     1       1.066   2.905  19.241  0.00  0.00    +0.000 C 
BRANCH  23  24
ATOM     24  N   UNL     1       1.629   1.749  18.538  0.00  0.00    +0.000 NA
ATOM     25  H   UNL     1       2.296   1.261  19.134  0.00  0.00    +0.000 HD
ATOM     26  H   UNL     1       2.162   2.066  17.728  0.00  0.00    +0.000 HD
ENDBRANCH  23  24
ENDBRANCH  20  23
ENDBRANCH  19  20
ENDBRANCH  18  19
ENDBRANCH   2  18
BRANCH   8  27
ATOM     27  C   UNL     1       0.527  12.550  18.586  0.00  0.00    +0.000 C 
BRANCH  27  28
ATOM     28  C   UNL     1       1.526  13.581  19.121  0.00  0.00    +0.000 C 
ATOM     29  O   UNL     1       2.554  13.272  19.721  0.00  0.00    +0.000 OA
BRANCH  28  30
ATOM     30  C   UNL     1       1.194  15.037  18.929  0.00  0.00    +0.000 A 
ATOM     31  C   UNL     1      -0.150  15.411  18.770  0.00  0.00    +0.000 A 
ATOM     32  C   UNL     1      -0.491  16.736  18.476  0.00  0.00    +0.000 A 
ATOM     33  C   UNL     1       0.503  17.704  18.359  0.00  0.00    +0.000 A 
ATOM     34  C   UNL     1       1.836  17.356  18.570  0.00  0.00    +0.000 A 
ATOM     35  C   UNL     1       2.183  16.030  18.858  0.00  0.00    +0.000 A 
ENDBRANCH  28  30
ENDBRANCH  27  28
ENDBRANCH   8  27
TORSDOF 10
ENDMDL
