MODEL 1
REMARK VINA RESULT:      -6.9      0.000      0.000
REMARK  Name = 
REMARK  9 active torsions:
REMARK  status: ('A' for Active; 'I' for Inactive)
REMARK    1  A    between atoms: C_1  and  C_2
REMARK    2  A    between atoms: C_2  and  C_3
REMARK    3  A    between atoms: C_3  and  N_4
REMARK    4  A    between atoms: N_4  and  C_5
REMARK    5  A    between atoms: C_5  and  C_6
REMARK    6  A    between atoms: C_6  and  C_7
REMARK    7  A    between atoms: C_8  and  C_10
REMARK    8  A    between atoms: C_11  and  C_12
REMARK    9  A    between atoms: C_12  and  C_14
REMARK                            x       y       z     vdW  Elec       q    Type
REMARK                         _______ _______ _______ _____ _____    ______ ____
ROOT
ATOM      1  C   UNL     1       4.519   6.501  17.211  0.00  0.00    +0.000 C 
ATOM      2  C   UNL     1       3.460   5.746  17.540  0.00  0.00    +0.000 C 
ENDROOT
BRANCH   1   4
ATOM      3  N   UNL     1       6.098   5.192  15.806  0.00  0.00    +0.000 N 
ATOM      4  C   UNL     1       5.201   6.253  15.910  0.00  0.00    +0.000 C 
ATOM      5  O   UNL     1       4.941   7.001  14.959  0.00  0.00    +0.000 OA
BRANCH   3   6
ATOM      6  C   UNL     1       6.826   5.066  14.531  0.00  0.00    +0.000 C 
BRANCH   6   8
ATOM      7  C   UNL     1       6.942   4.067  12.154  0.00  0.00    +0.000 C 
ATOM      8  C   UNL     1       6.339   3.992  13.548  0.00  0.00    +0.000 C 
ENDBRANCH   6   8
ENDBRANCH   3   6
BRANCH   3   9
ATOM      9  C   UNL     1       6.449   4.277  16.906  0.00  0.00    +0.000 C 
BRANCH   9  10
ATOM     10  C   UNL     1       7.739   4.599  17.675  0.00  0.00    +0.000 C 
ATOM     11  C   UNL     1       7.558   5.492  18.893  0.00  0.00    +0.000 C 
ENDBRANCH   9  10
ENDBRANCH   3   9
ENDBRANCH   1   4
BRANCH   2  12
ATOM     12  C   UNL     1       2.759   5.981  18.829  0.00  0.00    +0.000 C 
ATOM     13  O   UNL     1       2.329   7.087  19.136  0.00  0.00    +0.000 OA
BRANCH  12  14
ATOM     14  C   UNL     1       2.569   4.819  19.739  0.00  0.00    +0.000 A 
ATOM     15  C   UNL     1       1.359   4.588  20.410  0.00  0.00    +0.000 A 
ATOM     16  C   UNL     1       1.220   3.472  21.243  0.00  0.00    +0.000 A 
ATOM     17  C   UNL     1       2.285   2.587  21.401  0.00  0.00    +0.000 A 
ATOM     18  C   UNL     1       3.475   2.815  20.719  0.00  0.00    +0.000 A 
ATOM     19  F   UNL     1       4.492   1.954  20.867  0.00  0.00    +0.000 F 
ATOM     20  C   UNL     1       3.627   3.917  19.886  0.00  0.00    +0.000 A 
ENDBRANCH  12  14
ENDBRANCH   2  12
TORSDOF 7
ENDMDL
MODEL 2
REMARK VINA RESULT:      -6.8      1.771      2.196
REMARK  Name = 
REMARK  9 active torsions:
REMARK  status: ('A' for Active; 'I' for Inactive)
REMARK    1  A    between atoms: C_1  and  C_2
REMARK    2  A    between atoms: C_2  and  C_3
REMARK    3  A    between atoms: C_3  and  N_4
REMARK    4  A    between atoms: N_4  and  C_5
REMARK    5  A    between atoms: C_5  and  C_6
REMARK    6  A    between atoms: C_6  and  C_7
REMARK    7  A    between atoms: C_8  and  C_10
REMARK    8  A    between atoms: C_11  and  C_12
REMARK    9  A    between atoms: C_12  and  C_14
REMARK                            x       y       z     vdW  Elec       q    Type
REMARK                         _______ _______ _______ _____ _____    ______ ____
ROOT
ATOM      1  C   UNL     1       4.391   6.155  17.886  0.00  0.00    +0.000 C 
ATOM      2  C   UNL     1       3.092   6.465  18.008  0.00  0.00    +0.000 C 
ENDROOT
BRANCH   1   4
ATOM      3  N   UNL     1       5.417   4.987  15.945  0.00  0.00    +0.000 N 
ATOM      4  C   UNL     1       5.013   6.184  16.532  0.00  0.00    +0.000 C 
ATOM      5  O   UNL     1       5.144   7.280  15.971  0.00  0.00    +0.000 OA
BRANCH   3   6
ATOM      6  C   UNL     1       6.127   5.090  14.658  0.00  0.00    +0.000 C 
BRANCH   6   8
ATOM      7  C   UNL     1       5.582   3.579  12.638  0.00  0.00    +0.000 C 
ATOM      8  C   UNL     1       6.402   3.783  13.902  0.00  0.00    +0.000 C 
ENDBRANCH   6   8
ENDBRANCH   3   6
BRANCH   3   9
ATOM      9  C   UNL     1       5.291   3.659  16.571  0.00  0.00    +0.000 C 
BRANCH   9  10
ATOM     10  C   UNL     1       3.861   3.166  16.839  0.00  0.00    +0.000 C 
ATOM     11  C   UNL     1       3.744   2.060  17.877  0.00  0.00    +0.000 C 
ENDBRANCH   9  10
ENDBRANCH   3   9
ENDBRANCH   1   4
BRANCH   2  12
ATOM     12  C   UNL     1       2.453   6.450  19.350  0.00  0.00    +0.000 C 
ATOM     13  O   UNL     1       2.221   7.485  19.964  0.00  0.00    +0.000 OA
BRANCH  12  14
ATOM     14  C   UNL     1       2.075   5.130  19.924  0.00  0.00    +0.000 A 
ATOM     15  C   UNL     1       2.472   4.737  21.212  0.00  0.00    +0.000 A 
ATOM     16  C   UNL     1       2.079   3.493  21.718  0.00  0.00    +0.000 A 
ATOM     17  C   UNL     1       1.288   2.648  20.943  0.00  0.00    +0.000 A 
ATOM     18  C   UNL     1       0.886   3.052  19.675  0.00  0.00    +0.000 A 
ATOM     19  F   UNL     1       0.115   2.238  18.939  0.00  0.00    +0.000 F 
ATOM     20  C   UNL     1       1.265   4.286  19.160  0.00  0.00    +0.000 A 
ENDBRANCH  12  14
ENDBRANCH   2  12
TORSDOF 7
ENDMDL
MODEL 3
REMARK VINA RESULT:      -6.8      3.236      7.235
REMARK  Name = 
REMARK  9 active torsions:
REMARK  status: ('A' for Active; 'I' for Inactive)
REMARK    1  A    between atoms: C_1  and  C_2
REMARK    2  A    between atoms: C_2  and  C_3
REMARK    3  A    between atoms: C_3  and  N_4
REMARK    4  A    between atoms: N_4  and  C_5
REMARK    5  A    between atoms: C_5  and  C_6
REMARK    6  A    between atoms: C_6  and  C_7
REMARK    7  A    between atoms: C_8  and  C_10
REMARK    8  A    between atoms: C_11  and  C_12
REMARK    9  A    between atoms: C_12  and  C_14
REMARK                            x       y       z     vdW  Elec       q    Type
REMARK                         _______ _______ _______ _____ _____    ______ ____
ROOT
ATOM      1  C   UNL     1       4.465   3.395  17.323  0.00  0.00    +0.000 C 
ATOM      2  C   UNL     1       4.842   4.382  16.497  0.00  0.00    +0.000 C 
ENDROOT
BRANCH   1   4
ATOM      3  N   UNL     1       2.584   4.112  18.782  0.00  0.00    +0.000 N 
ATOM      4  C   UNL     1       3.036   3.310  17.736  0.00  0.00    +0.000 C 
ATOM      5  O   UNL     1       2.295   2.527  17.127  0.00  0.00    +0.000 OA
BRANCH   3   6
ATOM      6  C   UNL     1       1.193   3.901  19.220  0.00  0.00    +0.000 C 
BRANCH   6   8
ATOM      7  C   UNL     1       1.465   2.636  21.453  0.00  0.00    +0.000 C 
ATOM      8  C   UNL     1       0.932   3.864  20.733  0.00  0.00    +0.000 C 
ENDBRANCH   6   8
ENDBRANCH   3   6
BRANCH   3   9
ATOM      9  C   UNL     1       3.424   5.053  19.544  0.00  0.00    +0.000 C 
BRANCH   9  10
ATOM     10  C   UNL     1       3.033   6.536  19.459  0.00  0.00    +0.000 C 
ATOM     11  C   UNL     1       2.687   7.033  18.064  0.00  0.00    +0.000 C 
ENDBRANCH   9  10
ENDBRANCH   3   9
ENDBRANCH   1   4
BRANCH   2  12
ATOM     12  C   UNL     1       6.261   4.482  16.065  0.00  0.00    +0.000 C 
ATOM     13  O   UNL     1       7.172   4.607  16.875  0.00  0.00    +0.000 OA
BRANCH  12  14
ATOM     14  C   UNL     1       6.551   4.403  14.607  0.00  0.00    +0.000 A 
ATOM     15  C   UNL     1       5.907   3.480  13.769  0.00  0.00    +0.000 A 
ATOM     16  C   UNL     1       6.199   3.453  12.401  0.00  0.00    +0.000 A 
ATOM     17  C   UNL     1       7.127   4.348  11.871  0.00  0.00    +0.000 A 
ATOM     18  C   UNL     1       7.748   5.269  12.707  0.00  0.00    +0.000 A 
ATOM     19  F   UNL     1       8.632   6.135  12.189  0.00  0.00    +0.000 F 
ATOM     20  C   UNL     1       7.465   5.311  14.067  0.00  0.00    +0.000 A 
ENDBRANCH  12  14
ENDBRANCH   2  12
TORSDOF 7
ENDMDL
MODEL 4
REMARK VINA RESULT:      -6.7      2.590      6.297
REMARK  Name = 
REMARK  9 active torsions:
REMARK  status: ('A' for Active; 'I' for Inactive)
REMARK    1  A    between atoms: C_1  and  C_2
REMARK    2  A    between atoms: C_2  and  C_3
REMARK    3  A    between atoms: C_3  and  N_4
REMARK    4  A    between atoms: N_4  and  C_5
REMARK    5  A    between atoms: C_5  and  C_6
REMARK    6  A    between atoms: C_6  and  C_7
REMARK    7  A    between atoms: C_8  and  C_10
REMARK    8  A    between atoms: C_11  and  C_12
REMARK    9  A    between atoms: C_12  and  C_14
REMARK                            x       y       z     vdW  Elec       q    Type
REMARK                         _______ _______ _______ _____ _____    ______ ____
ROOT
ATOM      1  C   UNL     1       4.185   4.531  17.350  0.00  0.00    +0.000 C 
ATOM      2  C   UNL     1       4.878   3.914  16.382  0.00  0.00    +0.000 C 
ENDROOT
BRANCH   1   4
ATOM      3  N   UNL     1       2.250   4.457  18.910  0.00  0.00    +0.000 N 
ATOM      4  C   UNL     1       2.866   3.970  17.759  0.00  0.00    +0.000 C 
ATOM      5  O   UNL     1       2.359   3.089  17.053  0.00  0.00    +0.000 OA
BRANCH   3   6
ATOM      6  C   UNL     1       1.005   3.786  19.326  0.00  0.00    +0.000 C 
BRANCH   6   8
ATOM      7  C   UNL     1       1.494   2.790  21.656  0.00  0.00    +0.000 C 
ATOM      8  C   UNL     1       1.143   2.531  20.200  0.00  0.00    +0.000 C 
ENDBRANCH   6   8
ENDBRANCH   3   6
BRANCH   3   9
ATOM      9  C   UNL     1       2.811   5.498  19.789  0.00  0.00    +0.000 C 
BRANCH   9  10
ATOM     10  C   UNL     1       2.405   6.946  19.476  0.00  0.00    +0.000 C 
ATOM     11  C   UNL     1       1.688   7.672  20.603  0.00  0.00    +0.000 C 
ENDBRANCH   9  10
ENDBRANCH   3   9
ENDBRANCH   1   4
BRANCH   2  12
ATOM     12  C   UNL     1       6.199   4.451  15.963  0.00  0.00    +0.000 C 
ATOM     13  O   UNL     1       6.707   4.143  14.891  0.00  0.00    +0.000 OA
BRANCH  12  14
ATOM     14  C   UNL     1       6.885   5.403  16.879  0.00  0.00    +0.000 A 
ATOM     15  C   UNL     1       6.933   6.781  16.621  0.00  0.00    +0.000 A 
ATOM     16  C   UNL     1       7.575   7.641  17.518  0.00  0.00    +0.000 A 
ATOM     17  C   UNL     1       8.161   7.126  18.673  0.00  0.00    +0.000 A 
ATOM     18  C   UNL     1       8.094   5.761  18.929  0.00  0.00    +0.000 A 
ATOM     19  F   UNL     1       8.650   5.274  20.047  0.00  0.00    +0.000 F 
ATOM     20  C   UNL     1       7.457   4.895  18.048  0.00  0.00    +0.000 A 
ENDBRANCH  12  14
ENDBRANCH   2  12
TORSDOF 7
ENDMDL
MODEL 5
REMARK VINA RESULT:      -6.7      3.040      7.197
REMARK  Name = 
REMARK  9 active torsions:
REMARK  status: ('A' for Active; 'I' for Inactive)
REMARK    1  A    between atoms: C_1  and  C_2
REMARK    2  A    between atoms: C_2  and  C_3
REMARK    3  A    between atoms: C_3  and  N_4
REMARK    4  A    between atoms: N_4  and  C_5
REMARK    5  A    between atoms: C_5  and  C_6
REMARK    6  A    between atoms: C_6  and  C_7
REMARK    7  A    between atoms: C_8  and  C_10
REMARK    8  A    between atoms: C_11  and  C_12
REMARK    9  A    between atoms: C_12  and  C_14
REMARK                            x       y       z     vdW  Elec       q    Type
REMARK                         _______ _______ _______ _____ _____    ______ ____
ROOT
ATOM      1  C   UNL     1       4.428   4.279  16.980  0.00  0.00    +0.000 C 
ATOM      2  C   UNL     1       5.639   3.814  16.642  0.00  0.00    +0.000 C 
ENDROOT
BRANCH   1   4
ATOM      3  N   UNL     1       2.247   3.865  18.099  0.00  0.00    +0.000 N 
ATOM      4  C   UNL     1       3.472   3.365  17.666  0.00  0.00    +0.000 C 
ATOM      5  O   UNL     1       3.803   2.182  17.822  0.00  0.00    +0.000 OA
BRANCH   3   6
ATOM      6  C   UNL     1       1.393   2.944  18.870  0.00  0.00    +0.000 C 
BRANCH   6   8
ATOM      7  C   UNL     1       2.109   3.041  21.347  0.00  0.00    +0.000 C 
ATOM      8  C   UNL     1       1.043   3.349  20.308  0.00  0.00    +0.000 C 
ENDBRANCH   6   8
ENDBRANCH   3   6
BRANCH   3   9
ATOM      9  C   UNL     1       1.807   5.263  17.945  0.00  0.00    +0.000 C 
BRANCH   9  10
ATOM     10  C   UNL     1       2.517   6.301  18.828  0.00  0.00    +0.000 C 
ATOM     11  C   UNL     1       2.702   7.670  18.191  0.00  0.00    +0.000 C 
ENDBRANCH   9  10
ENDBRANCH   3   9
ENDBRANCH   1   4
BRANCH   2  12
ATOM     12  C   UNL     1       6.612   4.711  15.963  0.00  0.00    +0.000 C 
ATOM     13  O   UNL     1       7.281   5.525  16.589  0.00  0.00    +0.000 OA
BRANCH  12  14
ATOM     14  C   UNL     1       6.770   4.576  14.490  0.00  0.00    +0.000 A 
ATOM     15  C   UNL     1       7.669   5.371  13.762  0.00  0.00    +0.000 A 
ATOM     16  C   UNL     1       7.797   5.199  12.379  0.00  0.00    +0.000 A 
ATOM     17  C   UNL     1       7.035   4.232  11.727  0.00  0.00    +0.000 A 
ATOM     18  C   UNL     1       6.158   3.438  12.459  0.00  0.00    +0.000 A 
ATOM     19  F   UNL     1       5.436   2.502  11.827  0.00  0.00    +0.000 F 
ATOM     20  C   UNL     1       6.023   3.595  13.833  0.00  0.00    +0.000 A 
ENDBRANCH  12  14
ENDBRANCH   2  12
TORSDOF 7
ENDMDL
MODEL 6
REMARK VINA RESULT:      -6.7      3.001      6.428
REMARK  Name = 
REMARK  9 active torsions:
REMARK  status: ('A' for Active; 'I' for Inactive)
REMARK    1  A    between atoms: C_1  and  C_2
REMARK    2  A    between atoms: C_2  and  C_3
REMARK    3  A    between atoms: C_3  and  N_4
REMARK    4  A    between atoms: N_4  and  C_5
REMARK    5  A    between atoms: C_5  and  C_6
REMARK    6  A    between atoms: C_6  and  C_7
REMARK    7  A    between atoms: C_8  and  C_10
REMARK    8  A    between atoms: C_11  and  C_12
REMARK    9  A    between atoms: C_12  and  C_14
REMARK                            x       y       z     vdW  Elec       q    Type
REMARK                         _______ _______ _______ _____ _____    ______ ____
ROOT
ATOM      1  C   UNL     1       4.412   4.107  17.632  0.00  0.00    +0.000 C 
ATOM      2  C   UNL     1       4.949   3.791  16.444  0.00  0.00    +0.000 C 
ENDROOT
BRANCH   1   4
ATOM      3  N   UNL     1       2.210   4.257  18.777  0.00  0.00    +0.000 N 
ATOM      4  C   UNL     1       3.101   3.509  18.010  0.00  0.00    +0.000 C 
ATOM      5  O   UNL     1       2.846   2.361  17.622  0.00  0.00    +0.000 OA
BRANCH   3   6
ATOM      6  C   UNL     1       0.981   3.572  19.215  0.00  0.00    +0.000 C 
BRANCH   6   8
ATOM      7  C   UNL     1       1.934   3.203  21.584  0.00  0.00    +0.000 C 
ATOM      8  C   UNL     1       1.086   2.660  20.446  0.00  0.00    +0.000 C 
ENDBRANCH   6   8
ENDBRANCH   3   6
BRANCH   3   9
ATOM      9  C   UNL     1       2.466   5.621  19.271  0.00  0.00    +0.000 C 
BRANCH   9  10
ATOM     10  C   UNL     1       2.191   6.766  18.283  0.00  0.00    +0.000 C 
ATOM     11  C   UNL     1       3.423   7.528  17.821  0.00  0.00    +0.000 C 
ENDBRANCH   9  10
ENDBRANCH   3   9
ENDBRANCH   1   4
BRANCH   2  12
ATOM     12  C   UNL     1       6.260   4.370  16.049  0.00  0.00    +0.000 C 
ATOM     13  O   UNL     1       6.772   4.121  14.964  0.00  0.00    +0.000 OA
BRANCH  12  14
ATOM     14  C   UNL     1       6.930   5.290  17.007  0.00  0.00    +0.000 A 
ATOM     15  C   UNL     1       7.573   4.822  18.164  0.00  0.00    +0.000 A 
ATOM     16  C   UNL     1       8.205   5.722  19.028  0.00  0.00    +0.000 A 
ATOM     17  C   UNL     1       8.201   7.084  18.736  0.00  0.00    +0.000 A 
ATOM     18  C   UNL     1       7.576   7.538  17.579  0.00  0.00    +0.000 A 
ATOM     19  F   UNL     1       7.585   8.849  17.298  0.00  0.00    +0.000 F 
ATOM     20  C   UNL     1       6.947   6.655  16.709  0.00  0.00    +0.000 A 
ENDBRANCH  12  14
ENDBRANCH   2  12
TORSDOF 7
ENDMDL
MODEL 7
REMARK VINA RESULT:      -6.7      4.082      6.441
REMARK  Name = 
REMARK  9 active torsions:
REMARK  status: ('A' for Active; 'I' for Inactive)
REMARK    1  A    between atoms: C_1  and  C_2
REMARK    2  A    between atoms: C_2  and  C_3
REMARK    3  A    between atoms: C_3  and  N_4
REMARK    4  A    between atoms: N_4  and  C_5
REMARK    5  A    between atoms: C_5  and  C_6
REMARK    6  A    between atoms: C_6  and  C_7
REMARK    7  A    between atoms: C_8  and  C_10
REMARK    8  A    between atoms: C_11  and  C_12
REMARK    9  A    between atoms: C_12  and  C_14
REMARK                            x       y       z     vdW  Elec       q    Type
REMARK                         _______ _______ _______ _____ _____    ______ ____
ROOT
ATOM      1  C   UNL     1       2.244   8.038  18.964  0.00  0.00    +0.000 C 
ATOM      2  C   UNL     1       2.616   7.217  17.971  0.00  0.00    +0.000 C 
ENDROOT
BRANCH   1   4
ATOM      3  N   UNL     1       0.539   9.773  19.478  0.00  0.00    +0.000 N 
ATOM      4  C   UNL     1       1.533   9.302  18.623  0.00  0.00    +0.000 C 
ATOM      5  O   UNL     1       1.857   9.896  17.586  0.00  0.00    +0.000 OA
BRANCH   3   6
ATOM      6  C   UNL     1      -0.206  10.964  19.031  0.00  0.00    +0.000 C 
BRANCH   6   8
ATOM      7  C   UNL     1      -1.774   9.985  17.231  0.00  0.00    +0.000 C 
ATOM      8  C   UNL     1      -1.644  10.748  18.539  0.00  0.00    +0.000 C 
ENDBRANCH   6   8
ENDBRANCH   3   6
BRANCH   3   9
ATOM      9  C   UNL     1       0.110   9.104  20.718  0.00  0.00    +0.000 C 
BRANCH   9  10
ATOM     10  C   UNL     1       0.546   9.764  22.035  0.00  0.00    +0.000 C 
ATOM     11  C   UNL     1      -0.589  10.134  22.977  0.00  0.00    +0.000 C 
ENDBRANCH   9  10
ENDBRANCH   3   9
ENDBRANCH   1   4
BRANCH   2  12
ATOM     12  C   UNL     1       3.320   5.947  18.288  0.00  0.00    +0.000 C 
ATOM     13  O   UNL     1       4.522   5.812  18.094  0.00  0.00    +0.000 OA
BRANCH  12  14
ATOM     14  C   UNL     1       2.521   4.838  18.877  0.00  0.00    +0.000 A 
ATOM     15  C   UNL     1       1.742   3.979  18.086  0.00  0.00    +0.000 A 
ATOM     16  C   UNL     1       1.020   2.939  18.682  0.00  0.00    +0.000 A 
ATOM     17  C   UNL     1       1.081   2.753  20.061  0.00  0.00    +0.000 A 
ATOM     18  C   UNL     1       1.869   3.599  20.835  0.00  0.00    +0.000 A 
ATOM     19  F   UNL     1       1.932   3.407  22.161  0.00  0.00    +0.000 F 
ATOM     20  C   UNL     1       2.594   4.634  20.258  0.00  0.00    +0.000 A 
ENDBRANCH  12  14
ENDBRANCH   2  12
TORSDOF 7
ENDMDL
MODEL 8
REMARK VINA RESULT:      -6.7      2.710      7.027
REMARK  Name = 
REMARK  9 active torsions:
REMARK  status: ('A' for Active; 'I' for Inactive)
REMARK    1  A    between atoms: C_1  and  C_2
REMARK    2  A    between atoms: C_2  and  C_3
REMARK    3  A    between atoms: C_3  and  N_4
REMARK    4  A    between atoms: N_4  and  C_5
REMARK    5  A    between atoms: C_5  and  C_6
REMARK    6  A    between atoms: C_6  and  C_7
REMARK    7  A    between atoms: C_8  and  C_10
REMARK    8  A    between atoms: C_11  and  C_12
REMARK    9  A    between atoms: C_12  and  C_14
REMARK                            x       y       z     vdW  Elec       q    Type
REMARK                         _______ _______ _______ _____ _____    ______ ____
ROOT
ATOM      1  C   UNL     1       5.038   4.790  17.690  0.00  0.00    +0.000 C 
ATOM      2  C   UNL     1       5.299   5.215  16.445  0.00  0.00    +0.000 C 
ENDROOT
BRANCH   1   4
ATOM      3  N   UNL     1       2.813   3.839  18.263  0.00  0.00    +0.000 N 
ATOM      4  C   UNL     1       3.657   4.947  18.227  0.00  0.00    +0.000 C 
ATOM      5  O   UNL     1       3.308   6.064  18.632  0.00  0.00    +0.000 OA
BRANCH   3   6
ATOM      6  C   UNL     1       1.426   4.080  18.698  0.00  0.00    +0.000 C 
BRANCH   6   8
ATOM      7  C   UNL     1       1.140   2.935  20.992  0.00  0.00    +0.000 C 
ATOM      8  C   UNL     1       1.180   4.234  20.205  0.00  0.00    +0.000 C 
ENDBRANCH   6   8
ENDBRANCH   3   6
BRANCH   3   9
ATOM      9  C   UNL     1       3.175   2.491  17.789  0.00  0.00    +0.000 C 
BRANCH   9  10
ATOM     10  C   UNL     1       3.581   1.476  18.868  0.00  0.00    +0.000 C 
ATOM     11  C   UNL     1       4.474   2.028  19.968  0.00  0.00    +0.000 C 
ENDBRANCH   9  10
ENDBRANCH   3   9
ENDBRANCH   1   4
BRANCH   2  12
ATOM     12  C   UNL     1       6.667   5.062  15.885  0.00  0.00    +0.000 C 
ATOM     13  O   UNL     1       7.665   5.154  16.591  0.00  0.00    +0.000 OA
BRANCH  12  14
ATOM     14  C   UNL     1       6.795   4.768  14.431  0.00  0.00    +0.000 A 
ATOM     15  C   UNL     1       7.694   5.461  13.607  0.00  0.00    +0.000 A 
ATOM     16  C   UNL     1       7.793   5.139  12.249  0.00  0.00    +0.000 A 
ATOM     17  C   UNL     1       7.000   4.124  11.718  0.00  0.00    +0.000 A 
ATOM     18  C   UNL     1       6.123   3.431  12.545  0.00  0.00    +0.000 A 
ATOM     19  F   UNL     1       5.370   2.448  12.030  0.00  0.00    +0.000 F 
ATOM     20  C   UNL     1       6.017   3.737  13.897  0.00  0.00    +0.000 A 
ENDBRANCH  12  14
ENDBRANCH   2  12
TORSDOF 7
ENDMDL
MODEL 9
REMARK VINA RESULT:      -6.6      2.844      7.268
REMARK  Name = 
REMARK  9 active torsions:
REMARK  status: ('A' for Active; 'I' for Inactive)
REMARK    1  A    between atoms: C_1  and  C_2
REMARK    2  A    between atoms: C_2  and  C_3
REMARK    3  A    between atoms: C_3  and  N_4
REMARK    4  A    between atoms: N_4  and  C_5
REMARK    5  A    between atoms: C_5  and  C_6
REMARK    6  A    between atoms: C_6  and  C_7
REMARK    7  A    between atoms: C_8  and  C_10
REMARK    8  A    between atoms: C_11  and  C_12
REMARK    9  A    between atoms: C_12  and  C_14
REMARK                            x       y       z     vdW  Elec       q    Type
REMARK                         _______ _______ _______ _____ _____    ______ ____
ROOT
ATOM      1  C   UNL     1       4.539   5.230  16.921  0.00  0.00    +0.000 C 
ATOM      2  C   UNL     1       5.525   4.472  16.419  0.00  0.00    +0.000 C 
ENDROOT
BRANCH   1   4
ATOM      3  N   UNL     1       2.751   5.317  18.647  0.00  0.00    +0.000 N 
ATOM      4  C   UNL     1       3.454   4.572  17.702  0.00  0.00    +0.000 C 
ATOM      5  O   UNL     1       3.210   3.379  17.478  0.00  0.00    +0.000 OA
BRANCH   3   6
ATOM      6  C   UNL     1       1.770   4.585  19.467  0.00  0.00    +0.000 C 
BRANCH   6   8
ATOM      7  C   UNL     1       1.828   2.968  21.477  0.00  0.00    +0.000 C 
ATOM      8  C   UNL     1       2.117   4.362  20.945  0.00  0.00    +0.000 C 
ENDBRANCH   6   8
ENDBRANCH   3   6
BRANCH   3   9
ATOM      9  C   UNL     1       3.005   6.735  18.957  0.00  0.00    +0.000 C 
BRANCH   9  10
ATOM     10  C   UNL     1       2.618   7.750  17.871  0.00  0.00    +0.000 C 
ATOM     11  C   UNL     1       1.592   8.789  18.295  0.00  0.00    +0.000 C 
ENDBRANCH   9  10
ENDBRANCH   3   9
ENDBRANCH   1   4
BRANCH   2  12
ATOM     12  C   UNL     1       6.622   5.107  15.643  0.00  0.00    +0.000 C 
ATOM     13  O   UNL     1       7.406   5.893  16.162  0.00  0.00    +0.000 OA
BRANCH  12  14
ATOM     14  C   UNL     1       6.760   4.741  14.207  0.00  0.00    +0.000 A 
ATOM     15  C   UNL     1       7.717   5.340  13.374  0.00  0.00    +0.000 A 
ATOM     16  C   UNL     1       7.822   4.952  12.034  0.00  0.00    +0.000 A 
ATOM     17  C   UNL     1       6.977   3.966  11.529  0.00  0.00    +0.000 A 
ATOM     18  C   UNL     1       6.042   3.367  12.365  0.00  0.00    +0.000 A 
ATOM     19  F   UNL     1       5.240   2.410  11.876  0.00  0.00    +0.000 F 
ATOM     20  C   UNL     1       5.929   3.738  13.700  0.00  0.00    +0.000 A 
ENDBRANCH  12  14
ENDBRANCH   2  12
TORSDOF 7
ENDMDL
