MODEL 1
REMARK VINA RESULT:      -6.6      0.000      0.000
REMARK  Name = 
REMARK  5 active torsions:
REMARK  status: ('A' for Active; 'I' for Inactive)
REMARK    1  A    between atoms: C_1  and  C_2
REMARK    2  A    between atoms: C_2  and  N_3
REMARK    3  A    between atoms: N_3  and  C_4
REMARK    4  A    between atoms: N_3  and  C_10
REMARK    5  A    between atoms: C_4  and  C_5
REMARK                            x       y       z     vdW  Elec       q    Type
REMARK                         _______ _______ _______ _____ _____    ______ ____
ROOT
ATOM      1  N   UNL     1       5.094   5.483  18.229  0.00  0.00    +0.000 N 
ENDROOT
BRANCH   1   2
ATOM      2  C   UNL     1       3.909   4.808  18.570  0.00  0.00    +0.000 A 
ATOM      3  C   UNL     1       2.807   4.787  17.686  0.00  0.00    +0.000 A 
ATOM      4  C   UNL     1       1.586   4.198  18.027  0.00  0.00    +0.000 A 
ATOM      5  C   UNL     1       1.453   3.560  19.249  0.00  0.00    +0.000 A 
ATOM      6  F   UNL     1       0.272   3.010  19.567  0.00  0.00    +0.000 F 
ATOM      7  C   UNL     1       2.531   3.501  20.120  0.00  0.00    +0.000 A 
ATOM      8 CL   UNL     1       2.386   2.689  21.634  0.00  0.00    +0.000 Cl
ATOM      9  C   UNL     1       3.743   4.114  19.781  0.00  0.00    +0.000 A 
ENDBRANCH   1   2
BRANCH   1  11
ATOM     10  C   UNL     1       7.487   5.912  18.896  0.00  0.00    +0.000 C 
ATOM     11  C   UNL     1       6.368   4.887  18.709  0.00  0.00    +0.000 C 
ENDBRANCH   1  11
BRANCH   1  12
ATOM     12  C   UNL     1       5.204   6.192  16.933  0.00  0.00    +0.000 C 
BRANCH  12  13
ATOM     13  C   UNL     1       5.809   5.439  15.798  0.00  0.00    +0.000 A 
ATOM     14  C   UNL     1       5.362   4.345  15.089  0.00  0.00    +0.000 A 
ATOM     15  N   UNL     1       6.288   3.947  14.162  0.00  0.00    +0.000 NA
ATOM     16  C   UNL     1       7.290   4.791  14.287  0.00  0.00    +0.000 A 
ATOM     17  N   UNL     1       7.034   5.727  15.250  0.00  0.00    +0.000 N 
ATOM     18  H   UNL     1       7.634   6.497  15.518  0.00  0.00    +0.000 HD
ENDBRANCH  12  13
ENDBRANCH   1  12
TORSDOF 4
ENDMDL
MODEL 2
REMARK VINA RESULT:      -6.6      2.227      3.309
REMARK  Name = 
REMARK  5 active torsions:
REMARK  status: ('A' for Active; 'I' for Inactive)
REMARK    1  A    between atoms: C_1  and  C_2
REMARK    2  A    between atoms: C_2  and  N_3
REMARK    3  A    between atoms: N_3  and  C_4
REMARK    4  A    between atoms: N_3  and  C_10
REMARK    5  A    between atoms: C_4  and  C_5
REMARK                            x       y       z     vdW  Elec       q    Type
REMARK                         _______ _______ _______ _____ _____    ______ ____
ROOT
ATOM      1  N   UNL     1       3.295   6.376  17.680  0.00  0.00    +0.000 N 
ENDROOT
BRANCH   1   2
ATOM      2  C   UNL     1       2.606   5.549  18.584  0.00  0.00    +0.000 A 
ATOM      3  C   UNL     1       2.521   5.884  19.953  0.00  0.00    +0.000 A 
ATOM      4  C   UNL     1       1.917   5.044  20.893  0.00  0.00    +0.000 A 
ATOM      5  C   UNL     1       1.329   3.862  20.475  0.00  0.00    +0.000 A 
ATOM      6  F   UNL     1       0.765   3.060  21.389  0.00  0.00    +0.000 F 
ATOM      7  C   UNL     1       1.334   3.525  19.129  0.00  0.00    +0.000 A 
ATOM      8 CL   UNL     1       0.585   2.069  18.591  0.00  0.00    +0.000 Cl
ATOM      9  C   UNL     1       1.962   4.361  18.198  0.00  0.00    +0.000 A 
ENDBRANCH   1   2
BRANCH   1  11
ATOM     10  C   UNL     1       1.913   8.484  17.754  0.00  0.00    +0.000 C 
ATOM     11  C   UNL     1       3.282   7.835  17.962  0.00  0.00    +0.000 C 
ENDBRANCH   1  11
BRANCH   1  12
ATOM     12  C   UNL     1       4.529   5.895  17.018  0.00  0.00    +0.000 C 
BRANCH  12  13
ATOM     13  C   UNL     1       5.772   5.869  17.838  0.00  0.00    +0.000 A 
ATOM     14  C   UNL     1       6.114   5.131  18.951  0.00  0.00    +0.000 A 
ATOM     15  N   UNL     1       7.353   5.487  19.417  0.00  0.00    +0.000 NA
ATOM     16  C   UNL     1       7.776   6.425  18.596  0.00  0.00    +0.000 A 
ATOM     17  N   UNL     1       6.862   6.672  17.610  0.00  0.00    +0.000 N 
ATOM     18  H   UNL     1       6.961   7.328  16.845  0.00  0.00    +0.000 HD
ENDBRANCH  12  13
ENDBRANCH   1  12
TORSDOF 4
ENDMDL
MODEL 3
REMARK VINA RESULT:      -6.5      1.741      1.992
REMARK  Name = 
REMARK  5 active torsions:
REMARK  status: ('A' for Active; 'I' for Inactive)
REMARK    1  A    between atoms: C_1  and  C_2
REMARK    2  A    between atoms: C_2  and  N_3
REMARK    3  A    between atoms: N_3  and  C_4
REMARK    4  A    between atoms: N_3  and  C_10
REMARK    5  A    between atoms: C_4  and  C_5
REMARK                            x       y       z     vdW  Elec       q    Type
REMARK                         _______ _______ _______ _____ _____    ______ ____
ROOT
ATOM      1  N   UNL     1       6.196   5.631  17.078  0.00  0.00    +0.000 N 
ENDROOT
BRANCH   1   2
ATOM      2  C   UNL     1       4.874   5.255  17.376  0.00  0.00    +0.000 A 
ATOM      3  C   UNL     1       3.893   6.226  17.675  0.00  0.00    +0.000 A 
ATOM      4  C   UNL     1       2.593   5.884  18.056  0.00  0.00    +0.000 A 
ATOM      5  C   UNL     1       2.221   4.550  18.096  0.00  0.00    +0.000 A 
ATOM      6  F   UNL     1       0.974   4.236  18.475  0.00  0.00    +0.000 F 
ATOM      7  C   UNL     1       3.135   3.566  17.747  0.00  0.00    +0.000 A 
ATOM      8 CL   UNL     1       2.679   1.904  17.768  0.00  0.00    +0.000 Cl
ATOM      9  C   UNL     1       4.443   3.917  17.389  0.00  0.00    +0.000 A 
ENDBRANCH   1   2
BRANCH   1  11
ATOM     10  C   UNL     1       7.760   5.803  19.047  0.00  0.00    +0.000 C 
ATOM     11  C   UNL     1       6.869   6.537  18.044  0.00  0.00    +0.000 C 
ENDBRANCH   1  11
BRANCH   1  12
ATOM     12  C   UNL     1       7.107   4.684  16.395  0.00  0.00    +0.000 C 
BRANCH  12  13
ATOM     13  C   UNL     1       7.023   4.615  14.909  0.00  0.00    +0.000 A 
ATOM     14  C   UNL     1       6.261   3.825  14.075  0.00  0.00    +0.000 A 
ATOM     15  N   UNL     1       6.563   4.062  12.760  0.00  0.00    +0.000 NA
ATOM     16  C   UNL     1       7.491   4.995  12.780  0.00  0.00    +0.000 A 
ATOM     17  N   UNL     1       7.784   5.377  14.059  0.00  0.00    +0.000 N 
ATOM     18  H   UNL     1       8.444   6.093  14.339  0.00  0.00    +0.000 HD
ENDBRANCH  12  13
ENDBRANCH   1  12
TORSDOF 4
ENDMDL
MODEL 4
REMARK VINA RESULT:      -6.5      1.569      1.804
REMARK  Name = 
REMARK  5 active torsions:
REMARK  status: ('A' for Active; 'I' for Inactive)
REMARK    1  A    between atoms: C_1  and  C_2
REMARK    2  A    between atoms: C_2  and  N_3
REMARK    3  A    between atoms: N_3  and  C_4
REMARK    4  A    between atoms: N_3  and  C_10
REMARK    5  A    between atoms: C_4  and  C_5
REMARK                            x       y       z     vdW  Elec       q    Type
REMARK                         _______ _______ _______ _____ _____    ______ ____
ROOT
ATOM      1  N   UNL     1       5.126   5.375  16.639  0.00  0.00    +0.000 N 
ENDROOT
BRANCH   1   2
ATOM      2  C   UNL     1       4.033   4.921  17.398  0.00  0.00    +0.000 A 
ATOM      3  C   UNL     1       3.389   3.703  17.086  0.00  0.00    +0.000 A 
ATOM      4  C   UNL     1       2.249   3.264  17.766  0.00  0.00    +0.000 A 
ATOM      5  C   UNL     1       1.753   4.011  18.821  0.00  0.00    +0.000 A 
ATOM      6  F   UNL     1       0.652   3.583  19.456  0.00  0.00    +0.000 F 
ATOM      7  C   UNL     1       2.394   5.180  19.203  0.00  0.00    +0.000 A 
ATOM      8 CL   UNL     1       1.802   6.107  20.531  0.00  0.00    +0.000 Cl
ATOM      9  C   UNL     1       3.520   5.625  18.501  0.00  0.00    +0.000 A 
ENDBRANCH   1   2
BRANCH   1  11
ATOM     10  C   UNL     1       6.993   6.746  17.631  0.00  0.00    +0.000 C 
ATOM     11  C   UNL     1       5.630   6.740  16.939  0.00  0.00    +0.000 C 
ENDBRANCH   1  11
BRANCH   1  12
ATOM     12  C   UNL     1       6.169   4.425  16.190  0.00  0.00    +0.000 C 
BRANCH  12  13
ATOM     13  C   UNL     1       6.573   4.489  14.757  0.00  0.00    +0.000 A 
ATOM     14  C   UNL     1       6.155   3.767  13.660  0.00  0.00    +0.000 A 
ATOM     15  N   UNL     1       6.855   4.126  12.538  0.00  0.00    +0.000 NA
ATOM     16  C   UNL     1       7.687   5.065  12.934  0.00  0.00    +0.000 A 
ATOM     17  N   UNL     1       7.535   5.335  14.266  0.00  0.00    +0.000 N 
ATOM     18  H   UNL     1       8.038   6.031  14.802  0.00  0.00    +0.000 HD
ENDBRANCH  12  13
ENDBRANCH   1  12
TORSDOF 4
ENDMDL
MODEL 5
REMARK VINA RESULT:      -6.5      1.128      1.233
REMARK  Name = 
REMARK  5 active torsions:
REMARK  status: ('A' for Active; 'I' for Inactive)
REMARK    1  A    between atoms: C_1  and  C_2
REMARK    2  A    between atoms: C_2  and  N_3
REMARK    3  A    between atoms: N_3  and  C_4
REMARK    4  A    between atoms: N_3  and  C_10
REMARK    5  A    between atoms: C_4  and  C_5
REMARK                            x       y       z     vdW  Elec       q    Type
REMARK                         _______ _______ _______ _____ _____    ______ ____
ROOT
ATOM      1  N   UNL     1       5.338   5.791  18.411  0.00  0.00    +0.000 N 
ENDROOT
BRANCH   1   2
ATOM      2  C   UNL     1       4.102   5.305  18.874  0.00  0.00    +0.000 A 
ATOM      3  C   UNL     1       3.194   6.154  19.545  0.00  0.00    +0.000 A 
ATOM      4  C   UNL     1       1.996   5.685  20.091  0.00  0.00    +0.000 A 
ATOM      5  C   UNL     1       1.647   4.354  19.931  0.00  0.00    +0.000 A 
ATOM      6  F   UNL     1       0.501   3.916  20.472  0.00  0.00    +0.000 F 
ATOM      7  C   UNL     1       2.480   3.500  19.223  0.00  0.00    +0.000 A 
ATOM      8 CL   UNL     1       2.046   1.848  18.995  0.00  0.00    +0.000 Cl
ATOM      9  C   UNL     1       3.689   3.973  18.700  0.00  0.00    +0.000 A 
ENDBRANCH   1   2
BRANCH   1  11
ATOM     10  C   UNL     1       7.762   5.935  19.086  0.00  0.00    +0.000 C 
ATOM     11  C   UNL     1       6.551   5.039  18.822  0.00  0.00    +0.000 C 
ENDBRANCH   1  11
BRANCH   1  12
ATOM     12  C   UNL     1       5.438   6.427  17.077  0.00  0.00    +0.000 C 
BRANCH  12  13
ATOM     13  C   UNL     1       5.886   5.565  15.947  0.00  0.00    +0.000 A 
ATOM     14  C   UNL     1       5.290   4.485  15.332  0.00  0.00    +0.000 A 
ATOM     15  N   UNL     1       6.106   3.956  14.368  0.00  0.00    +0.000 NA
ATOM     16  C   UNL     1       7.188   4.705  14.378  0.00  0.00    +0.000 A 
ATOM     17  N   UNL     1       7.090   5.707  15.303  0.00  0.00    +0.000 N 
ATOM     18  H   UNL     1       7.776   6.429  15.486  0.00  0.00    +0.000 HD
ENDBRANCH  12  13
ENDBRANCH   1  12
TORSDOF 4
ENDMDL
MODEL 6
REMARK VINA RESULT:      -6.4      1.865      3.212
REMARK  Name = 
REMARK  5 active torsions:
REMARK  status: ('A' for Active; 'I' for Inactive)
REMARK    1  A    between atoms: C_1  and  C_2
REMARK    2  A    between atoms: C_2  and  N_3
REMARK    3  A    between atoms: N_3  and  C_4
REMARK    4  A    between atoms: N_3  and  C_10
REMARK    5  A    between atoms: C_4  and  C_5
REMARK                            x       y       z     vdW  Elec       q    Type
REMARK                         _______ _______ _______ _____ _____    ______ ____
ROOT
ATOM      1  N   UNL     1       5.613   4.212  16.169  0.00  0.00    +0.000 N 
ENDROOT
BRANCH   1   2
ATOM      2  C   UNL     1       4.495   4.310  17.015  0.00  0.00    +0.000 A 
ATOM      3  C   UNL     1       3.947   5.568  17.350  0.00  0.00    +0.000 A 
ATOM      4  C   UNL     1       2.890   5.708  18.253  0.00  0.00    +0.000 A 
ATOM      5  C   UNL     1       2.312   4.578  18.808  0.00  0.00    +0.000 A 
ATOM      6  F   UNL     1       1.307   4.727  19.683  0.00  0.00    +0.000 F 
ATOM      7  C   UNL     1       2.777   3.319  18.457  0.00  0.00    +0.000 A 
ATOM      8 CL   UNL     1       2.051   1.903  19.120  0.00  0.00    +0.000 Cl
ATOM      9  C   UNL     1       3.852   3.190  17.569  0.00  0.00    +0.000 A 
ENDBRANCH   1   2
BRANCH   1  11
ATOM     10  C   UNL     1       6.084   3.902  13.712  0.00  0.00    +0.000 C 
ATOM     11  C   UNL     1       5.474   4.781  14.804  0.00  0.00    +0.000 C 
ENDBRANCH   1  11
BRANCH   1  12
ATOM     12  C   UNL     1       6.982   4.297  16.727  0.00  0.00    +0.000 C 
BRANCH  12  13
ATOM     13  C   UNL     1       7.396   5.604  17.312  0.00  0.00    +0.000 A 
ATOM     14  C   UNL     1       7.811   5.943  18.582  0.00  0.00    +0.000 A 
ATOM     15  N   UNL     1       8.029   7.292  18.684  0.00  0.00    +0.000 NA
ATOM     16  C   UNL     1       7.763   7.779  17.491  0.00  0.00    +0.000 A 
ATOM     17  N   UNL     1       7.399   6.789  16.620  0.00  0.00    +0.000 N 
ATOM     18  H   UNL     1       7.170   6.902  15.640  0.00  0.00    +0.000 HD
ENDBRANCH  12  13
ENDBRANCH   1  12
TORSDOF 4
ENDMDL
MODEL 7
REMARK VINA RESULT:      -6.4      1.752      2.935
REMARK  Name = 
REMARK  5 active torsions:
REMARK  status: ('A' for Active; 'I' for Inactive)
REMARK    1  A    between atoms: C_1  and  C_2
REMARK    2  A    between atoms: C_2  and  N_3
REMARK    3  A    between atoms: N_3  and  C_4
REMARK    4  A    between atoms: N_3  and  C_10
REMARK    5  A    between atoms: C_4  and  C_5
REMARK                            x       y       z     vdW  Elec       q    Type
REMARK                         _______ _______ _______ _____ _____    ______ ____
ROOT
ATOM      1  N   UNL     1       4.974   4.591  16.928  0.00  0.00    +0.000 N 
ENDROOT
BRANCH   1   2
ATOM      2  C   UNL     1       3.863   4.170  17.680  0.00  0.00    +0.000 A 
ATOM      3  C   UNL     1       3.235   2.933  17.415  0.00  0.00    +0.000 A 
ATOM      4  C   UNL     1       2.080   2.522  18.086  0.00  0.00    +0.000 A 
ATOM      5  C   UNL     1       1.550   3.320  19.087  0.00  0.00    +0.000 A 
ATOM      6  F   UNL     1       0.435   2.919  19.713  0.00  0.00    +0.000 F 
ATOM      7  C   UNL     1       2.174   4.513  19.423  0.00  0.00    +0.000 A 
ATOM      8 CL   UNL     1       1.540   5.504  20.684  0.00  0.00    +0.000 Cl
ATOM      9  C   UNL     1       3.317   4.928  18.729  0.00  0.00    +0.000 A 
ENDBRANCH   1   2
BRANCH   1  11
ATOM     10  C   UNL     1       5.680   4.459  14.511  0.00  0.00    +0.000 C 
ATOM     11  C   UNL     1       5.404   3.707  15.814  0.00  0.00    +0.000 C 
ENDBRANCH   1  11
BRANCH   1  12
ATOM     12  C   UNL     1       5.210   6.033  16.686  0.00  0.00    +0.000 C 
BRANCH  12  13
ATOM     13  C   UNL     1       6.411   6.640  17.325  0.00  0.00    +0.000 A 
ATOM     14  C   UNL     1       7.266   6.164  18.296  0.00  0.00    +0.000 A 
ATOM     15  N   UNL     1       8.207   7.102  18.627  0.00  0.00    +0.000 NA
ATOM     16  C   UNL     1       7.946   8.141  17.863  0.00  0.00    +0.000 A 
ATOM     17  N   UNL     1       6.881   7.898  17.040  0.00  0.00    +0.000 N 
ATOM     18  H   UNL     1       6.499   8.527  16.344  0.00  0.00    +0.000 HD
ENDBRANCH  12  13
ENDBRANCH   1  12
TORSDOF 4
ENDMDL
MODEL 8
REMARK VINA RESULT:      -6.4      3.694      6.077
REMARK  Name = 
REMARK  5 active torsions:
REMARK  status: ('A' for Active; 'I' for Inactive)
REMARK    1  A    between atoms: C_1  and  C_2
REMARK    2  A    between atoms: C_2  and  N_3
REMARK    3  A    between atoms: N_3  and  C_4
REMARK    4  A    between atoms: N_3  and  C_10
REMARK    5  A    between atoms: C_4  and  C_5
REMARK                            x       y       z     vdW  Elec       q    Type
REMARK                         _______ _______ _______ _____ _____    ______ ____
ROOT
ATOM      1  N   UNL     1       2.902   5.548  18.457  0.00  0.00    +0.000 N 
ENDROOT
BRANCH   1   2
ATOM      2  C   UNL     1       4.079   5.348  17.714  0.00  0.00    +0.000 A 
ATOM      3  C   UNL     1       4.220   4.226  16.868  0.00  0.00    +0.000 A 
ATOM      4  C   UNL     1       5.406   3.951  16.181  0.00  0.00    +0.000 A 
ATOM      5  C   UNL     1       6.472   4.831  16.280  0.00  0.00    +0.000 A 
ATOM      6  F   UNL     1       7.607   4.548  15.625  0.00  0.00    +0.000 F 
ATOM      7  C   UNL     1       6.352   5.979  17.049  0.00  0.00    +0.000 A 
ATOM      8 CL   UNL     1       7.662   7.095  17.161  0.00  0.00    +0.000 Cl
ATOM      9  C   UNL     1       5.169   6.234  17.753  0.00  0.00    +0.000 A 
ENDBRANCH   1   2
BRANCH   1  11
ATOM     10  C   UNL     1       2.098   7.567  19.734  0.00  0.00    +0.000 C 
ATOM     11  C   UNL     1       2.276   6.893  18.373  0.00  0.00    +0.000 C 
ENDBRANCH   1  11
BRANCH   1  12
ATOM     12  C   UNL     1       1.938   4.439  18.643  0.00  0.00    +0.000 C 
BRANCH  12  13
ATOM     13  C   UNL     1       1.985   3.711  19.942  0.00  0.00    +0.000 A 
ATOM     14  C   UNL     1       3.046   3.242  20.686  0.00  0.00    +0.000 A 
ATOM     15  N   UNL     1       2.610   2.568  21.796  0.00  0.00    +0.000 NA
ATOM     16  C   UNL     1       1.296   2.630  21.746  0.00  0.00    +0.000 A 
ATOM     17  N   UNL     1       0.873   3.334  20.653  0.00  0.00    +0.000 N 
ATOM     18  H   UNL     1      -0.086   3.543  20.404  0.00  0.00    +0.000 HD
ENDBRANCH  12  13
ENDBRANCH   1  12
TORSDOF 4
ENDMDL
MODEL 9
REMARK VINA RESULT:      -6.3      1.265      1.270
REMARK  Name = 
REMARK  5 active torsions:
REMARK  status: ('A' for Active; 'I' for Inactive)
REMARK    1  A    between atoms: C_1  and  C_2
REMARK    2  A    between atoms: C_2  and  N_3
REMARK    3  A    between atoms: N_3  and  C_4
REMARK    4  A    between atoms: N_3  and  C_10
REMARK    5  A    between atoms: C_4  and  C_5
REMARK                            x       y       z     vdW  Elec       q    Type
REMARK                         _______ _______ _______ _____ _____    ______ ____
ROOT
ATOM      1  N   UNL     1       5.447   5.853  18.203  0.00  0.00    +0.000 N 
ENDROOT
BRANCH   1   2
ATOM      2  C   UNL     1       4.325   5.007  18.174  0.00  0.00    +0.000 A 
ATOM      3  C   UNL     1       3.029   5.528  17.964  0.00  0.00    +0.000 A 
ATOM      4  C   UNL     1       1.884   4.728  18.012  0.00  0.00    +0.000 A 
ATOM      5  C   UNL     1       2.011   3.364  18.219  0.00  0.00    +0.000 A 
ATOM      6  F   UNL     1       0.904   2.611  18.275  0.00  0.00    +0.000 F 
ATOM      7  C   UNL     1       3.271   2.801  18.366  0.00  0.00    +0.000 A 
ATOM      8 CL   UNL     1       3.446   1.103  18.600  0.00  0.00    +0.000 Cl
ATOM      9  C   UNL     1       4.411   3.614  18.340  0.00  0.00    +0.000 A 
ENDBRANCH   1   2
BRANCH   1  11
ATOM     10  C   UNL     1       7.848   6.245  18.865  0.00  0.00    +0.000 C 
ATOM     11  C   UNL     1       6.555   5.467  19.115  0.00  0.00    +0.000 C 
ENDBRANCH   1  11
BRANCH   1  12
ATOM     12  C   UNL     1       5.886   6.555  16.975  0.00  0.00    +0.000 C 
BRANCH  12  13
ATOM     13  C   UNL     1       6.155   5.716  15.774  0.00  0.00    +0.000 A 
ATOM     14  C   UNL     1       5.317   4.958  14.986  0.00  0.00    +0.000 A 
ATOM     15  N   UNL     1       6.020   4.294  14.015  0.00  0.00    +0.000 NA
ATOM     16  C   UNL     1       7.275   4.646  14.193  0.00  0.00    +0.000 A 
ATOM     17  N   UNL     1       7.402   5.525  15.233  0.00  0.00    +0.000 N 
ATOM     18  H   UNL     1       8.257   5.962  15.553  0.00  0.00    +0.000 HD
ENDBRANCH  12  13
ENDBRANCH   1  12
TORSDOF 4
ENDMDL
