MODEL 1
REMARK VINA RESULT:      -7.9      0.000      0.000
REMARK  Name = 
REMARK  12 active torsions:
REMARK  status: ('A' for Active; 'I' for Inactive)
REMARK    1  A    between atoms: C_1  and  C_2
REMARK    2  A    between atoms: C_2  and  C_3
REMARK    3  A    between atoms: C_3  and  C_4
REMARK    4  A    between atoms: C_7  and  O_8
REMARK    5  A    between atoms: O_8  and  C_9
REMARK    6  A    between atoms: C_9  and  C_10
REMARK    7  A    between atoms: N_12  and  C_13
REMARK    8  A    between atoms: N_12  and  C_26
REMARK    9  A    between atoms: C_13  and  C_14
REMARK   10  A    between atoms: C_18  and  C_19
REMARK   11  A    between atoms: C_26  and  C_27
REMARK   12  A    between atoms: C_26  and  C_28
REMARK                            x       y       z     vdW  Elec       q    Type
REMARK                         _______ _______ _______ _____ _____    ______ ____
ROOT
ATOM      1  C   UNL     1       2.358   5.400  18.915  0.00  0.00    +0.000 C 
ATOM      2  O   UNL     1       2.555   5.816  17.767  0.00  0.00    +0.000 OA
ATOM      3  N   UNL     1       2.538   4.046  19.231  0.00  0.00    +0.000 N 
ENDROOT
BRANCH   3   4
ATOM      4  C   UNL     1       2.479   3.546  20.616  0.00  0.00    +0.000 C 
ATOM      5  C   UNL     1       1.079   3.099  21.041  0.00  0.00    +0.000 C 
ATOM      6  C   UNL     1       3.494   2.415  20.838  0.00  0.00    +0.000 C 
ENDBRANCH   3   4
BRANCH   1   7
ATOM      7  C   UNL     1       1.989   6.420  20.021  0.00  0.00    +0.000 C 
BRANCH   7   8
ATOM      8  O   UNL     1       2.212   7.797  19.739  0.00  0.00    +0.000 OA
BRANCH   8  12
ATOM      9  C   UNL     1      -0.304  10.676  21.489  0.00  0.00    +0.000 A 
ATOM     10  C   UNL     1       0.120  10.767  20.157  0.00  0.00    +0.000 A 
ATOM     11  C   UNL     1       0.918   9.759  19.588  0.00  0.00    +0.000 A 
ATOM     12  C   UNL     1       1.327   8.661  20.346  0.00  0.00    +0.000 A 
ATOM     13  C   UNL     1       0.837   8.528  21.647  0.00  0.00    +0.000 A 
ATOM     14  C   UNL     1       0.040   9.530  22.219  0.00  0.00    +0.000 A 
BRANCH   9  15
ATOM     15  C   UNL     1      -1.033  11.815  22.168  0.00  0.00    +0.000 C 
BRANCH  15  17
ATOM     16  C   UNL     1      -3.226  12.309  23.361  0.00  0.00    +0.000 C 
ATOM     17  C   UNL     1      -1.982  11.436  23.302  0.00  0.00    +0.000 C 
ENDBRANCH  15  17
ENDBRANCH   9  15
ENDBRANCH   8  12
ENDBRANCH   7   8
ENDBRANCH   1   7
BRANCH   3  18
ATOM     18  C   UNL     1       3.182   3.196  18.205  0.00  0.00    +0.000 C 
BRANCH  18  19
ATOM     19  C   UNL     1       4.589   3.563  17.787  0.00  0.00    +0.000 A 
ATOM     20  C   UNL     1       5.475   4.103  18.713  0.00  0.00    +0.000 A 
ATOM     21  N   UNL     1       6.676   4.635  18.396  0.00  0.00    +0.000 NA
ATOM     22  C   UNL     1       6.996   4.681  17.078  0.00  0.00    +0.000 A 
ATOM     23  C   UNL     1       6.204   4.188  16.039  0.00  0.00    +0.000 A 
ATOM     24  C   UNL     1       4.998   3.583  16.447  0.00  0.00    +0.000 A 
BRANCH  23  25
ATOM     25  C   UNL     1       6.558   4.352  14.611  0.00  0.00    +0.000 A 
ATOM     26  C   UNL     1       6.033   3.587  13.576  0.00  0.00    +0.000 A 
ATOM     27  N   UNL     1       6.366   3.704  12.268  0.00  0.00    +0.000 NA
ATOM     28  C   UNL     1       7.277   4.641  11.981  0.00  0.00    +0.000 A 
ATOM     29  N   UNL     1       7.869   5.446  12.867  0.00  0.00    +0.000 NA
ATOM     30  C   UNL     1       7.497   5.273  14.158  0.00  0.00    +0.000 A 
ENDBRANCH  23  25
ENDBRANCH  18  19
ENDBRANCH   3  18
TORSDOF 9
ENDMDL
MODEL 2
REMARK VINA RESULT:      -7.7      4.957      8.089
REMARK  Name = 
REMARK  12 active torsions:
REMARK  status: ('A' for Active; 'I' for Inactive)
REMARK    1  A    between atoms: C_1  and  C_2
REMARK    2  A    between atoms: C_2  and  C_3
REMARK    3  A    between atoms: C_3  and  C_4
REMARK    4  A    between atoms: C_7  and  O_8
REMARK    5  A    between atoms: O_8  and  C_9
REMARK    6  A    between atoms: C_9  and  C_10
REMARK    7  A    between atoms: N_12  and  C_13
REMARK    8  A    between atoms: N_12  and  C_26
REMARK    9  A    between atoms: C_13  and  C_14
REMARK   10  A    between atoms: C_18  and  C_19
REMARK   11  A    between atoms: C_26  and  C_27
REMARK   12  A    between atoms: C_26  and  C_28
REMARK                            x       y       z     vdW  Elec       q    Type
REMARK                         _______ _______ _______ _____ _____    ______ ____
ROOT
ATOM      1  C   UNL     1       7.363   6.125  18.450  0.00  0.00    +0.000 C 
ATOM      2  O   UNL     1       7.339   5.831  19.652  0.00  0.00    +0.000 OA
ATOM      3  N   UNL     1       6.787   5.279  17.492  0.00  0.00    +0.000 N 
ENDROOT
BRANCH   3   4
ATOM      4  C   UNL     1       6.646   5.673  16.078  0.00  0.00    +0.000 C 
ATOM      5  C   UNL     1       6.768   4.498  15.105  0.00  0.00    +0.000 C 
ATOM      6  C   UNL     1       5.330   6.429  15.845  0.00  0.00    +0.000 C 
ENDBRANCH   3   4
BRANCH   1   7
ATOM      7  C   UNL     1       7.968   7.488  18.031  0.00  0.00    +0.000 C 
BRANCH   7   8
ATOM      8  O   UNL     1       8.833   8.131  18.961  0.00  0.00    +0.000 OA
BRANCH   8  12
ATOM      9  C   UNL     1       9.033  12.280  18.306  0.00  0.00    +0.000 A 
ATOM     10  C   UNL     1       8.244  11.437  17.513  0.00  0.00    +0.000 A 
ATOM     11  C   UNL     1       8.159  10.062  17.793  0.00  0.00    +0.000 A 
ATOM     12  C   UNL     1       8.880   9.503  18.849  0.00  0.00    +0.000 A 
ATOM     13  C   UNL     1       9.599  10.355  19.690  0.00  0.00    +0.000 A 
ATOM     14  C   UNL     1       9.687  11.728  19.416  0.00  0.00    +0.000 A 
BRANCH   9  15
ATOM     15  C   UNL     1       9.262  13.729  17.937  0.00  0.00    +0.000 C 
BRANCH  15  17
ATOM     16  C   UNL     1      11.422  13.539  16.604  0.00  0.00    +0.000 C 
ATOM     17  C   UNL     1      10.716  14.174  17.792  0.00  0.00    +0.000 C 
ENDBRANCH  15  17
ENDBRANCH   9  15
ENDBRANCH   8  12
ENDBRANCH   7   8
ENDBRANCH   1   7
BRANCH   3  18
ATOM     18  C   UNL     1       5.966   4.156  17.992  0.00  0.00    +0.000 C 
BRANCH  18  19
ATOM     19  C   UNL     1       4.602   4.493  18.553  0.00  0.00    +0.000 A 
ATOM     20  C   UNL     1       3.678   3.483  18.799  0.00  0.00    +0.000 A 
ATOM     21  N   UNL     1       2.382   3.698  19.114  0.00  0.00    +0.000 NA
ATOM     22  C   UNL     1       1.963   4.988  19.138  0.00  0.00    +0.000 A 
ATOM     23  C   UNL     1       2.773   6.102  18.904  0.00  0.00    +0.000 A 
ATOM     24  C   UNL     1       4.128   5.808  18.651  0.00  0.00    +0.000 A 
BRANCH  23  25
ATOM     25  C   UNL     1       2.243   7.483  18.846  0.00  0.00    +0.000 A 
ATOM     26  C   UNL     1       2.341   8.319  17.740  0.00  0.00    +0.000 A 
ATOM     27  N   UNL     1       1.888   9.594  17.679  0.00  0.00    +0.000 NA
ATOM     28  C   UNL     1       1.302  10.057  18.790  0.00  0.00    +0.000 A 
ATOM     29  N   UNL     1       1.139   9.373  19.925  0.00  0.00    +0.000 NA
ATOM     30  C   UNL     1       1.621   8.107  19.922  0.00  0.00    +0.000 A 
ENDBRANCH  23  25
ENDBRANCH  18  19
ENDBRANCH   3  18
TORSDOF 9
ENDMDL
MODEL 3
REMARK VINA RESULT:      -7.6      3.038      9.825
REMARK  Name = 
REMARK  12 active torsions:
REMARK  status: ('A' for Active; 'I' for Inactive)
REMARK    1  A    between atoms: C_1  and  C_2
REMARK    2  A    between atoms: C_2  and  C_3
REMARK    3  A    between atoms: C_3  and  C_4
REMARK    4  A    between atoms: C_7  and  O_8
REMARK    5  A    between atoms: O_8  and  C_9
REMARK    6  A    between atoms: C_9  and  C_10
REMARK    7  A    between atoms: N_12  and  C_13
REMARK    8  A    between atoms: N_12  and  C_26
REMARK    9  A    between atoms: C_13  and  C_14
REMARK   10  A    between atoms: C_18  and  C_19
REMARK   11  A    between atoms: C_26  and  C_27
REMARK   12  A    between atoms: C_26  and  C_28
REMARK                            x       y       z     vdW  Elec       q    Type
REMARK                         _______ _______ _______ _____ _____    ______ ____
ROOT
ATOM      1  C   UNL     1       5.493   6.480  17.498  0.00  0.00    +0.000 C 
ATOM      2  O   UNL     1       5.507   7.689  17.239  0.00  0.00    +0.000 OA
ATOM      3  N   UNL     1       4.297   5.830  17.836  0.00  0.00    +0.000 N 
ENDROOT
BRANCH   3   4
ATOM      4  C   UNL     1       4.211   4.366  17.984  0.00  0.00    +0.000 C 
ATOM      5  C   UNL     1       4.493   3.882  19.407  0.00  0.00    +0.000 C 
ATOM      6  C   UNL     1       2.853   3.841  17.496  0.00  0.00    +0.000 C 
ENDBRANCH   3   4
BRANCH   1   7
ATOM      7  C   UNL     1       6.810   5.676  17.360  0.00  0.00    +0.000 C 
BRANCH   7   8
ATOM      8  O   UNL     1       7.514   5.784  16.128  0.00  0.00    +0.000 OA
BRANCH   8  12
ATOM      9  C   UNL     1       5.988   3.626  12.859  0.00  0.00    +0.000 A 
ATOM     10  C   UNL     1       7.008   4.574  12.715  0.00  0.00    +0.000 A 
ATOM     11  C   UNL     1       7.531   5.239  13.837  0.00  0.00    +0.000 A 
ATOM     12  C   UNL     1       7.027   4.989  15.114  0.00  0.00    +0.000 A 
ATOM     13  C   UNL     1       6.069   3.985  15.268  0.00  0.00    +0.000 A 
ATOM     14  C   UNL     1       5.544   3.317  14.152  0.00  0.00    +0.000 A 
BRANCH   9  15
ATOM     15  C   UNL     1       5.304   3.009  11.658  0.00  0.00    +0.000 C 
BRANCH  15  17
ATOM     16  C   UNL     1       7.211   1.474  10.961  0.00  0.00    +0.000 C 
ATOM     17  C   UNL     1       5.729   1.591  11.286  0.00  0.00    +0.000 C 
ENDBRANCH  15  17
ENDBRANCH   9  15
ENDBRANCH   8  12
ENDBRANCH   7   8
ENDBRANCH   1   7
BRANCH   3  18
ATOM     18  C   UNL     1       3.042   6.591  17.649  0.00  0.00    +0.000 C 
BRANCH  18  19
ATOM     19  C   UNL     1       2.465   7.282  18.865  0.00  0.00    +0.000 A 
ATOM     20  C   UNL     1       2.211   6.558  20.025  0.00  0.00    +0.000 A 
ATOM     21  N   UNL     1       1.525   7.038  21.086  0.00  0.00    +0.000 NA
ATOM     22  C   UNL     1       1.019   8.291  20.971  0.00  0.00    +0.000 A 
ATOM     23  C   UNL     1       1.185   9.130  19.866  0.00  0.00    +0.000 A 
ATOM     24  C   UNL     1       1.969   8.592  18.826  0.00  0.00    +0.000 A 
BRANCH  23  25
ATOM     25  C   UNL     1       0.528  10.451  19.754  0.00  0.00    +0.000 A 
ATOM     26  C   UNL     1       0.735  11.348  18.712  0.00  0.00    +0.000 A 
ATOM     27  N   UNL     1       0.165  12.572  18.607  0.00  0.00    +0.000 NA
ATOM     28  C   UNL     1      -0.660  12.917  19.602  0.00  0.00    +0.000 A 
ATOM     29  N   UNL     1      -0.952  12.164  20.666  0.00  0.00    +0.000 NA
ATOM     30  C   UNL     1      -0.343  10.955  20.714  0.00  0.00    +0.000 A 
ENDBRANCH  23  25
ENDBRANCH  18  19
ENDBRANCH   3  18
TORSDOF 9
ENDMDL
MODEL 4
REMARK VINA RESULT:      -7.6      5.195      8.281
REMARK  Name = 
REMARK  12 active torsions:
REMARK  status: ('A' for Active; 'I' for Inactive)
REMARK    1  A    between atoms: C_1  and  C_2
REMARK    2  A    between atoms: C_2  and  C_3
REMARK    3  A    between atoms: C_3  and  C_4
REMARK    4  A    between atoms: C_7  and  O_8
REMARK    5  A    between atoms: O_8  and  C_9
REMARK    6  A    between atoms: C_9  and  C_10
REMARK    7  A    between atoms: N_12  and  C_13
REMARK    8  A    between atoms: N_12  and  C_26
REMARK    9  A    between atoms: C_13  and  C_14
REMARK   10  A    between atoms: C_18  and  C_19
REMARK   11  A    between atoms: C_26  and  C_27
REMARK   12  A    between atoms: C_26  and  C_28
REMARK                            x       y       z     vdW  Elec       q    Type
REMARK                         _______ _______ _______ _____ _____    ______ ____
ROOT
ATOM      1  C   UNL     1       7.624   6.556  18.062  0.00  0.00    +0.000 C 
ATOM      2  O   UNL     1       7.833   6.467  19.278  0.00  0.00    +0.000 OA
ATOM      3  N   UNL     1       6.985   5.521  17.365  0.00  0.00    +0.000 N 
ENDROOT
BRANCH   3   4
ATOM      4  C   UNL     1       6.567   5.661  15.958  0.00  0.00    +0.000 C 
ATOM      5  C   UNL     1       6.418   4.322  15.233  0.00  0.00    +0.000 C 
ATOM      6  C   UNL     1       5.273   6.480  15.846  0.00  0.00    +0.000 C 
ENDBRANCH   3   4
BRANCH   1   7
ATOM      7  C   UNL     1       8.006   7.871  17.338  0.00  0.00    +0.000 C 
BRANCH   7   8
ATOM      8  O   UNL     1       7.640   9.093  17.968  0.00  0.00    +0.000 OA
BRANCH   8  12
ATOM      9  C   UNL     1      10.697  11.625  19.354  0.00  0.00    +0.000 A 
ATOM     10  C   UNL     1      10.026  10.734  20.200  0.00  0.00    +0.000 A 
ATOM     11  C   UNL     1       9.046   9.864  19.693  0.00  0.00    +0.000 A 
ATOM     12  C   UNL     1       8.701   9.889  18.341  0.00  0.00    +0.000 A 
ATOM     13  C   UNL     1       9.426  10.717  17.483  0.00  0.00    +0.000 A 
ATOM     14  C   UNL     1      10.407  11.587  17.983  0.00  0.00    +0.000 A 
BRANCH   9  15
ATOM     15  C   UNL     1      11.644  12.674  19.896  0.00  0.00    +0.000 C 
BRANCH  15  17
ATOM     16  C   UNL     1      11.428  15.068  19.060  0.00  0.00    +0.000 C 
ATOM     17  C   UNL     1      11.056  14.062  20.139  0.00  0.00    +0.000 C 
ENDBRANCH  15  17
ENDBRANCH   9  15
ENDBRANCH   8  12
ENDBRANCH   7   8
ENDBRANCH   1   7
BRANCH   3  18
ATOM     18  C   UNL     1       6.379   4.440  18.172  0.00  0.00    +0.000 C 
BRANCH  18  19
ATOM     19  C   UNL     1       4.996   4.686  18.732  0.00  0.00    +0.000 A 
ATOM     20  C   UNL     1       4.164   3.614  19.039  0.00  0.00    +0.000 A 
ATOM     21  N   UNL     1       2.857   3.733  19.359  0.00  0.00    +0.000 NA
ATOM     22  C   UNL     1       2.329   4.982  19.323  0.00  0.00    +0.000 A 
ATOM     23  C   UNL     1       3.037   6.148  19.024  0.00  0.00    +0.000 A 
ATOM     24  C   UNL     1       4.412   5.959  18.770  0.00  0.00    +0.000 A 
BRANCH  23  25
ATOM     25  C   UNL     1       2.390   7.473  18.905  0.00  0.00    +0.000 A 
ATOM     26  C   UNL     1       2.458   8.285  17.779  0.00  0.00    +0.000 A 
ATOM     27  N   UNL     1       1.896   9.512  17.662  0.00  0.00    +0.000 NA
ATOM     28  C   UNL     1       1.227   9.950  18.735  0.00  0.00    +0.000 A 
ATOM     29  N   UNL     1       1.080   9.285  19.884  0.00  0.00    +0.000 NA
ATOM     30  C   UNL     1       1.672   8.068  19.937  0.00  0.00    +0.000 A 
ENDBRANCH  23  25
ENDBRANCH  18  19
ENDBRANCH   3  18
TORSDOF 9
ENDMDL
MODEL 5
REMARK VINA RESULT:      -7.5      4.825      8.116
REMARK  Name = 
REMARK  12 active torsions:
REMARK  status: ('A' for Active; 'I' for Inactive)
REMARK    1  A    between atoms: C_1  and  C_2
REMARK    2  A    between atoms: C_2  and  C_3
REMARK    3  A    between atoms: C_3  and  C_4
REMARK    4  A    between atoms: C_7  and  O_8
REMARK    5  A    between atoms: O_8  and  C_9
REMARK    6  A    between atoms: C_9  and  C_10
REMARK    7  A    between atoms: N_12  and  C_13
REMARK    8  A    between atoms: N_12  and  C_26
REMARK    9  A    between atoms: C_13  and  C_14
REMARK   10  A    between atoms: C_18  and  C_19
REMARK   11  A    between atoms: C_26  and  C_27
REMARK   12  A    between atoms: C_26  and  C_28
REMARK                            x       y       z     vdW  Elec       q    Type
REMARK                         _______ _______ _______ _____ _____    ______ ____
ROOT
ATOM      1  C   UNL     1       7.050   5.816  18.418  0.00  0.00    +0.000 C 
ATOM      2  O   UNL     1       7.081   5.518  19.618  0.00  0.00    +0.000 OA
ATOM      3  N   UNL     1       6.232   5.112  17.523  0.00  0.00    +0.000 N 
ENDROOT
BRANCH   3   4
ATOM      4  C   UNL     1       6.039   5.543  16.126  0.00  0.00    +0.000 C 
ATOM      5  C   UNL     1       5.629   4.405  15.190  0.00  0.00    +0.000 C 
ATOM      6  C   UNL     1       5.033   6.699  16.041  0.00  0.00    +0.000 C 
ENDBRANCH   3   4
BRANCH   1   7
ATOM      7  C   UNL     1       7.869   7.039  17.936  0.00  0.00    +0.000 C 
BRANCH   7   8
ATOM      8  O   UNL     1       8.483   7.848  18.933  0.00  0.00    +0.000 OA
BRANCH   8  12
ATOM      9  C   UNL     1       8.912  11.964  18.191  0.00  0.00    +0.000 A 
ATOM     10  C   UNL     1       9.628  11.310  19.201  0.00  0.00    +0.000 A 
ATOM     11  C   UNL     1       9.500   9.922  19.387  0.00  0.00    +0.000 A 
ATOM     12  C   UNL     1       8.636   9.172  18.588  0.00  0.00    +0.000 A 
ATOM     13  C   UNL     1       7.987   9.808  17.528  0.00  0.00    +0.000 A 
ATOM     14  C   UNL     1       8.112  11.192  17.337  0.00  0.00    +0.000 A 
BRANCH   9  15
ATOM     15  C   UNL     1       8.914  13.472  18.067  0.00  0.00    +0.000 C 
BRANCH  15  17
ATOM     16  C   UNL     1      11.206  13.696  16.983  0.00  0.00    +0.000 C 
ATOM     17  C   UNL     1      10.279  14.156  18.098  0.00  0.00    +0.000 C 
ENDBRANCH  15  17
ENDBRANCH   9  15
ENDBRANCH   8  12
ENDBRANCH   7   8
ENDBRANCH   1   7
BRANCH   3  18
ATOM     18  C   UNL     1       5.257   4.165  18.105  0.00  0.00    +0.000 C 
BRANCH  18  19
ATOM     19  C   UNL     1       4.219   4.734  19.048  0.00  0.00    +0.000 A 
ATOM     20  C   UNL     1       3.545   3.898  19.933  0.00  0.00    +0.000 A 
ATOM     21  N   UNL     1       2.478   4.274  20.670  0.00  0.00    +0.000 NA
ATOM     22  C   UNL     1       2.019   5.537  20.484  0.00  0.00    +0.000 A 
ATOM     23  C   UNL     1       2.586   6.482  19.626  0.00  0.00    +0.000 A 
ATOM     24  C   UNL     1       3.739   6.046  18.941  0.00  0.00    +0.000 A 
BRANCH  23  25
ATOM     25  C   UNL     1       1.987   7.814  19.389  0.00  0.00    +0.000 A 
ATOM     26  C   UNL     1       2.086   8.522  18.197  0.00  0.00    +0.000 A 
ATOM     27  N   UNL     1       1.569   9.753  17.971  0.00  0.00    +0.000 NA
ATOM     28  C   UNL     1       0.914  10.307  18.998  0.00  0.00    +0.000 A 
ATOM     29  N   UNL     1       0.741   9.749  20.200  0.00  0.00    +0.000 NA
ATOM     30  C   UNL     1       1.289   8.522  20.362  0.00  0.00    +0.000 A 
ENDBRANCH  23  25
ENDBRANCH  18  19
ENDBRANCH   3  18
TORSDOF 9
ENDMDL
MODEL 6
REMARK VINA RESULT:      -7.5      4.766     11.259
REMARK  Name = 
REMARK  12 active torsions:
REMARK  status: ('A' for Active; 'I' for Inactive)
REMARK    1  A    between atoms: C_1  and  C_2
REMARK    2  A    between atoms: C_2  and  C_3
REMARK    3  A    between atoms: C_3  and  C_4
REMARK    4  A    between atoms: C_7  and  O_8
REMARK    5  A    between atoms: O_8  and  C_9
REMARK    6  A    between atoms: C_9  and  C_10
REMARK    7  A    between atoms: N_12  and  C_13
REMARK    8  A    between atoms: N_12  and  C_26
REMARK    9  A    between atoms: C_13  and  C_14
REMARK   10  A    between atoms: C_18  and  C_19
REMARK   11  A    between atoms: C_26  and  C_27
REMARK   12  A    between atoms: C_26  and  C_28
REMARK                            x       y       z     vdW  Elec       q    Type
REMARK                         _______ _______ _______ _____ _____    ______ ____
ROOT
ATOM      1  C   UNL     1       0.146   9.914  22.157  0.00  0.00    +0.000 C 
ATOM      2  O   UNL     1       0.059  10.138  23.371  0.00  0.00    +0.000 OA
ATOM      3  N   UNL     1      -0.068  10.935  21.221  0.00  0.00    +0.000 N 
ENDROOT
BRANCH   3   4
ATOM      4  C   UNL     1       0.193  10.751  19.781  0.00  0.00    +0.000 C 
ATOM      5  C   UNL     1      -1.030  10.267  19.000  0.00  0.00    +0.000 C 
ATOM      6  C   UNL     1       0.759  12.033  19.154  0.00  0.00    +0.000 C 
ENDBRANCH   3   4
BRANCH   1   7
ATOM      7  C   UNL     1       0.580   8.502  21.692  0.00  0.00    +0.000 C 
BRANCH   7   8
ATOM      8  O   UNL     1       1.796   8.401  20.959  0.00  0.00    +0.000 OA
BRANCH   8  12
ATOM      9  C   UNL     1       2.078   5.008  18.493  0.00  0.00    +0.000 A 
ATOM     10  C   UNL     1       2.473   6.280  18.060  0.00  0.00    +0.000 A 
ATOM     11  C   UNL     1       2.415   7.383  18.928  0.00  0.00    +0.000 A 
ATOM     12  C   UNL     1       1.937   7.240  20.232  0.00  0.00    +0.000 A 
ATOM     13  C   UNL     1       1.622   5.960  20.691  0.00  0.00    +0.000 A 
ATOM     14  C   UNL     1       1.680   4.855  19.828  0.00  0.00    +0.000 A 
BRANCH   9  15
ATOM     15  C   UNL     1       1.987   3.838  17.538  0.00  0.00    +0.000 C 
BRANCH  15  17
ATOM     16  C   UNL     1       4.393   3.237  18.112  0.00  0.00    +0.000 C 
ATOM     17  C   UNL     1       3.014   2.723  17.726  0.00  0.00    +0.000 C 
ENDBRANCH  15  17
ENDBRANCH   9  15
ENDBRANCH   8  12
ENDBRANCH   7   8
ENDBRANCH   1   7
BRANCH   3  18
ATOM     18  C   UNL     1      -0.175  12.315  21.742  0.00  0.00    +0.000 C 
BRANCH  18  19
ATOM     19  C   UNL     1      -1.561  12.826  22.068  0.00  0.00    +0.000 A 
ATOM     20  C   UNL     1      -1.846  13.315  23.339  0.00  0.00    +0.000 A 
ATOM     21  N   UNL     1      -3.088  13.610  23.780  0.00  0.00    +0.000 NA
ATOM     22  C   UNL     1      -4.115  13.359  22.930  0.00  0.00    +0.000 A 
ATOM     23  C   UNL     1      -3.983  12.861  21.632  0.00  0.00    +0.000 A 
ATOM     24  C   UNL     1      -2.655  12.642  21.212  0.00  0.00    +0.000 A 
BRANCH  23  25
ATOM     25  C   UNL     1      -5.144  12.513  20.783  0.00  0.00    +0.000 A 
ATOM     26  C   UNL     1      -6.442  12.347  21.252  0.00  0.00    +0.000 A 
ATOM     27  N   UNL     1      -7.511  12.001  20.495  0.00  0.00    +0.000 NA
ATOM     28  C   UNL     1      -7.265  11.813  19.193  0.00  0.00    +0.000 A 
ATOM     29  N   UNL     1      -6.074  11.934  18.602  0.00  0.00    +0.000 NA
ATOM     30  C   UNL     1      -5.047  12.274  19.416  0.00  0.00    +0.000 A 
ENDBRANCH  23  25
ENDBRANCH  18  19
ENDBRANCH   3  18
TORSDOF 9
ENDMDL
MODEL 7
REMARK VINA RESULT:      -7.5      5.156      8.167
REMARK  Name = 
REMARK  12 active torsions:
REMARK  status: ('A' for Active; 'I' for Inactive)
REMARK    1  A    between atoms: C_1  and  C_2
REMARK    2  A    between atoms: C_2  and  C_3
REMARK    3  A    between atoms: C_3  and  C_4
REMARK    4  A    between atoms: C_7  and  O_8
REMARK    5  A    between atoms: O_8  and  C_9
REMARK    6  A    between atoms: C_9  and  C_10
REMARK    7  A    between atoms: N_12  and  C_13
REMARK    8  A    between atoms: N_12  and  C_26
REMARK    9  A    between atoms: C_13  and  C_14
REMARK   10  A    between atoms: C_18  and  C_19
REMARK   11  A    between atoms: C_26  and  C_27
REMARK   12  A    between atoms: C_26  and  C_28
REMARK                            x       y       z     vdW  Elec       q    Type
REMARK                         _______ _______ _______ _____ _____    ______ ____
ROOT
ATOM      1  C   UNL     1       7.475   6.362  18.322  0.00  0.00    +0.000 C 
ATOM      2  O   UNL     1       7.510   5.991  19.502  0.00  0.00    +0.000 OA
ATOM      3  N   UNL     1       6.963   5.526  17.320  0.00  0.00    +0.000 N 
ENDROOT
BRANCH   3   4
ATOM      4  C   UNL     1       6.747   5.994  15.938  0.00  0.00    +0.000 C 
ATOM      5  C   UNL     1       6.976   4.907  14.886  0.00  0.00    +0.000 C 
ATOM      6  C   UNL     1       5.350   6.612  15.777  0.00  0.00    +0.000 C 
ENDBRANCH   3   4
BRANCH   1   7
ATOM      7  C   UNL     1       7.928   7.804  17.984  0.00  0.00    +0.000 C 
BRANCH   7   8
ATOM      8  O   UNL     1       8.873   8.413  18.857  0.00  0.00    +0.000 OA
BRANCH   8  12
ATOM      9  C   UNL     1       9.074  12.612  18.810  0.00  0.00    +0.000 A 
ATOM     10  C   UNL     1       9.690  11.847  19.809  0.00  0.00    +0.000 A 
ATOM     11  C   UNL     1       9.647  10.443  19.764  0.00  0.00    +0.000 A 
ATOM     12  C   UNL     1       8.968   9.782  18.740  0.00  0.00    +0.000 A 
ATOM     13  C   UNL     1       8.426  10.541  17.701  0.00  0.00    +0.000 A 
ATOM     14  C   UNL     1       8.466  11.942  17.739  0.00  0.00    +0.000 A 
BRANCH   9  15
ATOM     15  C   UNL     1       8.974  14.119  18.913  0.00  0.00    +0.000 C 
BRANCH  15  17
ATOM     16  C   UNL     1      11.022  15.067  17.735  0.00  0.00    +0.000 C 
ATOM     17  C   UNL     1      10.290  14.880  19.055  0.00  0.00    +0.000 C 
ENDBRANCH  15  17
ENDBRANCH   9  15
ENDBRANCH   8  12
ENDBRANCH   7   8
ENDBRANCH   1   7
BRANCH   3  18
ATOM     18  C   UNL     1       6.271   4.295  17.759  0.00  0.00    +0.000 C 
BRANCH  18  19
ATOM     19  C   UNL     1       4.782   4.389  18.008  0.00  0.00    +0.000 A 
ATOM     20  C   UNL     1       3.913   3.493  17.393  0.00  0.00    +0.000 A 
ATOM     21  N   UNL     1       2.567   3.614  17.399  0.00  0.00    +0.000 NA
ATOM     22  C   UNL     1       2.054   4.713  18.006  0.00  0.00    +0.000 A 
ATOM     23  C   UNL     1       2.802   5.699  18.654  0.00  0.00    +0.000 A 
ATOM     24  C   UNL     1       4.193   5.473  18.671  0.00  0.00    +0.000 A 
BRANCH  23  25
ATOM     25  C   UNL     1       2.197   6.927  19.216  0.00  0.00    +0.000 A 
ATOM     26  C   UNL     1       2.001   8.105  18.504  0.00  0.00    +0.000 A 
ATOM     27  N   UNL     1       1.476   9.248  19.009  0.00  0.00    +0.000 NA
ATOM     28  C   UNL     1       1.126   9.206  20.299  0.00  0.00    +0.000 A 
ATOM     29  N   UNL     1       1.257   8.150  21.106  0.00  0.00    +0.000 NA
ATOM     30  C   UNL     1       1.795   7.043  20.542  0.00  0.00    +0.000 A 
ENDBRANCH  23  25
ENDBRANCH  18  19
ENDBRANCH   3  18
TORSDOF 9
ENDMDL
MODEL 8
REMARK VINA RESULT:      -7.5      3.136      9.496
REMARK  Name = 
REMARK  12 active torsions:
REMARK  status: ('A' for Active; 'I' for Inactive)
REMARK    1  A    between atoms: C_1  and  C_2
REMARK    2  A    between atoms: C_2  and  C_3
REMARK    3  A    between atoms: C_3  and  C_4
REMARK    4  A    between atoms: C_7  and  O_8
REMARK    5  A    between atoms: O_8  and  C_9
REMARK    6  A    between atoms: C_9  and  C_10
REMARK    7  A    between atoms: N_12  and  C_13
REMARK    8  A    between atoms: N_12  and  C_26
REMARK    9  A    between atoms: C_13  and  C_14
REMARK   10  A    between atoms: C_18  and  C_19
REMARK   11  A    between atoms: C_26  and  C_27
REMARK   12  A    between atoms: C_26  and  C_28
REMARK                            x       y       z     vdW  Elec       q    Type
REMARK                         _______ _______ _______ _____ _____    ______ ____
ROOT
ATOM      1  C   UNL     1       5.294   6.290  17.268  0.00  0.00    +0.000 C 
ATOM      2  O   UNL     1       5.232   7.468  16.892  0.00  0.00    +0.000 OA
ATOM      3  N   UNL     1       4.152   5.621  17.728  0.00  0.00    +0.000 N 
ENDROOT
BRANCH   3   4
ATOM      4  C   UNL     1       4.151   4.175  18.021  0.00  0.00    +0.000 C 
ATOM      5  C   UNL     1       4.212   3.859  19.516  0.00  0.00    +0.000 C 
ATOM      6  C   UNL     1       2.943   3.483  17.374  0.00  0.00    +0.000 C 
ENDBRANCH   3   4
BRANCH   1   7
ATOM      7  C   UNL     1       6.644   5.541  17.140  0.00  0.00    +0.000 C 
BRANCH   7   8
ATOM      8  O   UNL     1       7.414   5.780  15.968  0.00  0.00    +0.000 OA
BRANCH   8  12
ATOM      9  C   UNL     1       6.016   3.514  12.714  0.00  0.00    +0.000 A 
ATOM     10  C   UNL     1       5.338   3.557  13.939  0.00  0.00    +0.000 A 
ATOM     11  C   UNL     1       5.805   4.367  14.988  0.00  0.00    +0.000 A 
ATOM     12  C   UNL     1       6.969   5.124  14.842  0.00  0.00    +0.000 A 
ATOM     13  C   UNL     1       7.598   5.146  13.595  0.00  0.00    +0.000 A 
ATOM     14  C   UNL     1       7.135   4.340  12.544  0.00  0.00    +0.000 A 
BRANCH   9  15
ATOM     15  C   UNL     1       5.624   2.539  11.625  0.00  0.00    +0.000 C 
BRANCH  15  17
ATOM     16  C   UNL     1       3.251   3.273  11.064  0.00  0.00    +0.000 C 
ATOM     17  C   UNL     1       4.669   3.063  10.554  0.00  0.00    +0.000 C 
ENDBRANCH  15  17
ENDBRANCH   9  15
ENDBRANCH   8  12
ENDBRANCH   7   8
ENDBRANCH   1   7
BRANCH   3  18
ATOM     18  C   UNL     1       2.851   6.298  17.534  0.00  0.00    +0.000 C 
BRANCH  18  19
ATOM     19  C   UNL     1       2.400   7.253  18.617  0.00  0.00    +0.000 A 
ATOM     20  C   UNL     1       2.222   6.799  19.920  0.00  0.00    +0.000 A 
ATOM     21  N   UNL     1       1.644   7.521  20.904  0.00  0.00    +0.000 NA
ATOM     22  C   UNL     1       1.168   8.746  20.567  0.00  0.00    +0.000 A 
ATOM     23  C   UNL     1       1.267   9.328  19.301  0.00  0.00    +0.000 A 
ATOM     24  C   UNL     1       1.944   8.548  18.340  0.00  0.00    +0.000 A 
BRANCH  23  25
ATOM     25  C   UNL     1       0.644  10.627  18.962  0.00  0.00    +0.000 A 
ATOM     26  C   UNL     1      -0.696  10.798  18.637  0.00  0.00    +0.000 A 
ATOM     27  N   UNL     1      -1.277  11.974  18.297  0.00  0.00    +0.000 NA
ATOM     28  C   UNL     1      -0.468  13.040  18.285  0.00  0.00    +0.000 A 
ATOM     29  N   UNL     1       0.837  13.028  18.571  0.00  0.00    +0.000 NA
ATOM     30  C   UNL     1       1.356  11.820  18.895  0.00  0.00    +0.000 A 
ENDBRANCH  23  25
ENDBRANCH  18  19
ENDBRANCH   3  18
TORSDOF 9
ENDMDL
MODEL 9
REMARK VINA RESULT:      -7.5      4.698      8.299
REMARK  Name = 
REMARK  12 active torsions:
REMARK  status: ('A' for Active; 'I' for Inactive)
REMARK    1  A    between atoms: C_1  and  C_2
REMARK    2  A    between atoms: C_2  and  C_3
REMARK    3  A    between atoms: C_3  and  C_4
REMARK    4  A    between atoms: C_7  and  O_8
REMARK    5  A    between atoms: O_8  and  C_9
REMARK    6  A    between atoms: C_9  and  C_10
REMARK    7  A    between atoms: N_12  and  C_13
REMARK    8  A    between atoms: N_12  and  C_26
REMARK    9  A    between atoms: C_13  and  C_14
REMARK   10  A    between atoms: C_18  and  C_19
REMARK   11  A    between atoms: C_26  and  C_27
REMARK   12  A    between atoms: C_26  and  C_28
REMARK                            x       y       z     vdW  Elec       q    Type
REMARK                         _______ _______ _______ _____ _____    ______ ____
ROOT
ATOM      1  C   UNL     1       6.933   5.660  18.581  0.00  0.00    +0.000 C 
ATOM      2  O   UNL     1       6.784   5.272  19.746  0.00  0.00    +0.000 OA
ATOM      3  N   UNL     1       6.145   5.140  17.544  0.00  0.00    +0.000 N 
ENDROOT
BRANCH   3   4
ATOM      4  C   UNL     1       6.174   5.697  16.179  0.00  0.00    +0.000 C 
ATOM      5  C   UNL     1       6.301   4.629  15.091  0.00  0.00    +0.000 C 
ATOM      6  C   UNL     1       4.949   6.585  15.919  0.00  0.00    +0.000 C 
ENDBRANCH   3   4
BRANCH   1   7
ATOM      7  C   UNL     1       7.950   6.794  18.300  0.00  0.00    +0.000 C 
BRANCH   7   8
ATOM      8  O   UNL     1       7.446   7.995  17.727  0.00  0.00    +0.000 OA
BRANCH   8  12
ATOM      9  C   UNL     1       9.485  11.555  18.644  0.00  0.00    +0.000 A 
ATOM     10  C   UNL     1       8.493  11.498  17.658  0.00  0.00    +0.000 A 
ATOM     11  C   UNL     1       7.794  10.303  17.414  0.00  0.00    +0.000 A 
ATOM     12  C   UNL     1       8.093   9.143  18.129  0.00  0.00    +0.000 A 
ATOM     13  C   UNL     1       9.022   9.220  19.168  0.00  0.00    +0.000 A 
ATOM     14  C   UNL     1       9.722  10.410  19.417  0.00  0.00    +0.000 A 
BRANCH   9  15
ATOM     15  C   UNL     1      10.355  12.781  18.823  0.00  0.00    +0.000 C 
BRANCH  15  17
ATOM     16  C   UNL     1      12.133  13.342  17.090  0.00  0.00    +0.000 C 
ATOM     17  C   UNL     1      11.817  12.646  18.405  0.00  0.00    +0.000 C 
ENDBRANCH  15  17
ENDBRANCH   9  15
ENDBRANCH   8  12
ENDBRANCH   7   8
ENDBRANCH   1   7
BRANCH   3  18
ATOM     18  C   UNL     1       4.997   4.293  17.932  0.00  0.00    +0.000 C 
BRANCH  18  19
ATOM     19  C   UNL     1       4.040   4.853  18.961  0.00  0.00    +0.000 A 
ATOM     20  C   UNL     1       3.419   4.006  19.872  0.00  0.00    +0.000 A 
ATOM     21  N   UNL     1       2.414   4.378  20.695  0.00  0.00    +0.000 NA
ATOM     22  C   UNL     1       1.963   5.652  20.572  0.00  0.00    +0.000 A 
ATOM     23  C   UNL     1       2.481   6.609  19.697  0.00  0.00    +0.000 A 
ATOM     24  C   UNL     1       3.573   6.173  18.919  0.00  0.00    +0.000 A 
BRANCH  23  25
ATOM     25  C   UNL     1       1.887   7.955  19.535  0.00  0.00    +0.000 A 
ATOM     26  C   UNL     1       1.210   8.643  20.535  0.00  0.00    +0.000 A 
ATOM     27  N   UNL     1       0.636   9.863  20.397  0.00  0.00    +0.000 NA
ATOM     28  C   UNL     1       0.749  10.425  19.188  0.00  0.00    +0.000 A 
ATOM     29  N   UNL     1       1.366   9.884  18.134  0.00  0.00    +0.000 NA
ATOM     30  C   UNL     1       1.912   8.661  18.337  0.00  0.00    +0.000 A 
ENDBRANCH  23  25
ENDBRANCH  18  19
ENDBRANCH   3  18
TORSDOF 9
ENDMDL
