MODEL 1
REMARK VINA RESULT:      -8.0      0.000      0.000
REMARK  Name = 
REMARK  6 active torsions:
REMARK  status: ('A' for Active; 'I' for Inactive)
REMARK    1  A    between atoms: C_2  and  C_3
REMARK    2  A    between atoms: C_3  and  O_4
REMARK    3  A    between atoms: O_4  and  C_5
REMARK    4  A    between atoms: N_14  and  C_15
REMARK    5  A    between atoms: C_15  and  C_16
REMARK    6  A    between atoms: C_17  and  C_18
REMARK                            x       y       z     vdW  Elec       q    Type
REMARK                         _______ _______ _______ _____ _____    ______ ____
ROOT
ATOM      1  O   UNL     1       2.199   5.145  17.727  0.00  0.00    +0.000 OA
ATOM      2  C   UNL     1       3.232   4.547  17.417  0.00  0.00    +0.000 C 
ATOM      3  N   UNL     1       4.476   5.161  17.460  0.00  0.00    +0.000 N 
ATOM      4  C   UNL     1       5.759   4.526  17.138  0.00  0.00    +0.000 C 
ATOM      5  C   UNL     1       6.537   5.344  16.092  0.00  0.00    +0.000 C 
ATOM      6  N   UNL     1       6.722   6.769  16.447  0.00  0.00    +0.000 NA
ATOM      7  C   UNL     1       5.388   7.354  16.734  0.00  0.00    +0.000 C 
ATOM      8  C   UNL     1       4.564   6.586  17.792  0.00  0.00    +0.000 C 
ENDROOT
BRANCH   2   9
ATOM      9  C   UNL     1       3.164   3.087  16.971  0.00  0.00    +0.000 C 
BRANCH   9  10
ATOM     10  O   UNL     1       3.566   2.266  18.065  0.00  0.00    +0.000 OA
BRANCH  10  11
ATOM     11  C   UNL     1       2.788   2.380  19.185  0.00  0.00    +0.000 A 
ATOM     12  C   UNL     1       3.460   2.606  20.387  0.00  0.00    +0.000 A 
ATOM     13  C   UNL     1       2.740   2.779  21.574  0.00  0.00    +0.000 A 
ATOM     14  C   UNL     1       1.347   2.745  21.553  0.00  0.00    +0.000 A 
ATOM     15  C   UNL     1       0.675   2.539  20.352  0.00  0.00    +0.000 A 
ATOM     16  C   UNL     1       1.393   2.365  19.168  0.00  0.00    +0.000 A 
ENDBRANCH  10  11
ENDBRANCH   9  10
ENDBRANCH   2   9
BRANCH   6  17
ATOM     17  C   UNL     1       7.628   6.965  17.586  0.00  0.00    +0.000 C 
BRANCH  17  18
ATOM     18  C   UNL     1       7.900   8.415  17.856  0.00  0.00    +0.000 C 
ATOM     19  C   UNL     1       8.836   8.857  18.714  0.00  0.00    +0.000 C 
BRANCH  19  20
ATOM     20  C   UNL     1       9.084  10.279  18.984  0.00  0.00    +0.000 A 
ATOM     21  C   UNL     1       9.506  10.725  20.243  0.00  0.00    +0.000 A 
ATOM     22  C   UNL     1       9.761  12.077  20.472  0.00  0.00    +0.000 A 
ATOM     23  C   UNL     1       9.611  12.998  19.439  0.00  0.00    +0.000 A 
ATOM     24  C   UNL     1       9.212  12.567  18.175  0.00  0.00    +0.000 A 
ATOM     25  C   UNL     1       8.955  11.212  17.946  0.00  0.00    +0.000 A 
ENDBRANCH  19  20
ENDBRANCH  17  18
ENDBRANCH   6  17
TORSDOF 6
ENDMDL
MODEL 2
REMARK VINA RESULT:      -8.0      0.681      1.176
REMARK  Name = 
REMARK  6 active torsions:
REMARK  status: ('A' for Active; 'I' for Inactive)
REMARK    1  A    between atoms: C_2  and  C_3
REMARK    2  A    between atoms: C_3  and  O_4
REMARK    3  A    between atoms: O_4  and  C_5
REMARK    4  A    between atoms: N_14  and  C_15
REMARK    5  A    between atoms: C_15  and  C_16
REMARK    6  A    between atoms: C_17  and  C_18
REMARK                            x       y       z     vdW  Elec       q    Type
REMARK                         _______ _______ _______ _____ _____    ______ ____
ROOT
ATOM      1  O   UNL     1       2.697   5.114  17.298  0.00  0.00    +0.000 OA
ATOM      2  C   UNL     1       3.780   4.532  17.387  0.00  0.00    +0.000 C 
ATOM      3  N   UNL     1       4.966   5.218  17.615  0.00  0.00    +0.000 N 
ATOM      4  C   UNL     1       6.293   4.612  17.764  0.00  0.00    +0.000 C 
ATOM      5  C   UNL     1       7.308   5.255  16.802  0.00  0.00    +0.000 C 
ATOM      6  N   UNL     1       7.382   6.731  16.892  0.00  0.00    +0.000 NA
ATOM      7  C   UNL     1       6.014   7.277  16.707  0.00  0.00    +0.000 C 
ATOM      8  C   UNL     1       4.951   6.683  17.658  0.00  0.00    +0.000 C 
ENDROOT
BRANCH   2   9
ATOM      9  C   UNL     1       3.843   3.012  17.248  0.00  0.00    +0.000 C 
BRANCH   9  10
ATOM     10  O   UNL     1       2.579   2.475  17.634  0.00  0.00    +0.000 OA
BRANCH  10  11
ATOM     11  C   UNL     1       2.282   2.604  18.963  0.00  0.00    +0.000 A 
ATOM     12  C   UNL     1       3.340   2.421  19.855  0.00  0.00    +0.000 A 
ATOM     13  C   UNL     1       3.137   2.578  21.230  0.00  0.00    +0.000 A 
ATOM     14  C   UNL     1       1.878   2.936  21.710  0.00  0.00    +0.000 A 
ATOM     15  C   UNL     1       0.827   3.137  20.820  0.00  0.00    +0.000 A 
ATOM     16  C   UNL     1       1.029   2.979  19.449  0.00  0.00    +0.000 A 
ENDBRANCH  10  11
ENDBRANCH   9  10
ENDBRANCH   2   9
BRANCH   6  17
ATOM     17  C   UNL     1       7.961   7.202  18.157  0.00  0.00    +0.000 C 
BRANCH  17  18
ATOM     18  C   UNL     1       8.319   8.658  18.114  0.00  0.00    +0.000 C 
ATOM     19  C   UNL     1       8.982   9.298  19.092  0.00  0.00    +0.000 C 
BRANCH  19  20
ATOM     20  C   UNL     1       9.314  10.728  19.048  0.00  0.00    +0.000 A 
ATOM     21  C   UNL     1       9.113  11.494  17.893  0.00  0.00    +0.000 A 
ATOM     22  C   UNL     1       9.412  12.856  17.880  0.00  0.00    +0.000 A 
ATOM     23  C   UNL     1       9.903  13.473  19.028  0.00  0.00    +0.000 A 
ATOM     24  C   UNL     1      10.090  12.727  20.191  0.00  0.00    +0.000 A 
ATOM     25  C   UNL     1       9.791  11.362  20.204  0.00  0.00    +0.000 A 
ENDBRANCH  19  20
ENDBRANCH  17  18
ENDBRANCH   6  17
TORSDOF 6
ENDMDL
MODEL 3
REMARK VINA RESULT:      -7.7      4.173      7.434
REMARK  Name = 
REMARK  6 active torsions:
REMARK  status: ('A' for Active; 'I' for Inactive)
REMARK    1  A    between atoms: C_2  and  C_3
REMARK    2  A    between atoms: C_3  and  O_4
REMARK    3  A    between atoms: O_4  and  C_5
REMARK    4  A    between atoms: N_14  and  C_15
REMARK    5  A    between atoms: C_15  and  C_16
REMARK    6  A    between atoms: C_17  and  C_18
REMARK                            x       y       z     vdW  Elec       q    Type
REMARK                         _______ _______ _______ _____ _____    ______ ____
ROOT
ATOM      1  O   UNL     1       7.139   4.124  17.762  0.00  0.00    +0.000 OA
ATOM      2  C   UNL     1       6.263   4.974  17.586  0.00  0.00    +0.000 C 
ATOM      3  N   UNL     1       5.154   5.067  18.416  0.00  0.00    +0.000 N 
ATOM      4  C   UNL     1       4.078   6.058  18.304  0.00  0.00    +0.000 C 
ATOM      5  C   UNL     1       2.699   5.379  18.253  0.00  0.00    +0.000 C 
ATOM      6  N   UNL     1       2.443   4.436  19.366  0.00  0.00    +0.000 NA
ATOM      7  C   UNL     1       3.550   3.449  19.405  0.00  0.00    +0.000 C 
ATOM      8  C   UNL     1       4.963   4.071  19.475  0.00  0.00    +0.000 C 
ENDROOT
BRANCH   2   9
ATOM      9  C   UNL     1       6.383   5.965  16.430  0.00  0.00    +0.000 C 
BRANCH   9  10
ATOM     10  O   UNL     1       7.436   5.527  15.573  0.00  0.00    +0.000 OA
BRANCH  10  11
ATOM     11  C   UNL     1       7.022   4.942  14.408  0.00  0.00    +0.000 A 
ATOM     12  C   UNL     1       7.763   5.246  13.265  0.00  0.00    +0.000 A 
ATOM     13  C   UNL     1       7.437   4.657  12.038  0.00  0.00    +0.000 A 
ATOM     14  C   UNL     1       6.381   3.750  11.961  0.00  0.00    +0.000 A 
ATOM     15  C   UNL     1       5.654   3.432  13.104  0.00  0.00    +0.000 A 
ATOM     16  C   UNL     1       5.977   4.021  14.327  0.00  0.00    +0.000 A 
ENDBRANCH  10  11
ENDBRANCH   9  10
ENDBRANCH   2   9
BRANCH   6  17
ATOM     17  C   UNL     1       2.301   5.106  20.666  0.00  0.00    +0.000 C 
BRANCH  17  18
ATOM     18  C   UNL     1       1.432   6.327  20.587  0.00  0.00    +0.000 C 
ATOM     19  C   UNL     1       1.865   7.575  20.836  0.00  0.00    +0.000 C 
BRANCH  19  20
ATOM     20  C   UNL     1       1.003   8.762  20.772  0.00  0.00    +0.000 A 
ATOM     21  C   UNL     1       0.879   9.517  19.599  0.00  0.00    +0.000 A 
ATOM     22  C   UNL     1       0.035  10.627  19.552  0.00  0.00    +0.000 A 
ATOM     23  C   UNL     1      -0.706  10.987  20.674  0.00  0.00    +0.000 A 
ATOM     24  C   UNL     1      -0.608  10.233  21.843  0.00  0.00    +0.000 A 
ATOM     25  C   UNL     1       0.238   9.121  21.890  0.00  0.00    +0.000 A 
ENDBRANCH  19  20
ENDBRANCH  17  18
ENDBRANCH   6  17
TORSDOF 6
ENDMDL
MODEL 4
REMARK VINA RESULT:      -7.7      4.085      7.228
REMARK  Name = 
REMARK  6 active torsions:
REMARK  status: ('A' for Active; 'I' for Inactive)
REMARK    1  A    between atoms: C_2  and  C_3
REMARK    2  A    between atoms: C_3  and  O_4
REMARK    3  A    between atoms: O_4  and  C_5
REMARK    4  A    between atoms: N_14  and  C_15
REMARK    5  A    between atoms: C_15  and  C_16
REMARK    6  A    between atoms: C_17  and  C_18
REMARK                            x       y       z     vdW  Elec       q    Type
REMARK                         _______ _______ _______ _____ _____    ______ ____
ROOT
ATOM      1  O   UNL     1       7.550   4.468  17.838  0.00  0.00    +0.000 OA
ATOM      2  C   UNL     1       6.567   5.161  17.563  0.00  0.00    +0.000 C 
ATOM      3  N   UNL     1       5.389   5.085  18.294  0.00  0.00    +0.000 N 
ATOM      4  C   UNL     1       4.182   5.885  18.062  0.00  0.00    +0.000 C 
ATOM      5  C   UNL     1       2.940   4.988  17.917  0.00  0.00    +0.000 C 
ATOM      6  N   UNL     1       2.742   4.036  19.033  0.00  0.00    +0.000 NA
ATOM      7  C   UNL     1       3.987   3.244  19.195  0.00  0.00    +0.000 C 
ATOM      8  C   UNL     1       5.269   4.090  19.364  0.00  0.00    +0.000 C 
ENDROOT
BRANCH   2   9
ATOM      9  C   UNL     1       6.627   6.138  16.391  0.00  0.00    +0.000 C 
BRANCH   9  10
ATOM     10  O   UNL     1       7.593   5.659  15.458  0.00  0.00    +0.000 OA
BRANCH  10  11
ATOM     11  C   UNL     1       7.072   4.991  14.384  0.00  0.00    +0.000 A 
ATOM     12  C   UNL     1       7.757   5.131  13.176  0.00  0.00    +0.000 A 
ATOM     13  C   UNL     1       7.320   4.446  12.036  0.00  0.00    +0.000 A 
ATOM     14  C   UNL     1       6.209   3.608  12.112  0.00  0.00    +0.000 A 
ATOM     15  C   UNL     1       5.537   3.453  13.321  0.00  0.00    +0.000 A 
ATOM     16  C   UNL     1       5.971   4.137  14.457  0.00  0.00    +0.000 A 
ENDBRANCH  10  11
ENDBRANCH   9  10
ENDBRANCH   2   9
BRANCH   6  17
ATOM     17  C   UNL     1       2.381   4.696  20.295  0.00  0.00    +0.000 C 
BRANCH  17  18
ATOM     18  C   UNL     1       1.727   6.028  20.075  0.00  0.00    +0.000 C 
ATOM     19  C   UNL     1       1.819   7.060  20.930  0.00  0.00    +0.000 C 
BRANCH  19  20
ATOM     20  C   UNL     1       1.161   8.356  20.715  0.00  0.00    +0.000 A 
ATOM     21  C   UNL     1       0.494   9.021  21.750  0.00  0.00    +0.000 A 
ATOM     22  C   UNL     1      -0.103  10.263  21.531  0.00  0.00    +0.000 A 
ATOM     23  C   UNL     1      -0.027  10.861  20.276  0.00  0.00    +0.000 A 
ATOM     24  C   UNL     1       0.651  10.219  19.241  0.00  0.00    +0.000 A 
ATOM     25  C   UNL     1       1.248   8.974  19.461  0.00  0.00    +0.000 A 
ENDBRANCH  19  20
ENDBRANCH  17  18
ENDBRANCH   6  17
TORSDOF 6
ENDMDL
MODEL 5
REMARK VINA RESULT:      -7.6      4.104      7.017
REMARK  Name = 
REMARK  6 active torsions:
REMARK  status: ('A' for Active; 'I' for Inactive)
REMARK    1  A    between atoms: C_2  and  C_3
REMARK    2  A    between atoms: C_3  and  O_4
REMARK    3  A    between atoms: O_4  and  C_5
REMARK    4  A    between atoms: N_14  and  C_15
REMARK    5  A    between atoms: C_15  and  C_16
REMARK    6  A    between atoms: C_17  and  C_18
REMARK                            x       y       z     vdW  Elec       q    Type
REMARK                         _______ _______ _______ _____ _____    ______ ____
ROOT
ATOM      1  O   UNL     1       7.703   4.862  18.489  0.00  0.00    +0.000 OA
ATOM      2  C   UNL     1       6.692   5.149  17.843  0.00  0.00    +0.000 C 
ATOM      3  N   UNL     1       5.419   4.819  18.288  0.00  0.00    +0.000 N 
ATOM      4  C   UNL     1       4.160   5.142  17.607  0.00  0.00    +0.000 C 
ATOM      5  C   UNL     1       3.298   3.883  17.408  0.00  0.00    +0.000 C 
ATOM      6  N   UNL     1       3.051   3.111  18.647  0.00  0.00    +0.000 NA
ATOM      7  C   UNL     1       4.362   2.797  19.268  0.00  0.00    +0.000 C 
ATOM      8  C   UNL     1       5.268   4.024  19.511  0.00  0.00    +0.000 C 
ENDROOT
BRANCH   2   9
ATOM      9  C   UNL     1       6.821   5.891  16.514  0.00  0.00    +0.000 C 
BRANCH   9  10
ATOM     10  O   UNL     1       7.695   5.146  15.669  0.00  0.00    +0.000 OA
BRANCH  10  11
ATOM     11  C   UNL     1       7.124   4.687  14.514  0.00  0.00    +0.000 A 
ATOM     12  C   UNL     1       7.761   5.042  13.324  0.00  0.00    +0.000 A 
ATOM     13  C   UNL     1       7.271   4.579  12.098  0.00  0.00    +0.000 A 
ATOM     14  C   UNL     1       6.154   3.746  12.066  0.00  0.00    +0.000 A 
ATOM     15  C   UNL     1       5.529   3.376  13.253  0.00  0.00    +0.000 A 
ATOM     16  C   UNL     1       6.017   3.839  14.476  0.00  0.00    +0.000 A 
ENDBRANCH  10  11
ENDBRANCH   9  10
ENDBRANCH   2   9
BRANCH   6  17
ATOM     17  C   UNL     1       2.182   3.815  19.599  0.00  0.00    +0.000 C 
BRANCH  17  18
ATOM     18  C   UNL     1       1.928   5.237  19.196  0.00  0.00    +0.000 C 
ATOM     19  C   UNL     1       2.084   6.290  20.017  0.00  0.00    +0.000 C 
BRANCH  19  20
ATOM     20  C   UNL     1       1.817   7.678  19.619  0.00  0.00    +0.000 A 
ATOM     21  C   UNL     1       2.143   8.152  18.342  0.00  0.00    +0.000 A 
ATOM     22  C   UNL     1       1.858   9.467  17.975  0.00  0.00    +0.000 A 
ATOM     23  C   UNL     1       1.229  10.321  18.877  0.00  0.00    +0.000 A 
ATOM     24  C   UNL     1       0.881   9.858  20.145  0.00  0.00    +0.000 A 
ATOM     25  C   UNL     1       1.167   8.540  20.512  0.00  0.00    +0.000 A 
ENDBRANCH  19  20
ENDBRANCH  17  18
ENDBRANCH   6  17
TORSDOF 6
ENDMDL
MODEL 6
REMARK VINA RESULT:      -7.6      1.558      1.929
REMARK  Name = 
REMARK  6 active torsions:
REMARK  status: ('A' for Active; 'I' for Inactive)
REMARK    1  A    between atoms: C_2  and  C_3
REMARK    2  A    between atoms: C_3  and  O_4
REMARK    3  A    between atoms: O_4  and  C_5
REMARK    4  A    between atoms: N_14  and  C_15
REMARK    5  A    between atoms: C_15  and  C_16
REMARK    6  A    between atoms: C_17  and  C_18
REMARK                            x       y       z     vdW  Elec       q    Type
REMARK                         _______ _______ _______ _____ _____    ______ ____
ROOT
ATOM      1  O   UNL     1       4.083   3.654  16.737  0.00  0.00    +0.000 OA
ATOM      2  C   UNL     1       4.826   3.944  17.678  0.00  0.00    +0.000 C 
ATOM      3  N   UNL     1       5.527   5.141  17.718  0.00  0.00    +0.000 N 
ATOM      4  C   UNL     1       6.408   5.585  18.804  0.00  0.00    +0.000 C 
ATOM      5  C   UNL     1       7.794   5.981  18.267  0.00  0.00    +0.000 C 
ATOM      6  N   UNL     1       7.762   6.972  17.168  0.00  0.00    +0.000 NA
ATOM      7  C   UNL     1       6.877   6.451  16.097  0.00  0.00    +0.000 C 
ATOM      8  C   UNL     1       5.461   6.052  16.571  0.00  0.00    +0.000 C 
ENDROOT
BRANCH   2   9
ATOM      9  C   UNL     1       4.992   2.972  18.845  0.00  0.00    +0.000 C 
BRANCH   9  10
ATOM     10  O   UNL     1       4.420   3.567  20.008  0.00  0.00    +0.000 OA
BRANCH  10  11
ATOM     11  C   UNL     1       3.054   3.526  20.061  0.00  0.00    +0.000 A 
ATOM     12  C   UNL     1       2.459   2.298  19.767  0.00  0.00    +0.000 A 
ATOM     13  C   UNL     1       1.069   2.154  19.840  0.00  0.00    +0.000 A 
ATOM     14  C   UNL     1       0.277   3.235  20.226  0.00  0.00    +0.000 A 
ATOM     15  C   UNL     1       0.871   4.455  20.536  0.00  0.00    +0.000 A 
ATOM     16  C   UNL     1       2.257   4.599  20.462  0.00  0.00    +0.000 A 
ENDBRANCH  10  11
ENDBRANCH   9  10
ENDBRANCH   2   9
BRANCH   6  17
ATOM     17  C   UNL     1       7.316   8.302  17.606  0.00  0.00    +0.000 C 
BRANCH  17  18
ATOM     18  C   UNL     1       8.421   9.095  18.238  0.00  0.00    +0.000 C 
ATOM     19  C   UNL     1       8.757  10.342  17.868  0.00  0.00    +0.000 C 
BRANCH  19  20
ATOM     20  C   UNL     1       9.852  11.105  18.481  0.00  0.00    +0.000 A 
ATOM     21  C   UNL     1      10.034  11.142  19.869  0.00  0.00    +0.000 A 
ATOM     22  C   UNL     1      11.095  11.853  20.431  0.00  0.00    +0.000 A 
ATOM     23  C   UNL     1      11.997  12.523  19.609  0.00  0.00    +0.000 A 
ATOM     24  C   UNL     1      11.840  12.479  18.224  0.00  0.00    +0.000 A 
ATOM     25  C   UNL     1      10.776  11.768  17.662  0.00  0.00    +0.000 A 
ENDBRANCH  19  20
ENDBRANCH  17  18
ENDBRANCH   6  17
TORSDOF 6
ENDMDL
MODEL 7
REMARK VINA RESULT:      -7.5      1.535      1.914
REMARK  Name = 
REMARK  6 active torsions:
REMARK  status: ('A' for Active; 'I' for Inactive)
REMARK    1  A    between atoms: C_2  and  C_3
REMARK    2  A    between atoms: C_3  and  O_4
REMARK    3  A    between atoms: O_4  and  C_5
REMARK    4  A    between atoms: N_14  and  C_15
REMARK    5  A    between atoms: C_15  and  C_16
REMARK    6  A    between atoms: C_17  and  C_18
REMARK                            x       y       z     vdW  Elec       q    Type
REMARK                         _______ _______ _______ _____ _____    ______ ____
ROOT
ATOM      1  O   UNL     1       4.902   3.638  15.332  0.00  0.00    +0.000 OA
ATOM      2  C   UNL     1       5.030   3.941  16.521  0.00  0.00    +0.000 C 
ATOM      3  N   UNL     1       5.598   5.145  16.914  0.00  0.00    +0.000 N 
ATOM      4  C   UNL     1       5.766   5.604  18.298  0.00  0.00    +0.000 C 
ATOM      5  C   UNL     1       7.224   6.008  18.576  0.00  0.00    +0.000 C 
ATOM      6  N   UNL     1       7.777   6.991  17.617  0.00  0.00    +0.000 NA
ATOM      7  C   UNL     1       7.599   6.454  16.245  0.00  0.00    +0.000 C 
ATOM      8  C   UNL     1       6.150   6.046  15.898  0.00  0.00    +0.000 C 
ENDROOT
BRANCH   2   9
ATOM      9  C   UNL     1       4.555   2.979  17.608  0.00  0.00    +0.000 C 
BRANCH   9  10
ATOM     10  O   UNL     1       3.140   2.842  17.496  0.00  0.00    +0.000 OA
BRANCH  10  11
ATOM     11  C   UNL     1       2.435   3.252  18.595  0.00  0.00    +0.000 A 
ATOM     12  C   UNL     1       1.903   2.245  19.401  0.00  0.00    +0.000 A 
ATOM     13  C   UNL     1       1.206   2.573  20.569  0.00  0.00    +0.000 A 
ATOM     14  C   UNL     1       1.058   3.910  20.938  0.00  0.00    +0.000 A 
ATOM     15  C   UNL     1       1.605   4.914  20.144  0.00  0.00    +0.000 A 
ATOM     16  C   UNL     1       2.298   4.586  18.978  0.00  0.00    +0.000 A 
ENDBRANCH  10  11
ENDBRANCH   9  10
ENDBRANCH   2   9
BRANCH   6  17
ATOM     17  C   UNL     1       7.162   8.320  17.736  0.00  0.00    +0.000 C 
BRANCH  17  18
ATOM     18  C   UNL     1       8.183   9.415  17.827  0.00  0.00    +0.000 C 
ATOM     19  C   UNL     1       8.882   9.700  18.939  0.00  0.00    +0.000 C 
BRANCH  19  20
ATOM     20  C   UNL     1       9.868  10.785  19.024  0.00  0.00    +0.000 A 
ATOM     21  C   UNL     1      10.259  11.328  20.254  0.00  0.00    +0.000 A 
ATOM     22  C   UNL     1      11.216  12.341  20.314  0.00  0.00    +0.000 A 
ATOM     23  C   UNL     1      11.805  12.814  19.145  0.00  0.00    +0.000 A 
ATOM     24  C   UNL     1      11.440  12.270  17.914  0.00  0.00    +0.000 A 
ATOM     25  C   UNL     1      10.480  11.255  17.854  0.00  0.00    +0.000 A 
ENDBRANCH  19  20
ENDBRANCH  17  18
ENDBRANCH   6  17
TORSDOF 6
ENDMDL
MODEL 8
REMARK VINA RESULT:      -7.5      1.011      1.246
REMARK  Name = 
REMARK  6 active torsions:
REMARK  status: ('A' for Active; 'I' for Inactive)
REMARK    1  A    between atoms: C_2  and  C_3
REMARK    2  A    between atoms: C_3  and  O_4
REMARK    3  A    between atoms: O_4  and  C_5
REMARK    4  A    between atoms: N_14  and  C_15
REMARK    5  A    between atoms: C_15  and  C_16
REMARK    6  A    between atoms: C_17  and  C_18
REMARK                            x       y       z     vdW  Elec       q    Type
REMARK                         _______ _______ _______ _____ _____    ______ ____
ROOT
ATOM      1  O   UNL     1       2.578   4.868  17.479  0.00  0.00    +0.000 OA
ATOM      2  C   UNL     1       3.706   4.371  17.443  0.00  0.00    +0.000 C 
ATOM      3  N   UNL     1       4.851   5.133  17.632  0.00  0.00    +0.000 N 
ATOM      4  C   UNL     1       6.228   4.629  17.635  0.00  0.00    +0.000 C 
ATOM      5  C   UNL     1       7.111   5.416  16.651  0.00  0.00    +0.000 C 
ATOM      6  N   UNL     1       7.080   6.883  16.844  0.00  0.00    +0.000 NA
ATOM      7  C   UNL     1       5.665   7.328  16.804  0.00  0.00    +0.000 C 
ATOM      8  C   UNL     1       4.730   6.587  17.785  0.00  0.00    +0.000 C 
ENDROOT
BRANCH   2   9
ATOM      9  C   UNL     1       3.872   2.874  17.187  0.00  0.00    +0.000 C 
BRANCH   9  10
ATOM     10  O   UNL     1       4.065   2.224  18.442  0.00  0.00    +0.000 OA
BRANCH  10  11
ATOM     11  C   UNL     1       3.040   2.385  19.335  0.00  0.00    +0.000 A 
ATOM     12  C   UNL     1       3.393   2.833  20.609  0.00  0.00    +0.000 A 
ATOM     13  C   UNL     1       2.405   3.067  21.571  0.00  0.00    +0.000 A 
ATOM     14  C   UNL     1       1.062   2.871  21.251  0.00  0.00    +0.000 A 
ATOM     15  C   UNL     1       0.708   2.443  19.975  0.00  0.00    +0.000 A 
ATOM     16  C   UNL     1       1.694   2.207  19.016  0.00  0.00    +0.000 A 
ENDBRANCH  10  11
ENDBRANCH   9  10
ENDBRANCH   2   9
BRANCH   6  17
ATOM     17  C   UNL     1       7.722   7.312  18.094  0.00  0.00    +0.000 C 
BRANCH  17  18
ATOM     18  C   UNL     1       8.563   8.540  17.911  0.00  0.00    +0.000 C 
ATOM     19  C   UNL     1       8.129   9.790  18.147  0.00  0.00    +0.000 C 
BRANCH  19  20
ATOM     20  C   UNL     1       8.955  10.989  17.950  0.00  0.00    +0.000 A 
ATOM     21  C   UNL     1       8.382  12.251  17.753  0.00  0.00    +0.000 A 
ATOM     22  C   UNL     1       9.184  13.381  17.593  0.00  0.00    +0.000 A 
ATOM     23  C   UNL     1      10.570  13.263  17.642  0.00  0.00    +0.000 A 
ATOM     24  C   UNL     1      11.155  12.016  17.857  0.00  0.00    +0.000 A 
ATOM     25  C   UNL     1      10.351  10.884  18.016  0.00  0.00    +0.000 A 
ENDBRANCH  19  20
ENDBRANCH  17  18
ENDBRANCH   6  17
TORSDOF 6
ENDMDL
MODEL 9
REMARK VINA RESULT:      -7.4      1.553      2.099
REMARK  Name = 
REMARK  6 active torsions:
REMARK  status: ('A' for Active; 'I' for Inactive)
REMARK    1  A    between atoms: C_2  and  C_3
REMARK    2  A    between atoms: C_3  and  O_4
REMARK    3  A    between atoms: O_4  and  C_5
REMARK    4  A    between atoms: N_14  and  C_15
REMARK    5  A    between atoms: C_15  and  C_16
REMARK    6  A    between atoms: C_17  and  C_18
REMARK                            x       y       z     vdW  Elec       q    Type
REMARK                         _______ _______ _______ _____ _____    ______ ____
ROOT
ATOM      1  O   UNL     1       3.990   3.168  17.204  0.00  0.00    +0.000 OA
ATOM      2  C   UNL     1       4.769   3.526  18.091  0.00  0.00    +0.000 C 
ATOM      3  N   UNL     1       5.460   4.728  18.019  0.00  0.00    +0.000 N 
ATOM      4  C   UNL     1       6.382   5.251  19.034  0.00  0.00    +0.000 C 
ATOM      5  C   UNL     1       7.741   5.618  18.414  0.00  0.00    +0.000 C 
ATOM      6  N   UNL     1       7.654   6.531  17.252  0.00  0.00    +0.000 NA
ATOM      7  C   UNL     1       6.730   5.931  16.257  0.00  0.00    +0.000 C 
ATOM      8  C   UNL     1       5.339   5.557  16.816  0.00  0.00    +0.000 C 
ENDROOT
BRANCH   2   9
ATOM      9  C   UNL     1       4.993   2.638  19.313  0.00  0.00    +0.000 C 
BRANCH   9  10
ATOM     10  O   UNL     1       4.446   3.299  20.453  0.00  0.00    +0.000 OA
BRANCH  10  11
ATOM     11  C   UNL     1       3.095   3.510  20.400  0.00  0.00    +0.000 A 
ATOM     12  C   UNL     1       2.664   4.819  20.620  0.00  0.00    +0.000 A 
ATOM     13  C   UNL     1       1.303   5.133  20.541  0.00  0.00    +0.000 A 
ATOM     14  C   UNL     1       0.377   4.141  20.223  0.00  0.00    +0.000 A 
ATOM     15  C   UNL     1       0.809   2.839  19.985  0.00  0.00    +0.000 A 
ATOM     16  C   UNL     1       2.166   2.525  20.066  0.00  0.00    +0.000 A 
ENDBRANCH  10  11
ENDBRANCH   9  10
ENDBRANCH   2   9
BRANCH   6  17
ATOM     17  C   UNL     1       7.214   7.884  17.616  0.00  0.00    +0.000 C 
BRANCH  17  18
ATOM     18  C   UNL     1       8.364   8.836  17.766  0.00  0.00    +0.000 C 
ATOM     19  C   UNL     1       8.513   9.676  18.805  0.00  0.00    +0.000 C 
BRANCH  19  20
ATOM     20  C   UNL     1       9.634  10.617  18.935  0.00  0.00    +0.000 A 
ATOM     21  C   UNL     1      10.294  11.132  17.814  0.00  0.00    +0.000 A 
ATOM     22  C   UNL     1      11.340  12.044  17.959  0.00  0.00    +0.000 A 
ATOM     23  C   UNL     1      11.728  12.463  19.229  0.00  0.00    +0.000 A 
ATOM     24  C   UNL     1      11.066  11.973  20.354  0.00  0.00    +0.000 A 
ATOM     25  C   UNL     1      10.019  11.059  20.208  0.00  0.00    +0.000 A 
ENDBRANCH  19  20
ENDBRANCH  17  18
ENDBRANCH   6  17
TORSDOF 6
ENDMDL
