MODEL 1
REMARK VINA RESULT:      -7.0      0.000      0.000
REMARK  Name = 
REMARK  6 active torsions:
REMARK  status: ('A' for Active; 'I' for Inactive)
REMARK    1  A    between atoms: C_1  and  C_2
REMARK    2  A    between atoms: C_2  and  C_3
REMARK    3  A    between atoms: N_5  and  C_6
REMARK    4  A    between atoms: C_9  and  N_10
REMARK    5  A    between atoms: N_10  and  S_11
REMARK    6  A    between atoms: S_11  and  C_14
REMARK                            x       y       z     vdW  Elec       q    Type
REMARK                         _______ _______ _______ _____ _____    ______ ____
ROOT
ATOM      1  C   UNL     1       1.411   7.245  20.417  0.00  0.00    +0.000 C 
ATOM      2  C   UNL     1       2.292   7.995  19.411  0.00  0.00    +0.000 C 
ATOM      3  C   UNL     1       2.550   7.156  18.154  0.00  0.00    +0.000 C 
ATOM      4  C   UNL     1       3.151   5.786  18.513  0.00  0.00    +0.000 C 
ATOM      5  C   UNL     1       2.253   5.060  19.509  0.00  0.00    +0.000 C 
ATOM      6  C   UNL     1       2.018   5.885  20.759  0.00  0.00    +0.000 C 
ENDROOT
BRANCH   1   9
ATOM      7  C   UNL     1       0.188   8.934  21.724  0.00  0.00    +0.000 C 
ATOM      8  O   UNL     1      -0.540   9.227  20.782  0.00  0.00    +0.000 OA
ATOM      9  N   UNL     1       1.218   8.014  21.633  0.00  0.00    +0.000 N 
ATOM     10  H   UNL     1       1.586   7.640  22.499  0.00  0.00    +0.000 HD
BRANCH   7  12
ATOM     11  C   UNL     1      -1.012  10.611  23.168  0.00  0.00    +0.000 C 
ATOM     12  C   UNL     1       0.064   9.542  23.106  0.00  0.00    +0.000 C 
ENDBRANCH   7  12
ENDBRANCH   1   9
BRANCH   4  13
ATOM     13  N   UNL     1       3.339   4.993  17.281  0.00  0.00    +0.000 NA
ATOM     14  H   UNL     1       2.523   4.476  16.957  0.00  0.00    +0.000 HD
BRANCH  13  15
ATOM     15  S   UNL     1       4.781   4.114  17.085  0.00  0.00    +0.000 S 
ATOM     16  O   UNL     1       4.768   3.062  18.081  0.00  0.00    +0.000 OA
ATOM     17  O   UNL     1       4.966   3.842  15.680  0.00  0.00    +0.000 OA
BRANCH  15  18
ATOM     18  C   UNL     1       6.032   5.274  17.614  0.00  0.00    +0.000 A 
ATOM     19  C   UNL     1       6.217   6.451  16.877  0.00  0.00    +0.000 A 
ATOM     20  C   UNL     1       7.182   7.373  17.286  0.00  0.00    +0.000 A 
ATOM     21  C   UNL     1       7.943   7.116  18.422  0.00  0.00    +0.000 A 
ATOM     22  F   UNL     1       8.862   8.007  18.814  0.00  0.00    +0.000 F 
ATOM     23  C   UNL     1       7.757   5.953  19.165  0.00  0.00    +0.000 A 
ATOM     24  C   UNL     1       6.788   5.028  18.768  0.00  0.00    +0.000 A 
ENDBRANCH  15  18
ENDBRANCH  13  15
ENDBRANCH   4  13
TORSDOF 5
ENDMDL
MODEL 2
REMARK VINA RESULT:      -6.9      0.489      1.145
REMARK  Name = 
REMARK  6 active torsions:
REMARK  status: ('A' for Active; 'I' for Inactive)
REMARK    1  A    between atoms: C_1  and  C_2
REMARK    2  A    between atoms: C_2  and  C_3
REMARK    3  A    between atoms: N_5  and  C_6
REMARK    4  A    between atoms: C_9  and  N_10
REMARK    5  A    between atoms: N_10  and  S_11
REMARK    6  A    between atoms: S_11  and  C_14
REMARK                            x       y       z     vdW  Elec       q    Type
REMARK                         _______ _______ _______ _____ _____    ______ ____
ROOT
ATOM      1  C   UNL     1       1.355   7.778  20.193  0.00  0.00    +0.000 C 
ATOM      2  C   UNL     1       2.197   8.380  19.063  0.00  0.00    +0.000 C 
ATOM      3  C   UNL     1       2.449   7.361  17.945  0.00  0.00    +0.000 C 
ATOM      4  C   UNL     1       3.088   6.075  18.497  0.00  0.00    +0.000 C 
ATOM      5  C   UNL     1       2.227   5.495  19.614  0.00  0.00    +0.000 C 
ATOM      6  C   UNL     1       2.000   6.499  20.727  0.00  0.00    +0.000 C 
ENDROOT
BRANCH   1   9
ATOM      7  C   UNL     1      -0.014   8.740  21.998  0.00  0.00    +0.000 C 
ATOM      8  O   UNL     1      -0.990   8.058  21.707  0.00  0.00    +0.000 OA
ATOM      9  N   UNL     1       1.170   8.721  21.280  0.00  0.00    +0.000 N 
ATOM     10  H   UNL     1       1.994   9.099  21.732  0.00  0.00    +0.000 HD
BRANCH   7  12
ATOM     11  C   UNL     1      -0.914  10.875  22.983  0.00  0.00    +0.000 C 
ATOM     12  C   UNL     1       0.026   9.698  23.172  0.00  0.00    +0.000 C 
ENDBRANCH   7  12
ENDBRANCH   1   9
BRANCH   4  13
ATOM     13  N   UNL     1       3.269   5.105  17.397  0.00  0.00    +0.000 NA
ATOM     14  H   UNL     1       2.444   4.563  17.143  0.00  0.00    +0.000 HD
BRANCH  13  15
ATOM     15  S   UNL     1       4.691   4.175  17.352  0.00  0.00    +0.000 S 
ATOM     16  O   UNL     1       4.623   3.250  18.463  0.00  0.00    +0.000 OA
ATOM     17  O   UNL     1       4.908   3.735  15.995  0.00  0.00    +0.000 OA
BRANCH  15  18
ATOM     18  C   UNL     1       5.958   5.360  17.779  0.00  0.00    +0.000 A 
ATOM     19  C   UNL     1       6.747   5.128  18.913  0.00  0.00    +0.000 A 
ATOM     20  C   UNL     1       7.749   6.038  19.252  0.00  0.00    +0.000 A 
ATOM     21  C   UNL     1       7.956   7.162  18.457  0.00  0.00    +0.000 A 
ATOM     22  F   UNL     1       8.923   8.029  18.783  0.00  0.00    +0.000 F 
ATOM     23  C   UNL     1       7.182   7.395  17.324  0.00  0.00    +0.000 A 
ATOM     24  C   UNL     1       6.181   6.484  16.972  0.00  0.00    +0.000 A 
ENDBRANCH  15  18
ENDBRANCH  13  15
ENDBRANCH   4  13
TORSDOF 5
ENDMDL
MODEL 3
REMARK VINA RESULT:      -6.9      3.043      3.695
REMARK  Name = 
REMARK  6 active torsions:
REMARK  status: ('A' for Active; 'I' for Inactive)
REMARK    1  A    between atoms: C_1  and  C_2
REMARK    2  A    between atoms: C_2  and  C_3
REMARK    3  A    between atoms: N_5  and  C_6
REMARK    4  A    between atoms: C_9  and  N_10
REMARK    5  A    between atoms: N_10  and  S_11
REMARK    6  A    between atoms: S_11  and  C_14
REMARK                            x       y       z     vdW  Elec       q    Type
REMARK                         _______ _______ _______ _____ _____    ______ ____
ROOT
ATOM      1  C   UNL     1       1.348   9.823  19.085  0.00  0.00    +0.000 C 
ATOM      2  C   UNL     1       0.748   9.019  20.244  0.00  0.00    +0.000 C 
ATOM      3  C   UNL     1       1.698   7.910  20.710  0.00  0.00    +0.000 C 
ATOM      4  C   UNL     1       2.101   6.994  19.542  0.00  0.00    +0.000 C 
ATOM      5  C   UNL     1       2.700   7.818  18.406  0.00  0.00    +0.000 C 
ATOM      6  C   UNL     1       1.747   8.900  17.935  0.00  0.00    +0.000 C 
ENDROOT
BRANCH   1   9
ATOM      7  C   UNL     1       0.463  12.120  19.109  0.00  0.00    +0.000 C 
ATOM      8  O   UNL     1       1.186  12.455  20.041  0.00  0.00    +0.000 OA
ATOM      9  N   UNL     1       0.423  10.832  18.602  0.00  0.00    +0.000 N 
ATOM     10  H   UNL     1       0.013  10.706  17.685  0.00  0.00    +0.000 HD
BRANCH   7  12
ATOM     11  C   UNL     1      -0.209  14.516  18.733  0.00  0.00    +0.000 C 
ATOM     12  C   UNL     1      -0.485  13.062  18.396  0.00  0.00    +0.000 C 
ENDBRANCH   7  12
ENDBRANCH   1   9
BRANCH   4  13
ATOM     13  N   UNL     1       3.052   5.971  20.024  0.00  0.00    +0.000 NA
ATOM     14  H   UNL     1       4.009   6.290  20.172  0.00  0.00    +0.000 HD
BRANCH  13  15
ATOM     15  S   UNL     1       2.987   4.412  19.351  0.00  0.00    +0.000 S 
ATOM     16  O   UNL     1       3.345   3.485  20.405  0.00  0.00    +0.000 OA
ATOM     17  O   UNL     1       1.763   4.287  18.598  0.00  0.00    +0.000 OA
BRANCH  15  18
ATOM     18  C   UNL     1       4.363   4.411  18.211  0.00  0.00    +0.000 A 
ATOM     19  C   UNL     1       5.642   4.715  18.695  0.00  0.00    +0.000 A 
ATOM     20  C   UNL     1       6.729   4.705  17.818  0.00  0.00    +0.000 A 
ATOM     21  C   UNL     1       6.530   4.388  16.478  0.00  0.00    +0.000 A 
ATOM     22  F   UNL     1       7.577   4.373  15.643  0.00  0.00    +0.000 F 
ATOM     23  C   UNL     1       5.263   4.076  15.992  0.00  0.00    +0.000 A 
ATOM     24  C   UNL     1       4.170   4.075  16.864  0.00  0.00    +0.000 A 
ENDBRANCH  15  18
ENDBRANCH  13  15
ENDBRANCH   4  13
TORSDOF 5
ENDMDL
MODEL 4
REMARK VINA RESULT:      -6.9      3.799      6.353
REMARK  Name = 
REMARK  6 active torsions:
REMARK  status: ('A' for Active; 'I' for Inactive)
REMARK    1  A    between atoms: C_1  and  C_2
REMARK    2  A    between atoms: C_2  and  C_3
REMARK    3  A    between atoms: N_5  and  C_6
REMARK    4  A    between atoms: C_9  and  N_10
REMARK    5  A    between atoms: N_10  and  S_11
REMARK    6  A    between atoms: S_11  and  C_14
REMARK                            x       y       z     vdW  Elec       q    Type
REMARK                         _______ _______ _______ _____ _____    ______ ____
ROOT
ATOM      1  C   UNL     1       6.855   6.478  17.047  0.00  0.00    +0.000 C 
ATOM      2  C   UNL     1       6.479   5.924  18.425  0.00  0.00    +0.000 C 
ATOM      3  C   UNL     1       6.066   4.449  18.344  0.00  0.00    +0.000 C 
ATOM      4  C   UNL     1       4.929   4.244  17.328  0.00  0.00    +0.000 C 
ATOM      5  C   UNL     1       5.332   4.799  15.966  0.00  0.00    +0.000 C 
ATOM      6  C   UNL     1       5.719   6.263  16.048  0.00  0.00    +0.000 C 
ENDROOT
BRANCH   1   9
ATOM      7  C   UNL     1       8.131   8.347  18.016  0.00  0.00    +0.000 C 
ATOM      8  O   UNL     1       8.657   7.631  18.861  0.00  0.00    +0.000 OA
ATOM      9  N   UNL     1       7.185   7.890  17.113  0.00  0.00    +0.000 N 
ATOM     10  H   UNL     1       7.007   8.462  16.297  0.00  0.00    +0.000 HD
BRANCH   7  12
ATOM     11  C   UNL     1       9.179  10.390  19.047  0.00  0.00    +0.000 C 
ATOM     12  C   UNL     1       8.436   9.822  17.851  0.00  0.00    +0.000 C 
ENDBRANCH   7  12
ENDBRANCH   1   9
BRANCH   4  13
ATOM     13  N   UNL     1       4.595   2.807  17.247  0.00  0.00    +0.000 NA
ATOM     14  H   UNL     1       4.753   2.365  16.342  0.00  0.00    +0.000 HD
BRANCH  13  15
ATOM     15  S   UNL     1       3.175   2.253  17.997  0.00  0.00    +0.000 S 
ATOM     16  O   UNL     1       2.188   2.081  16.952  0.00  0.00    +0.000 OA
ATOM     17  O   UNL     1       3.523   1.191  18.911  0.00  0.00    +0.000 OA
BRANCH  15  18
ATOM     18  C   UNL     1       2.644   3.671  18.944  0.00  0.00    +0.000 A 
ATOM     19  C   UNL     1       2.664   3.597  20.344  0.00  0.00    +0.000 A 
ATOM     20  C   UNL     1       2.264   4.702  21.097  0.00  0.00    +0.000 A 
ATOM     21  C   UNL     1       1.857   5.865  20.450  0.00  0.00    +0.000 A 
ATOM     22  F   UNL     1       1.480   6.924  21.178  0.00  0.00    +0.000 F 
ATOM     23  C   UNL     1       1.842   5.949  19.061  0.00  0.00    +0.000 A 
ATOM     24  C   UNL     1       2.249   4.851  18.298  0.00  0.00    +0.000 A 
ENDBRANCH  15  18
ENDBRANCH  13  15
ENDBRANCH   4  13
TORSDOF 5
ENDMDL
MODEL 5
REMARK VINA RESULT:      -6.8      3.791      6.260
REMARK  Name = 
REMARK  6 active torsions:
REMARK  status: ('A' for Active; 'I' for Inactive)
REMARK    1  A    between atoms: C_1  and  C_2
REMARK    2  A    between atoms: C_2  and  C_3
REMARK    3  A    between atoms: N_5  and  C_6
REMARK    4  A    between atoms: C_9  and  N_10
REMARK    5  A    between atoms: N_10  and  S_11
REMARK    6  A    between atoms: S_11  and  C_14
REMARK                            x       y       z     vdW  Elec       q    Type
REMARK                         _______ _______ _______ _____ _____    ______ ____
ROOT
ATOM      1  C   UNL     1       6.860   6.549  17.007  0.00  0.00    +0.000 C 
ATOM      2  C   UNL     1       6.611   5.898  18.372  0.00  0.00    +0.000 C 
ATOM      3  C   UNL     1       6.178   4.434  18.226  0.00  0.00    +0.000 C 
ATOM      4  C   UNL     1       4.948   4.305  17.310  0.00  0.00    +0.000 C 
ATOM      5  C   UNL     1       5.225   4.956  15.959  0.00  0.00    +0.000 C 
ATOM      6  C   UNL     1       5.632   6.409  16.109  0.00  0.00    +0.000 C 
ENDROOT
BRANCH   1   9
ATOM      7  C   UNL     1       8.150   8.353  18.075  0.00  0.00    +0.000 C 
ATOM      8  O   UNL     1       8.658   7.592  18.891  0.00  0.00    +0.000 OA
ATOM      9  N   UNL     1       7.208   7.952  17.143  0.00  0.00    +0.000 N 
ATOM     10  H   UNL     1       7.046   8.564  16.353  0.00  0.00    +0.000 HD
BRANCH   7  12
ATOM     11  C   UNL     1       9.276  10.316  19.178  0.00  0.00    +0.000 C 
ATOM     12  C   UNL     1       8.477   9.829  17.983  0.00  0.00    +0.000 C 
ENDBRANCH   7  12
ENDBRANCH   1   9
BRANCH   4  13
ATOM     13  N   UNL     1       4.595   2.879  17.158  0.00  0.00    +0.000 NA
ATOM     14  H   UNL     1       4.663   2.503  16.213  0.00  0.00    +0.000 HD
BRANCH  13  15
ATOM     15  S   UNL     1       3.245   2.276  17.998  0.00  0.00    +0.000 S 
ATOM     16  O   UNL     1       2.201   2.066  17.017  0.00  0.00    +0.000 OA
ATOM     17  O   UNL     1       3.688   1.230  18.888  0.00  0.00    +0.000 OA
BRANCH  15  18
ATOM     18  C   UNL     1       2.724   3.678  18.975  0.00  0.00    +0.000 A 
ATOM     19  C   UNL     1       2.295   4.839  18.318  0.00  0.00    +0.000 A 
ATOM     20  C   UNL     1       1.872   5.937  19.068  0.00  0.00    +0.000 A 
ATOM     21  C   UNL     1       1.875   5.864  20.458  0.00  0.00    +0.000 A 
ATOM     22  F   UNL     1       1.462   6.918  21.173  0.00  0.00    +0.000 F 
ATOM     23  C   UNL     1       2.291   4.710  21.118  0.00  0.00    +0.000 A 
ATOM     24  C   UNL     1       2.708   3.603  20.375  0.00  0.00    +0.000 A 
ENDBRANCH  15  18
ENDBRANCH  13  15
ENDBRANCH   4  13
TORSDOF 5
ENDMDL
MODEL 6
REMARK VINA RESULT:      -6.8      2.803      3.369
REMARK  Name = 
REMARK  6 active torsions:
REMARK  status: ('A' for Active; 'I' for Inactive)
REMARK    1  A    between atoms: C_1  and  C_2
REMARK    2  A    between atoms: C_2  and  C_3
REMARK    3  A    between atoms: N_5  and  C_6
REMARK    4  A    between atoms: C_9  and  N_10
REMARK    5  A    between atoms: N_10  and  S_11
REMARK    6  A    between atoms: S_11  and  C_14
REMARK                            x       y       z     vdW  Elec       q    Type
REMARK                         _______ _______ _______ _____ _____    ______ ____
ROOT
ATOM      1  C   UNL     1       1.399   9.457  19.050  0.00  0.00    +0.000 C 
ATOM      2  C   UNL     1       0.925   8.590  20.221  0.00  0.00    +0.000 C 
ATOM      3  C   UNL     1       1.980   7.549  20.613  0.00  0.00    +0.000 C 
ATOM      4  C   UNL     1       2.389   6.687  19.406  0.00  0.00    +0.000 C 
ATOM      5  C   UNL     1       2.861   7.574  18.259  0.00  0.00    +0.000 C 
ATOM      6  C   UNL     1       1.806   8.587  17.861  0.00  0.00    +0.000 C 
ENDROOT
BRANCH   1   9
ATOM      7  C   UNL     1       0.457  11.730  19.012  0.00  0.00    +0.000 C 
ATOM      8  O   UNL     1       1.310  12.165  19.777  0.00  0.00    +0.000 OA
ATOM      9  N   UNL     1       0.376  10.400  18.637  0.00  0.00    +0.000 N 
ATOM     10  H   UNL     1      -0.173  10.181  17.815  0.00  0.00    +0.000 HD
BRANCH   7  12
ATOM     11  C   UNL     1      -1.904  11.804  18.139  0.00  0.00    +0.000 C 
ATOM     12  C   UNL     1      -0.625  12.585  18.383  0.00  0.00    +0.000 C 
ENDBRANCH   7  12
ENDBRANCH   1   9
BRANCH   4  13
ATOM     13  N   UNL     1       3.439   5.732  19.816  0.00  0.00    +0.000 NA
ATOM     14  H   UNL     1       4.363   6.131  19.978  0.00  0.00    +0.000 HD
BRANCH  13  15
ATOM     15  S   UNL     1       3.514   4.218  19.048  0.00  0.00    +0.000 S 
ATOM     16  O   UNL     1       4.087   3.292  20.002  0.00  0.00    +0.000 OA
ATOM     17  O   UNL     1       2.250   3.970  18.397  0.00  0.00    +0.000 OA
BRANCH  15  18
ATOM     18  C   UNL     1       4.764   4.467  17.795  0.00  0.00    +0.000 A 
ATOM     19  C   UNL     1       4.488   4.079  16.478  0.00  0.00    +0.000 A 
ATOM     20  C   UNL     1       5.450   4.280  15.486  0.00  0.00    +0.000 A 
ATOM     21  C   UNL     1       6.667   4.867  15.817  0.00  0.00    +0.000 A 
ATOM     22  F   UNL     1       7.584   5.063  14.860  0.00  0.00    +0.000 F 
ATOM     23  C   UNL     1       6.945   5.263  17.122  0.00  0.00    +0.000 A 
ATOM     24  C   UNL     1       5.985   5.073  18.120  0.00  0.00    +0.000 A 
ENDBRANCH  15  18
ENDBRANCH  13  15
ENDBRANCH   4  13
TORSDOF 5
ENDMDL
MODEL 7
REMARK VINA RESULT:      -6.8      2.805      3.345
REMARK  Name = 
REMARK  6 active torsions:
REMARK  status: ('A' for Active; 'I' for Inactive)
REMARK    1  A    between atoms: C_1  and  C_2
REMARK    2  A    between atoms: C_2  and  C_3
REMARK    3  A    between atoms: N_5  and  C_6
REMARK    4  A    between atoms: C_9  and  N_10
REMARK    5  A    between atoms: N_10  and  S_11
REMARK    6  A    between atoms: S_11  and  C_14
REMARK                            x       y       z     vdW  Elec       q    Type
REMARK                         _______ _______ _______ _____ _____    ______ ____
ROOT
ATOM      1  C   UNL     1       1.471   8.805  18.914  0.00  0.00    +0.000 C 
ATOM      2  C   UNL     1       2.614   8.586  17.918  0.00  0.00    +0.000 C 
ATOM      3  C   UNL     1       2.966   7.099  17.784  0.00  0.00    +0.000 C 
ATOM      4  C   UNL     1       3.289   6.477  19.153  0.00  0.00    +0.000 C 
ATOM      5  C   UNL     1       2.134   6.705  20.122  0.00  0.00    +0.000 C 
ATOM      6  C   UNL     1       1.805   8.178  20.267  0.00  0.00    +0.000 C 
ENDROOT
BRANCH   1   9
ATOM      7  C   UNL     1      -0.114  10.687  18.954  0.00  0.00    +0.000 C 
ATOM      8  O   UNL     1      -1.052   9.987  18.588  0.00  0.00    +0.000 OA
ATOM      9  N   UNL     1       1.181  10.216  19.089  0.00  0.00    +0.000 N 
ATOM     10  H   UNL     1       1.822  10.773  19.639  0.00  0.00    +0.000 HD
BRANCH   7  12
ATOM     11  C   UNL     1       0.762  13.012  18.549  0.00  0.00    +0.000 C 
ATOM     12  C   UNL     1      -0.244  12.157  19.298  0.00  0.00    +0.000 C 
ENDBRANCH   7  12
ENDBRANCH   1   9
BRANCH   4  13
ATOM     13  N   UNL     1       3.574   5.038  18.985  0.00  0.00    +0.000 NA
ATOM     14  H   UNL     1       2.936   4.400  19.459  0.00  0.00    +0.000 HD
BRANCH  13  15
ATOM     15  S   UNL     1       5.188   4.509  19.058  0.00  0.00    +0.000 S 
ATOM     16  O   UNL     1       5.947   5.567  19.691  0.00  0.00    +0.000 OA
ATOM     17  O   UNL     1       5.205   3.151  19.545  0.00  0.00    +0.000 OA
BRANCH  15  18
ATOM     18  C   UNL     1       5.687   4.509  17.342  0.00  0.00    +0.000 A 
ATOM     19  C   UNL     1       4.844   3.915  16.393  0.00  0.00    +0.000 A 
ATOM     20  C   UNL     1       5.214   3.919  15.047  0.00  0.00    +0.000 A 
ATOM     21  C   UNL     1       6.411   4.516  14.664  0.00  0.00    +0.000 A 
ATOM     22  F   UNL     1       6.758   4.523  13.371  0.00  0.00    +0.000 F 
ATOM     23  C   UNL     1       7.249   5.116  15.600  0.00  0.00    +0.000 A 
ATOM     24  C   UNL     1       6.883   5.124  16.949  0.00  0.00    +0.000 A 
ENDBRANCH  15  18
ENDBRANCH  13  15
ENDBRANCH   4  13
TORSDOF 5
ENDMDL
MODEL 8
REMARK VINA RESULT:      -6.7      4.615      8.089
REMARK  Name = 
REMARK  6 active torsions:
REMARK  status: ('A' for Active; 'I' for Inactive)
REMARK    1  A    between atoms: C_1  and  C_2
REMARK    2  A    between atoms: C_2  and  C_3
REMARK    3  A    between atoms: N_5  and  C_6
REMARK    4  A    between atoms: C_9  and  N_10
REMARK    5  A    between atoms: N_10  and  S_11
REMARK    6  A    between atoms: S_11  and  C_14
REMARK                            x       y       z     vdW  Elec       q    Type
REMARK                         _______ _______ _______ _____ _____    ______ ____
ROOT
ATOM      1  C   UNL     1       5.756   3.713  13.335  0.00  0.00    +0.000 C 
ATOM      2  C   UNL     1       6.717   4.907  13.284  0.00  0.00    +0.000 C 
ATOM      3  C   UNL     1       7.649   4.930  14.502  0.00  0.00    +0.000 C 
ATOM      4  C   UNL     1       6.850   4.909  15.816  0.00  0.00    +0.000 C 
ATOM      5  C   UNL     1       5.907   3.710  15.842  0.00  0.00    +0.000 C 
ATOM      6  C   UNL     1       4.974   3.703  14.647  0.00  0.00    +0.000 C 
ENDROOT
BRANCH   1   9
ATOM      7  C   UNL     1       4.767   2.649  11.348  0.00  0.00    +0.000 C 
ATOM      8  O   UNL     1       5.531   1.692  11.403  0.00  0.00    +0.000 OA
ATOM      9  N   UNL     1       4.832   3.726  12.216  0.00  0.00    +0.000 N 
ATOM     10  H   UNL     1       4.019   4.327  12.273  0.00  0.00    +0.000 HD
BRANCH   7  12
ATOM     11  C   UNL     1       3.228   4.229  10.134  0.00  0.00    +0.000 C 
ATOM     12  C   UNL     1       3.659   2.786  10.324  0.00  0.00    +0.000 C 
ENDBRANCH   7  12
ENDBRANCH   1   9
BRANCH   4  13
ATOM     13  N   UNL     1       7.784   4.884  16.960  0.00  0.00    +0.000 NA
ATOM     14  H   UNL     1       8.145   3.966  17.218  0.00  0.00    +0.000 HD
BRANCH  13  15
ATOM     15  S   UNL     1       7.444   5.850  18.316  0.00  0.00    +0.000 S 
ATOM     16  O   UNL     1       8.057   5.202  19.457  0.00  0.00    +0.000 OA
ATOM     17  O   UNL     1       7.710   7.227  17.977  0.00  0.00    +0.000 OA
BRANCH  15  18
ATOM     18  C   UNL     1       5.682   5.641  18.524  0.00  0.00    +0.000 A 
ATOM     19  C   UNL     1       5.214   4.572  19.300  0.00  0.00    +0.000 A 
ATOM     20  C   UNL     1       3.841   4.404  19.482  0.00  0.00    +0.000 A 
ATOM     21  C   UNL     1       2.954   5.302  18.896  0.00  0.00    +0.000 A 
ATOM     22  F   UNL     1       1.637   5.140  19.080  0.00  0.00    +0.000 F 
ATOM     23  C   UNL     1       3.411   6.372  18.131  0.00  0.00    +0.000 A 
ATOM     24  C   UNL     1       4.785   6.553  17.950  0.00  0.00    +0.000 A 
ENDBRANCH  15  18
ENDBRANCH  13  15
ENDBRANCH   4  13
TORSDOF 5
ENDMDL
MODEL 9
REMARK VINA RESULT:      -6.7      3.394      7.720
REMARK  Name = 
REMARK  6 active torsions:
REMARK  status: ('A' for Active; 'I' for Inactive)
REMARK    1  A    between atoms: C_1  and  C_2
REMARK    2  A    between atoms: C_2  and  C_3
REMARK    3  A    between atoms: N_5  and  C_6
REMARK    4  A    between atoms: C_9  and  N_10
REMARK    5  A    between atoms: N_10  and  S_11
REMARK    6  A    between atoms: S_11  and  C_14
REMARK                            x       y       z     vdW  Elec       q    Type
REMARK                         _______ _______ _______ _____ _____    ______ ____
ROOT
ATOM      1  C   UNL     1       6.754   5.593  15.941  0.00  0.00    +0.000 C 
ATOM      2  C   UNL     1       5.332   6.150  15.812  0.00  0.00    +0.000 C 
ATOM      3  C   UNL     1       4.746   6.517  17.180  0.00  0.00    +0.000 C 
ATOM      4  C   UNL     1       4.794   5.322  18.147  0.00  0.00    +0.000 C 
ATOM      5  C   UNL     1       6.220   4.792  18.261  0.00  0.00    +0.000 C 
ATOM      6  C   UNL     1       6.786   4.410  16.907  0.00  0.00    +0.000 C 
ENDROOT
BRANCH   1   9
ATOM      7  C   UNL     1       6.515   4.434  13.783  0.00  0.00    +0.000 C 
ATOM      8  O   UNL     1       5.411   3.987  14.075  0.00  0.00    +0.000 OA
ATOM      9  N   UNL     1       7.285   5.186  14.653  0.00  0.00    +0.000 N 
ATOM     10  H   UNL     1       8.041   5.729  14.254  0.00  0.00    +0.000 HD
BRANCH   7  12
ATOM     11  C   UNL     1       6.645   2.993  11.724  0.00  0.00    +0.000 C 
ATOM     12  C   UNL     1       7.185   4.216  12.442  0.00  0.00    +0.000 C 
ENDBRANCH   7  12
ENDBRANCH   1   9
BRANCH   4  13
ATOM     13  N   UNL     1       4.265   5.732  19.464  0.00  0.00    +0.000 NA
ATOM     14  H   UNL     1       4.842   5.490  20.268  0.00  0.00    +0.000 HD
BRANCH  13  15
ATOM     15  S   UNL     1       2.606   5.537  19.776  0.00  0.00    +0.000 S 
ATOM     16  O   UNL     1       2.042   4.852  18.632  0.00  0.00    +0.000 OA
ATOM     17  O   UNL     1       2.447   5.046  21.124  0.00  0.00    +0.000 OA
BRANCH  15  18
ATOM     18  C   UNL     1       1.986   7.211  19.699  0.00  0.00    +0.000 A 
ATOM     19  C   UNL     1       1.456   7.790  20.860  0.00  0.00    +0.000 A 
ATOM     20  C   UNL     1       0.980   9.101  20.818  0.00  0.00    +0.000 A 
ATOM     21  C   UNL     1       1.043   9.819  19.628  0.00  0.00    +0.000 A 
ATOM     22  F   UNL     1       0.590  11.079  19.595  0.00  0.00    +0.000 F 
ATOM     23  C   UNL     1       1.576   9.253  18.473  0.00  0.00    +0.000 A 
ATOM     24  C   UNL     1       2.062   7.944  18.507  0.00  0.00    +0.000 A 
ENDBRANCH  15  18
ENDBRANCH  13  15
ENDBRANCH   4  13
TORSDOF 5
ENDMDL
