MODEL 1
REMARK VINA RESULT:      -9.2      0.000      0.000
REMARK  Name = 
REMARK  6 active torsions:
REMARK  status: ('A' for Active; 'I' for Inactive)
REMARK    1  A    between atoms: C_1  and  C_2
REMARK    2  A    between atoms: C_6  and  C_7
REMARK    3  A    between atoms: C_7  and  N_8
REMARK    4  A    between atoms: C_15  and  C_16
REMARK    5  A    between atoms: C_18  and  O_19
REMARK    6  A    between atoms: C_21  and  O_22
REMARK                            x       y       z     vdW  Elec       q    Type
REMARK                         _______ _______ _______ _____ _____    ______ ____
ROOT
ATOM      1  N   UNL     1       5.907   3.836  16.958  0.00  0.00    +0.000 N 
ATOM      2  C   UNL     1       6.654   4.843  17.491  0.00  0.00    +0.000 A 
ATOM      3  N   UNL     1       7.478   4.495  18.539  0.00  0.00    +0.000 NA
ATOM      4  C   UNL     1       8.141   5.425  19.158  0.00  0.00    +0.000 A 
ATOM      5  N   UNL     1       8.906   5.178  20.268  0.00  0.00    +0.000 N 
ATOM      6  N   UNL     1       8.067   6.722  18.662  0.00  0.00    +0.000 N 
ATOM      7  N   UNL     1       8.761   7.781  19.124  0.00  0.00    +0.000 NA
ATOM      8  C   UNL     1       8.326   8.739  18.285  0.00  0.00    +0.000 A 
ATOM      9  N   UNL     1       7.427   8.298  17.331  0.00  0.00    +0.000 NA
ATOM     10  C   UNL     1       7.284   7.019  17.595  0.00  0.00    +0.000 A 
ATOM     11  N   UNL     1       6.529   6.060  17.025  0.00  0.00    +0.000 NA
ATOM     12  H   UNL     1       6.469   3.063  16.627  0.00  0.00    +0.000 HD
ATOM     13  H   UNL     1       9.128   4.209  20.462  0.00  0.00    +0.000 HD
ATOM     14  H   UNL     1       9.608   5.871  20.510  0.00  0.00    +0.000 HD
ENDROOT
BRANCH   8  15
ATOM     15  C   UNL     1       8.727  10.140  18.371  0.00  0.00    +0.000 A 
ATOM     16  C   UNL     1       8.090  11.115  17.589  0.00  0.00    +0.000 A 
ATOM     17  C   UNL     1       8.506  12.443  17.665  0.00  0.00    +0.000 A 
ATOM     18  C   UNL     1       9.549  12.824  18.503  0.00  0.00    +0.000 A 
ATOM     19  C   UNL     1      10.170  11.857  19.285  0.00  0.00    +0.000 A 
ATOM     20  C   UNL     1       9.766  10.526  19.231  0.00  0.00    +0.000 A 
BRANCH  17  21
ATOM     21  O   UNL     1       7.909  13.417  16.918  0.00  0.00    +0.000 OA
ATOM     22  H   UNL     1       7.819  13.095  16.005  0.00  0.00    +0.000 HD
ENDBRANCH  17  21
BRANCH  19  23
ATOM     23  O   UNL     1      11.200  12.176  20.121  0.00  0.00    +0.000 OA
ATOM     24  H   UNL     1      12.031  12.134  19.621  0.00  0.00    +0.000 HD
ENDBRANCH  19  23
ENDBRANCH   8  15
BRANCH   1  25
ATOM     25  C   UNL     1       4.722   4.102  16.165  0.00  0.00    +0.000 C 
BRANCH  25  31
ATOM     26  C   UNL     1       0.761   2.171  18.680  0.00  0.00    +0.000 C 
ATOM     27  C   UNL     1       1.607   3.349  18.296  0.00  0.00    +0.000 A 
ATOM     28  C   UNL     1       1.312   4.630  18.770  0.00  0.00    +0.000 A 
ATOM     29  C   UNL     1       2.105   5.716  18.403  0.00  0.00    +0.000 A 
ATOM     30  C   UNL     1       3.191   5.534  17.546  0.00  0.00    +0.000 A 
ATOM     31  C   UNL     1       3.498   4.263  17.038  0.00  0.00    +0.000 A 
ATOM     32  C   UNL     1       2.708   3.173  17.443  0.00  0.00    +0.000 A 
ENDBRANCH  25  31
ENDBRANCH   1  25
TORSDOF 5
ENDMDL
MODEL 2
REMARK VINA RESULT:      -9.2      0.078      1.593
REMARK  Name = 
REMARK  6 active torsions:
REMARK  status: ('A' for Active; 'I' for Inactive)
REMARK    1  A    between atoms: C_1  and  C_2
REMARK    2  A    between atoms: C_6  and  C_7
REMARK    3  A    between atoms: C_7  and  N_8
REMARK    4  A    between atoms: C_15  and  C_16
REMARK    5  A    between atoms: C_18  and  O_19
REMARK    6  A    between atoms: C_21  and  O_22
REMARK                            x       y       z     vdW  Elec       q    Type
REMARK                         _______ _______ _______ _____ _____    ______ ____
ROOT
ATOM      1  N   UNL     1       5.952   3.806  16.956  0.00  0.00    +0.000 N 
ATOM      2  C   UNL     1       6.690   4.818  17.493  0.00  0.00    +0.000 A 
ATOM      3  N   UNL     1       7.511   4.476  18.545  0.00  0.00    +0.000 NA
ATOM      4  C   UNL     1       8.164   5.410  19.168  0.00  0.00    +0.000 A 
ATOM      5  N   UNL     1       8.925   5.168  20.283  0.00  0.00    +0.000 N 
ATOM      6  N   UNL     1       8.084   6.706  18.671  0.00  0.00    +0.000 N 
ATOM      7  N   UNL     1       8.769   7.771  19.136  0.00  0.00    +0.000 NA
ATOM      8  C   UNL     1       8.332   8.725  18.295  0.00  0.00    +0.000 A 
ATOM      9  N   UNL     1       7.441   8.278  17.336  0.00  0.00    +0.000 NA
ATOM     10  C   UNL     1       7.305   6.998  17.600  0.00  0.00    +0.000 A 
ATOM     11  N   UNL     1       6.560   6.034  17.026  0.00  0.00    +0.000 NA
ATOM     12  H   UNL     1       6.520   3.037  16.629  0.00  0.00    +0.000 HD
ATOM     13  H   UNL     1       9.152   4.201  20.478  0.00  0.00    +0.000 HD
ATOM     14  H   UNL     1       9.621   5.867  20.527  0.00  0.00    +0.000 HD
ENDROOT
BRANCH   8  15
ATOM     15  C   UNL     1       8.724  10.129  18.382  0.00  0.00    +0.000 A 
ATOM     16  C   UNL     1       9.725  10.538  19.276  0.00  0.00    +0.000 A 
ATOM     17  C   UNL     1      10.065  11.887  19.364  0.00  0.00    +0.000 A 
ATOM     18  C   UNL     1       9.428  12.842  18.580  0.00  0.00    +0.000 A 
ATOM     19  C   UNL     1       8.444  12.432  17.687  0.00  0.00    +0.000 A 
ATOM     20  C   UNL     1       8.094  11.089  17.576  0.00  0.00    +0.000 A 
BRANCH  17  21
ATOM     21  O   UNL     1      11.032  12.318  20.224  0.00  0.00    +0.000 OA
ATOM     22  H   UNL     1      10.860  11.937  21.101  0.00  0.00    +0.000 HD
ENDBRANCH  17  21
BRANCH  19  23
ATOM     23  O   UNL     1       7.786  13.329  16.897  0.00  0.00    +0.000 OA
ATOM     24  H   UNL     1       7.574  12.900  16.051  0.00  0.00    +0.000 HD
ENDBRANCH  19  23
ENDBRANCH   8  15
BRANCH   1  25
ATOM     25  C   UNL     1       4.770   4.065  16.158  0.00  0.00    +0.000 C 
BRANCH  25  31
ATOM     26  C   UNL     1       0.786   2.186  18.677  0.00  0.00    +0.000 C 
ATOM     27  C   UNL     1       1.643   3.354  18.285  0.00  0.00    +0.000 A 
ATOM     28  C   UNL     1       1.356   4.641  18.748  0.00  0.00    +0.000 A 
ATOM     29  C   UNL     1       2.159   5.718  18.374  0.00  0.00    +0.000 A 
ATOM     30  C   UNL     1       3.246   5.520  17.522  0.00  0.00    +0.000 A 
ATOM     31  C   UNL     1       3.544   4.242  17.026  0.00  0.00    +0.000 A 
ATOM     32  C   UNL     1       2.745   3.161  17.438  0.00  0.00    +0.000 A 
ENDBRANCH  25  31
ENDBRANCH   1  25
TORSDOF 5
ENDMDL
MODEL 3
REMARK VINA RESULT:      -9.2      2.320      3.734
REMARK  Name = 
REMARK  6 active torsions:
REMARK  status: ('A' for Active; 'I' for Inactive)
REMARK    1  A    between atoms: C_1  and  C_2
REMARK    2  A    between atoms: C_6  and  C_7
REMARK    3  A    between atoms: C_7  and  N_8
REMARK    4  A    between atoms: C_15  and  C_16
REMARK    5  A    between atoms: C_18  and  O_19
REMARK    6  A    between atoms: C_21  and  O_22
REMARK                            x       y       z     vdW  Elec       q    Type
REMARK                         _______ _______ _______ _____ _____    ______ ____
ROOT
ATOM      1  N   UNL     1       6.320   4.047  16.444  0.00  0.00    +0.000 N 
ATOM      2  C   UNL     1       6.937   5.036  17.148  0.00  0.00    +0.000 A 
ATOM      3  N   UNL     1       7.453   4.676  18.373  0.00  0.00    +0.000 NA
ATOM      4  C   UNL     1       7.965   5.593  19.138  0.00  0.00    +0.000 A 
ATOM      5  N   UNL     1       8.411   5.335  20.409  0.00  0.00    +0.000 N 
ATOM      6  N   UNL     1       8.062   6.885  18.636  0.00  0.00    +0.000 N 
ATOM      7  N   UNL     1       8.649   7.929  19.257  0.00  0.00    +0.000 NA
ATOM      8  C   UNL     1       8.474   8.889  18.331  0.00  0.00    +0.000 A 
ATOM      9  N   UNL     1       7.836   8.464  17.179  0.00  0.00    +0.000 NA
ATOM     10  C   UNL     1       7.589   7.194  17.403  0.00  0.00    +0.000 A 
ATOM     11  N   UNL     1       6.976   6.251  16.661  0.00  0.00    +0.000 NA
ATOM     12  H   UNL     1       6.922   3.253  16.271  0.00  0.00    +0.000 HD
ATOM     13  H   UNL     1       8.545   4.363  20.657  0.00  0.00    +0.000 HD
ATOM     14  H   UNL     1       9.050   6.010  20.820  0.00  0.00    +0.000 HD
ENDROOT
BRANCH   8  15
ATOM     15  C   UNL     1       8.885  10.279  18.512  0.00  0.00    +0.000 A 
ATOM     16  C   UNL     1       8.358  11.292  17.698  0.00  0.00    +0.000 A 
ATOM     17  C   UNL     1       8.783  12.608  17.868  0.00  0.00    +0.000 A 
ATOM     18  C   UNL     1       9.728  12.940  18.834  0.00  0.00    +0.000 A 
ATOM     19  C   UNL     1      10.240  11.934  19.646  0.00  0.00    +0.000 A 
ATOM     20  C   UNL     1       9.824  10.614  19.499  0.00  0.00    +0.000 A 
BRANCH  17  21
ATOM     21  O   UNL     1       8.292  13.617  17.093  0.00  0.00    +0.000 OA
ATOM     22  H   UNL     1       7.620  14.100  17.602  0.00  0.00    +0.000 HD
ENDBRANCH  17  21
BRANCH  19  23
ATOM     23  O   UNL     1      11.171  12.205  20.606  0.00  0.00    +0.000 OA
ATOM     24  H   UNL     1      11.782  12.879  20.265  0.00  0.00    +0.000 HD
ENDBRANCH  19  23
ENDBRANCH   8  15
BRANCH   1  25
ATOM     25  C   UNL     1       5.387   4.339  15.373  0.00  0.00    +0.000 C 
BRANCH  25  31
ATOM     26  C   UNL     1       5.714   1.648  11.084  0.00  0.00    +0.000 C 
ATOM     27  C   UNL     1       6.145   2.817  11.921  0.00  0.00    +0.000 A 
ATOM     28  C   UNL     1       7.100   3.722  11.451  0.00  0.00    +0.000 A 
ATOM     29  C   UNL     1       7.493   4.802  12.241  0.00  0.00    +0.000 A 
ATOM     30  C   UNL     1       6.946   4.978  13.512  0.00  0.00    +0.000 A 
ATOM     31  C   UNL     1       6.001   4.073  14.017  0.00  0.00    +0.000 A 
ATOM     32  C   UNL     1       5.591   3.007  13.196  0.00  0.00    +0.000 A 
ENDBRANCH  25  31
ENDBRANCH   1  25
TORSDOF 5
ENDMDL
MODEL 4
REMARK VINA RESULT:      -9.1      2.283      4.030
REMARK  Name = 
REMARK  6 active torsions:
REMARK  status: ('A' for Active; 'I' for Inactive)
REMARK    1  A    between atoms: C_1  and  C_2
REMARK    2  A    between atoms: C_6  and  C_7
REMARK    3  A    between atoms: C_7  and  N_8
REMARK    4  A    between atoms: C_15  and  C_16
REMARK    5  A    between atoms: C_18  and  O_19
REMARK    6  A    between atoms: C_21  and  O_22
REMARK                            x       y       z     vdW  Elec       q    Type
REMARK                         _______ _______ _______ _____ _____    ______ ____
ROOT
ATOM      1  N   UNL     1       6.284   4.055  16.513  0.00  0.00    +0.000 N 
ATOM      2  C   UNL     1       6.911   5.053  17.197  0.00  0.00    +0.000 A 
ATOM      3  N   UNL     1       7.426   4.711  18.428  0.00  0.00    +0.000 NA
ATOM      4  C   UNL     1       7.947   5.638  19.175  0.00  0.00    +0.000 A 
ATOM      5  N   UNL     1       8.392   5.401  20.450  0.00  0.00    +0.000 N 
ATOM      6  N   UNL     1       8.055   6.920  18.648  0.00  0.00    +0.000 N 
ATOM      7  N   UNL     1       8.651   7.969  19.248  0.00  0.00    +0.000 NA
ATOM      8  C   UNL     1       8.483   8.913  18.304  0.00  0.00    +0.000 A 
ATOM      9  N   UNL     1       7.840   8.472  17.161  0.00  0.00    +0.000 NA
ATOM     10  C   UNL     1       7.582   7.209  17.410  0.00  0.00    +0.000 A 
ATOM     11  N   UNL     1       6.959   6.257  16.687  0.00  0.00    +0.000 NA
ATOM     12  H   UNL     1       6.879   3.254  16.355  0.00  0.00    +0.000 HD
ATOM     13  H   UNL     1       8.518   4.432  20.716  0.00  0.00    +0.000 HD
ATOM     14  H   UNL     1       9.038   6.078  20.847  0.00  0.00    +0.000 HD
ENDROOT
BRANCH   8  15
ATOM     15  C   UNL     1       8.907  10.303  18.457  0.00  0.00    +0.000 A 
ATOM     16  C   UNL     1       9.896  10.650  19.390  0.00  0.00    +0.000 A 
ATOM     17  C   UNL     1      10.267  11.985  19.541  0.00  0.00    +0.000 A 
ATOM     18  C   UNL     1       9.671  12.987  18.783  0.00  0.00    +0.000 A 
ATOM     19  C   UNL     1       8.700  12.638  17.851  0.00  0.00    +0.000 A 
ATOM     20  C   UNL     1       8.319  11.310  17.678  0.00  0.00    +0.000 A 
BRANCH  17  21
ATOM     21  O   UNL     1      11.224  12.357  20.439  0.00  0.00    +0.000 OA
ATOM     22  H   UNL     1      10.991  13.231  20.795  0.00  0.00    +0.000 HD
ENDBRANCH  17  21
BRANCH  19  23
ATOM     23  O   UNL     1       8.082  13.582  17.084  0.00  0.00    +0.000 OA
ATOM     24  H   UNL     1       8.685  14.337  16.976  0.00  0.00    +0.000 HD
ENDBRANCH  19  23
ENDBRANCH   8  15
BRANCH   1  25
ATOM     25  C   UNL     1       5.352   4.336  15.438  0.00  0.00    +0.000 C 
BRANCH  25  31
ATOM     26  C   UNL     1       5.696   1.709  11.111  0.00  0.00    +0.000 C 
ATOM     27  C   UNL     1       6.130   2.860  11.971  0.00  0.00    +0.000 A 
ATOM     28  C   UNL     1       7.099   3.762  11.525  0.00  0.00    +0.000 A 
ATOM     29  C   UNL     1       7.495   4.825  12.336  0.00  0.00    +0.000 A 
ATOM     30  C   UNL     1       6.936   4.987  13.604  0.00  0.00    +0.000 A 
ATOM     31  C   UNL     1       5.977   4.084  14.084  0.00  0.00    +0.000 A 
ATOM     32  C   UNL     1       5.565   3.036  13.243  0.00  0.00    +0.000 A 
ENDBRANCH  25  31
ENDBRANCH   1  25
TORSDOF 5
ENDMDL
MODEL 5
REMARK VINA RESULT:      -9.0      0.688      1.340
REMARK  Name = 
REMARK  6 active torsions:
REMARK  status: ('A' for Active; 'I' for Inactive)
REMARK    1  A    between atoms: C_1  and  C_2
REMARK    2  A    between atoms: C_6  and  C_7
REMARK    3  A    between atoms: C_7  and  N_8
REMARK    4  A    between atoms: C_15  and  C_16
REMARK    5  A    between atoms: C_18  and  O_19
REMARK    6  A    between atoms: C_21  and  O_22
REMARK                            x       y       z     vdW  Elec       q    Type
REMARK                         _______ _______ _______ _____ _____    ______ ____
ROOT
ATOM      1  N   UNL     1       5.505   3.863  17.311  0.00  0.00    +0.000 N 
ATOM      2  C   UNL     1       6.347   4.855  17.713  0.00  0.00    +0.000 A 
ATOM      3  N   UNL     1       7.318   4.495  18.620  0.00  0.00    +0.000 NA
ATOM      4  C   UNL     1       8.089   5.413  19.120  0.00  0.00    +0.000 A 
ATOM      5  N   UNL     1       9.014   5.155  20.098  0.00  0.00    +0.000 N 
ATOM      6  N   UNL     1       7.964   6.709  18.632  0.00  0.00    +0.000 N 
ATOM      7  N   UNL     1       8.744   7.756  18.971  0.00  0.00    +0.000 NA
ATOM      8  C   UNL     1       8.201   8.718  18.204  0.00  0.00    +0.000 A 
ATOM      9  N   UNL     1       7.154   8.292  17.406  0.00  0.00    +0.000 NA
ATOM     10  C   UNL     1       7.029   7.018  17.700  0.00  0.00    +0.000 A 
ATOM     11  N   UNL     1       6.175   6.073  17.263  0.00  0.00    +0.000 NA
ATOM     12  H   UNL     1       5.991   3.076  16.903  0.00  0.00    +0.000 HD
ATOM     13  H   UNL     1       9.245   4.182  20.262  0.00  0.00    +0.000 HD
ATOM     14  H   UNL     1       9.760   5.834  20.221  0.00  0.00    +0.000 HD
ENDROOT
BRANCH   8  15
ATOM     15  C   UNL     1       8.640  10.112  18.214  0.00  0.00    +0.000 A 
ATOM     16  C   UNL     1       7.904  11.097  17.539  0.00  0.00    +0.000 A 
ATOM     17  C   UNL     1       8.354  12.417  17.538  0.00  0.00    +0.000 A 
ATOM     18  C   UNL     1       9.526  12.778  18.195  0.00  0.00    +0.000 A 
ATOM     19  C   UNL     1      10.246  11.800  18.872  0.00  0.00    +0.000 A 
ATOM     20  C   UNL     1       9.811  10.478  18.893  0.00  0.00    +0.000 A 
BRANCH  17  21
ATOM     21  O   UNL     1       7.664  13.400  16.891  0.00  0.00    +0.000 OA
ATOM     22  H   UNL     1       7.710  14.212  17.424  0.00  0.00    +0.000 HD
ENDBRANCH  17  21
BRANCH  19  23
ATOM     23  O   UNL     1      11.403  12.100  19.530  0.00  0.00    +0.000 OA
ATOM     24  H   UNL     1      11.424  11.603  20.364  0.00  0.00    +0.000 HD
ENDBRANCH  19  23
ENDBRANCH   8  15
BRANCH   1  25
ATOM     25  C   UNL     1       4.215   4.150  16.713  0.00  0.00    +0.000 C 
BRANCH  25  31
ATOM     26  C   UNL     1       1.528   5.773  20.699  0.00  0.00    +0.000 C 
ATOM     27  C   UNL     1       1.754   4.771  19.606  0.00  0.00    +0.000 A 
ATOM     28  C   UNL     1       0.905   3.672  19.453  0.00  0.00    +0.000 A 
ATOM     29  C   UNL     1       1.129   2.746  18.434  0.00  0.00    +0.000 A 
ATOM     30  C   UNL     1       2.212   2.903  17.570  0.00  0.00    +0.000 A 
ATOM     31  C   UNL     1       3.093   3.986  17.714  0.00  0.00    +0.000 A 
ATOM     32  C   UNL     1       2.835   4.927  18.725  0.00  0.00    +0.000 A 
ENDBRANCH  25  31
ENDBRANCH   1  25
TORSDOF 5
ENDMDL
MODEL 6
REMARK VINA RESULT:      -9.0      0.684      2.076
REMARK  Name = 
REMARK  6 active torsions:
REMARK  status: ('A' for Active; 'I' for Inactive)
REMARK    1  A    between atoms: C_1  and  C_2
REMARK    2  A    between atoms: C_6  and  C_7
REMARK    3  A    between atoms: C_7  and  N_8
REMARK    4  A    between atoms: C_15  and  C_16
REMARK    5  A    between atoms: C_18  and  O_19
REMARK    6  A    between atoms: C_21  and  O_22
REMARK                            x       y       z     vdW  Elec       q    Type
REMARK                         _______ _______ _______ _____ _____    ______ ____
ROOT
ATOM      1  N   UNL     1       5.501   3.863  17.340  0.00  0.00    +0.000 N 
ATOM      2  C   UNL     1       6.346   4.854  17.741  0.00  0.00    +0.000 A 
ATOM      3  N   UNL     1       7.315   4.491  18.651  0.00  0.00    +0.000 NA
ATOM      4  C   UNL     1       8.088   5.407  19.151  0.00  0.00    +0.000 A 
ATOM      5  N   UNL     1       9.010   5.147  20.132  0.00  0.00    +0.000 N 
ATOM      6  N   UNL     1       7.970   6.703  18.659  0.00  0.00    +0.000 N 
ATOM      7  N   UNL     1       8.754   7.746  18.997  0.00  0.00    +0.000 NA
ATOM      8  C   UNL     1       8.217   8.709  18.226  0.00  0.00    +0.000 A 
ATOM      9  N   UNL     1       7.170   8.286  17.427  0.00  0.00    +0.000 NA
ATOM     10  C   UNL     1       7.039   7.013  17.724  0.00  0.00    +0.000 A 
ATOM     11  N   UNL     1       6.181   6.070  17.288  0.00  0.00    +0.000 NA
ATOM     12  H   UNL     1       5.985   3.074  16.935  0.00  0.00    +0.000 HD
ATOM     13  H   UNL     1       9.236   4.174  20.299  0.00  0.00    +0.000 HD
ATOM     14  H   UNL     1       9.759   5.824  20.254  0.00  0.00    +0.000 HD
ENDROOT
BRANCH   8  15
ATOM     15  C   UNL     1       8.661  10.101  18.234  0.00  0.00    +0.000 A 
ATOM     16  C   UNL     1       9.802  10.483  18.955  0.00  0.00    +0.000 A 
ATOM     17  C   UNL     1      10.194  11.820  18.972  0.00  0.00    +0.000 A 
ATOM     18  C   UNL     1       9.471  12.791  18.286  0.00  0.00    +0.000 A 
ATOM     19  C   UNL     1       8.348  12.406  17.564  0.00  0.00    +0.000 A 
ATOM     20  C   UNL     1       7.942  11.076  17.525  0.00  0.00    +0.000 A 
BRANCH  17  21
ATOM     21  O   UNL     1      11.298  12.226  19.663  0.00  0.00    +0.000 OA
ATOM     22  H   UNL     1      11.755  11.440  20.006  0.00  0.00    +0.000 HD
ENDBRANCH  17  21
BRANCH  19  23
ATOM     23  O   UNL     1       7.602  13.319  16.876  0.00  0.00    +0.000 OA
ATOM     24  H   UNL     1       8.188  14.030  16.568  0.00  0.00    +0.000 HD
ENDBRANCH  19  23
ENDBRANCH   8  15
BRANCH   1  25
ATOM     25  C   UNL     1       4.214   4.155  16.739  0.00  0.00    +0.000 C 
BRANCH  25  31
ATOM     26  C   UNL     1       1.510   5.794  20.707  0.00  0.00    +0.000 C 
ATOM     27  C   UNL     1       1.742   4.786  19.619  0.00  0.00    +0.000 A 
ATOM     28  C   UNL     1       0.895   3.685  19.469  0.00  0.00    +0.000 A 
ATOM     29  C   UNL     1       1.124   2.755  18.456  0.00  0.00    +0.000 A 
ATOM     30  C   UNL     1       2.210   2.909  17.595  0.00  0.00    +0.000 A 
ATOM     31  C   UNL     1       3.088   3.994  17.736  0.00  0.00    +0.000 A 
ATOM     32  C   UNL     1       2.826   4.940  18.742  0.00  0.00    +0.000 A 
ENDBRANCH  25  31
ENDBRANCH   1  25
TORSDOF 5
ENDMDL
MODEL 7
REMARK VINA RESULT:      -9.0      4.015      9.099
REMARK  Name = 
REMARK  6 active torsions:
REMARK  status: ('A' for Active; 'I' for Inactive)
REMARK    1  A    between atoms: C_1  and  C_2
REMARK    2  A    between atoms: C_6  and  C_7
REMARK    3  A    between atoms: C_7  and  N_8
REMARK    4  A    between atoms: C_15  and  C_16
REMARK    5  A    between atoms: C_18  and  O_19
REMARK    6  A    between atoms: C_21  and  O_22
REMARK                            x       y       z     vdW  Elec       q    Type
REMARK                         _______ _______ _______ _____ _____    ______ ____
ROOT
ATOM      1  N   UNL     1       8.182   8.378  17.214  0.00  0.00    +0.000 N 
ATOM      2  C   UNL     1       7.384   7.276  17.284  0.00  0.00    +0.000 A 
ATOM      3  N   UNL     1       7.610   6.303  16.336  0.00  0.00    +0.000 NA
ATOM      4  C   UNL     1       6.819   5.274  16.284  0.00  0.00    +0.000 A 
ATOM      5  N   UNL     1       6.915   4.311  15.312  0.00  0.00    +0.000 N 
ATOM      6  N   UNL     1       5.840   5.151  17.263  0.00  0.00    +0.000 N 
ATOM      7  N   UNL     1       5.003   4.105  17.412  0.00  0.00    +0.000 NA
ATOM      8  C   UNL     1       4.310   4.502  18.495  0.00  0.00    +0.000 A 
ATOM      9  N   UNL     1       4.710   5.721  19.014  0.00  0.00    +0.000 NA
ATOM     10  C   UNL     1       5.678   6.105  18.214  0.00  0.00    +0.000 A 
ATOM     11  N   UNL     1       6.445   7.212  18.195  0.00  0.00    +0.000 NA
ATOM     12  H   UNL     1       9.166   8.154  17.271  0.00  0.00    +0.000 HD
ATOM     13  H   UNL     1       7.767   4.300  14.765  0.00  0.00    +0.000 HD
ATOM     14  H   UNL     1       6.476   3.415  15.504  0.00  0.00    +0.000 HD
ENDROOT
BRANCH   8  15
ATOM     15  C   UNL     1       3.204   3.747  19.076  0.00  0.00    +0.000 A 
ATOM     16  C   UNL     1       2.250   3.128  18.254  0.00  0.00    +0.000 A 
ATOM     17  C   UNL     1       1.187   2.435  18.829  0.00  0.00    +0.000 A 
ATOM     18  C   UNL     1       1.049   2.344  20.210  0.00  0.00    +0.000 A 
ATOM     19  C   UNL     1       2.003   2.949  21.022  0.00  0.00    +0.000 A 
ATOM     20  C   UNL     1       3.078   3.640  20.470  0.00  0.00    +0.000 A 
BRANCH  17  21
ATOM     21  O   UNL     1       0.241   1.823  18.059  0.00  0.00    +0.000 OA
ATOM     22  H   UNL     1      -0.542   1.652  18.609  0.00  0.00    +0.000 HD
ENDBRANCH  17  21
BRANCH  19  23
ATOM     23  O   UNL     1       1.913   2.893  22.382  0.00  0.00    +0.000 OA
ATOM     24  H   UNL     1       2.768   3.158  22.761  0.00  0.00    +0.000 HD
ENDBRANCH  19  23
ENDBRANCH   8  15
BRANCH   1  25
ATOM     25  C   UNL     1       7.810   9.631  17.842  0.00  0.00    +0.000 C 
BRANCH  25  31
ATOM     26  C   UNL     1      11.867  12.625  17.278  0.00  0.00    +0.000 C 
ATOM     27  C   UNL     1      10.954  11.827  18.162  0.00  0.00    +0.000 A 
ATOM     28  C   UNL     1      11.169  11.758  19.541  0.00  0.00    +0.000 A 
ATOM     29  C   UNL     1      10.313  11.011  20.349  0.00  0.00    +0.000 A 
ATOM     30  C   UNL     1       9.245  10.314  19.785  0.00  0.00    +0.000 A 
ATOM     31  C   UNL     1       9.018  10.349  18.401  0.00  0.00    +0.000 A 
ATOM     32  C   UNL     1       9.870  11.132  17.603  0.00  0.00    +0.000 A 
ENDBRANCH  25  31
ENDBRANCH   1  25
TORSDOF 5
ENDMDL
MODEL 8
REMARK VINA RESULT:      -8.9      2.182      3.912
REMARK  Name = 
REMARK  6 active torsions:
REMARK  status: ('A' for Active; 'I' for Inactive)
REMARK    1  A    between atoms: C_1  and  C_2
REMARK    2  A    between atoms: C_6  and  C_7
REMARK    3  A    between atoms: C_7  and  N_8
REMARK    4  A    between atoms: C_15  and  C_16
REMARK    5  A    between atoms: C_18  and  O_19
REMARK    6  A    between atoms: C_21  and  O_22
REMARK                            x       y       z     vdW  Elec       q    Type
REMARK                         _______ _______ _______ _____ _____    ______ ____
ROOT
ATOM      1  N   UNL     1       6.203   3.902  16.600  0.00  0.00    +0.000 N 
ATOM      2  C   UNL     1       6.845   4.909  17.257  0.00  0.00    +0.000 A 
ATOM      3  N   UNL     1       7.416   4.575  18.465  0.00  0.00    +0.000 NA
ATOM      4  C   UNL     1       7.955   5.509  19.189  0.00  0.00    +0.000 A 
ATOM      5  N   UNL     1       8.458   5.279  20.444  0.00  0.00    +0.000 N 
ATOM      6  N   UNL     1       8.023   6.792  18.658  0.00  0.00    +0.000 N 
ATOM      7  N   UNL     1       8.630   7.850  19.232  0.00  0.00    +0.000 NA
ATOM      8  C   UNL     1       8.409   8.791  18.296  0.00  0.00    +0.000 A 
ATOM      9  N   UNL     1       7.724   8.341  17.182  0.00  0.00    +0.000 NA
ATOM     10  C   UNL     1       7.494   7.074  17.441  0.00  0.00    +0.000 A 
ATOM     11  N   UNL     1       6.854   6.113  16.745  0.00  0.00    +0.000 NA
ATOM     12  H   UNL     1       6.802   3.109  16.417  0.00  0.00    +0.000 HD
ATOM     13  H   UNL     1       8.609   4.312  20.704  0.00  0.00    +0.000 HD
ATOM     14  H   UNL     1       9.111   5.965  20.813  0.00  0.00    +0.000 HD
ENDROOT
BRANCH   8  15
ATOM     15  C   UNL     1       8.819  10.186  18.432  0.00  0.00    +0.000 A 
ATOM     16  C   UNL     1       8.231  11.185  17.641  0.00  0.00    +0.000 A 
ATOM     17  C   UNL     1       8.656  12.506  17.766  0.00  0.00    +0.000 A 
ATOM     18  C   UNL     1       9.659  12.858  18.663  0.00  0.00    +0.000 A 
ATOM     19  C   UNL     1      10.232  11.867  19.453  0.00  0.00    +0.000 A 
ATOM     20  C   UNL     1       9.818  10.542  19.351  0.00  0.00    +0.000 A 
BRANCH  17  21
ATOM     21  O   UNL     1       8.107  13.501  17.011  0.00  0.00    +0.000 OA
ATOM     22  H   UNL     1       7.144  13.496  17.145  0.00  0.00    +0.000 HD
ENDBRANCH  17  21
BRANCH  19  23
ATOM     23  O   UNL     1      11.221  12.158  20.347  0.00  0.00    +0.000 OA
ATOM     24  H   UNL     1      12.068  12.193  19.872  0.00  0.00    +0.000 HD
ENDBRANCH  19  23
ENDBRANCH   8  15
BRANCH   1  25
ATOM     25  C   UNL     1       5.222   4.169  15.566  0.00  0.00    +0.000 C 
BRANCH  25  31
ATOM     26  C   UNL     1       8.677   5.977  12.319  0.00  0.00    +0.000 C 
ATOM     27  C   UNL     1       7.547   5.037  12.625  0.00  0.00    +0.000 A 
ATOM     28  C   UNL     1       7.078   4.142  11.661  0.00  0.00    +0.000 A 
ATOM     29  C   UNL     1       6.025   3.277  11.958  0.00  0.00    +0.000 A 
ATOM     30  C   UNL     1       5.424   3.310  13.216  0.00  0.00    +0.000 A 
ATOM     31  C   UNL     1       5.861   4.213  14.196  0.00  0.00    +0.000 A 
ATOM     32  C   UNL     1       6.944   5.057  13.892  0.00  0.00    +0.000 A 
ENDBRANCH  25  31
ENDBRANCH   1  25
TORSDOF 5
ENDMDL
MODEL 9
REMARK VINA RESULT:      -8.9      4.024      9.212
REMARK  Name = 
REMARK  6 active torsions:
REMARK  status: ('A' for Active; 'I' for Inactive)
REMARK    1  A    between atoms: C_1  and  C_2
REMARK    2  A    between atoms: C_6  and  C_7
REMARK    3  A    between atoms: C_7  and  N_8
REMARK    4  A    between atoms: C_15  and  C_16
REMARK    5  A    between atoms: C_18  and  O_19
REMARK    6  A    between atoms: C_21  and  O_22
REMARK                            x       y       z     vdW  Elec       q    Type
REMARK                         _______ _______ _______ _____ _____    ______ ____
ROOT
ATOM      1  N   UNL     1       8.170   8.358  17.211  0.00  0.00    +0.000 N 
ATOM      2  C   UNL     1       7.366   7.262  17.295  0.00  0.00    +0.000 A 
ATOM      3  N   UNL     1       7.592   6.272  16.363  0.00  0.00    +0.000 NA
ATOM      4  C   UNL     1       6.797   5.246  16.324  0.00  0.00    +0.000 A 
ATOM      5  N   UNL     1       6.894   4.268  15.368  0.00  0.00    +0.000 N 
ATOM      6  N   UNL     1       5.811   5.144  17.299  0.00  0.00    +0.000 N 
ATOM      7  N   UNL     1       4.968   4.105  17.460  0.00  0.00    +0.000 NA
ATOM      8  C   UNL     1       4.272   4.523  18.532  0.00  0.00    +0.000 A 
ATOM      9  N   UNL     1       4.675   5.748  19.034  0.00  0.00    +0.000 NA
ATOM     10  C   UNL     1       5.650   6.114  18.233  0.00  0.00    +0.000 A 
ATOM     11  N   UNL     1       6.422   7.218  18.201  0.00  0.00    +0.000 NA
ATOM     12  H   UNL     1       9.152   8.131  17.277  0.00  0.00    +0.000 HD
ATOM     13  H   UNL     1       7.749   4.243  14.826  0.00  0.00    +0.000 HD
ATOM     14  H   UNL     1       6.449   3.377  15.572  0.00  0.00    +0.000 HD
ENDROOT
BRANCH   8  15
ATOM     15  C   UNL     1       3.159   3.782  19.120  0.00  0.00    +0.000 A 
ATOM     16  C   UNL     1       3.021   3.685  20.512  0.00  0.00    +0.000 A 
ATOM     17  C   UNL     1       1.967   2.951  21.053  0.00  0.00    +0.000 A 
ATOM     18  C   UNL     1       1.045   2.306  20.236  0.00  0.00    +0.000 A 
ATOM     19  C   UNL     1       1.178   2.414  18.856  0.00  0.00    +0.000 A 
ATOM     20  C   UNL     1       2.218   3.149  18.294  0.00  0.00    +0.000 A 
BRANCH  17  21
ATOM     21  O   UNL     1       1.804   2.834  22.403  0.00  0.00    +0.000 OA
ATOM     22  H   UNL     1       1.029   2.274  22.574  0.00  0.00    +0.000 HD
ENDBRANCH  17  21
BRANCH  19  23
ATOM     23  O   UNL     1       0.303   1.800  18.009  0.00  0.00    +0.000 OA
ATOM     24  H   UNL     1      -0.541   2.280  18.033  0.00  0.00    +0.000 HD
ENDBRANCH  19  23
ENDBRANCH   8  15
BRANCH   1  25
ATOM     25  C   UNL     1       7.801   9.623  17.816  0.00  0.00    +0.000 C 
BRANCH  25  31
ATOM     26  C   UNL     1      11.841  12.647  17.291  0.00  0.00    +0.000 C 
ATOM     27  C   UNL     1      10.935  11.829  18.164  0.00  0.00    +0.000 A 
ATOM     28  C   UNL     1      11.155  11.737  19.541  0.00  0.00    +0.000 A 
ATOM     29  C   UNL     1      10.306  10.972  20.339  0.00  0.00    +0.000 A 
ATOM     30  C   UNL     1       9.239  10.280  19.766  0.00  0.00    +0.000 A 
ATOM     31  C   UNL     1       9.007  10.337  18.384  0.00  0.00    +0.000 A 
ATOM     32  C   UNL     1       9.853  11.139  17.597  0.00  0.00    +0.000 A 
ENDBRANCH  25  31
ENDBRANCH   1  25
TORSDOF 5
ENDMDL
