MODEL 1
REMARK VINA RESULT:      -7.4      0.000      0.000
REMARK  Name = 
REMARK  6 active torsions:
REMARK  status: ('A' for Active; 'I' for Inactive)
REMARK    1  A    between atoms: C_1  and  C_2
REMARK    2  A    between atoms: C_4  and  C_5
REMARK    3  A    between atoms: C_15  and  N_16
REMARK    4  A    between atoms: N_16  and  C_17
REMARK    5  A    between atoms: C_17  and  C_18
REMARK    6  A    between atoms: N_22  and  C_23
REMARK                            x       y       z     vdW  Elec       q    Type
REMARK                         _______ _______ _______ _____ _____    ______ ____
ROOT
ATOM      1  C   UNL     1       1.004   8.169  21.562  0.00  0.00    +0.000 C 
ATOM      2  C   UNL     1       1.554   8.223  20.161  0.00  0.00    +0.000 A 
ATOM      3  C   UNL     1       2.371   7.157  19.721  0.00  0.00    +0.000 A 
ATOM      4  C   UNL     1       2.872   7.108  18.412  0.00  0.00    +0.000 A 
ATOM      5  C   UNL     1       2.542   8.139  17.541  0.00  0.00    +0.000 A 
ATOM      6  C   UNL     1       1.824   9.244  17.994  0.00  0.00    +0.000 A 
ATOM      7  C   UNL     1       1.245   9.275  19.273  0.00  0.00    +0.000 A 
ENDROOT
BRANCH   4   8
ATOM      8  C   UNL     1       3.631   5.903  17.970  0.00  0.00    +0.000 C 
ATOM      9  O   UNL     1       4.844   6.040  17.814  0.00  0.00    +0.000 OA
ATOM     10  N   UNL     1       2.999   4.677  17.771  0.00  0.00    +0.000 N 
ATOM     11  C   UNL     1       1.566   4.380  17.691  0.00  0.00    +0.000 C 
ATOM     12  C   UNL     1       1.216   3.289  18.713  0.00  0.00    +0.000 C 
ATOM     13  O   UNL     1       2.001   2.105  18.481  0.00  0.00    +0.000 OA
ATOM     14  C   UNL     1       3.409   2.393  18.568  0.00  0.00    +0.000 C 
ATOM     15  C   UNL     1       3.822   3.483  17.570  0.00  0.00    +0.000 C 
ENDBRANCH   4   8
BRANCH   7  16
ATOM     16  N   UNL     1       0.440  10.365  19.681  0.00  0.00    +0.000 N 
ATOM     17  H   UNL     1      -0.301  10.039  20.298  0.00  0.00    +0.000 HD
BRANCH  16  18
ATOM     18  C   UNL     1      -0.129  11.170  18.585  0.00  0.00    +0.000 C 
BRANCH  18  19
ATOM     19  C   UNL     1      -1.496  10.785  18.115  0.00  0.00    +0.000 A 
ATOM     20  N   UNL     1      -1.739   9.918  17.147  0.00  0.00    +0.000 NA
ATOM     21  C   UNL     1      -3.093   9.915  16.972  0.00  0.00    +0.000 A 
ATOM     22  C   UNL     1      -3.695  10.777  17.856  0.00  0.00    +0.000 A 
ATOM     23  N   UNL     1      -2.670  11.326  18.579  0.00  0.00    +0.000 N 
ATOM     24  C   UNL     1      -2.816  12.311  19.621  0.00  0.00    +0.000 C 
ENDBRANCH  18  19
ENDBRANCH  16  18
ENDBRANCH   7  16
TORSDOF 4
ENDMDL
MODEL 2
REMARK VINA RESULT:      -7.2      2.331      4.073
REMARK  Name = 
REMARK  6 active torsions:
REMARK  status: ('A' for Active; 'I' for Inactive)
REMARK    1  A    between atoms: C_1  and  C_2
REMARK    2  A    between atoms: C_4  and  C_5
REMARK    3  A    between atoms: C_15  and  N_16
REMARK    4  A    between atoms: N_16  and  C_17
REMARK    5  A    between atoms: C_17  and  C_18
REMARK    6  A    between atoms: N_22  and  C_23
REMARK                            x       y       z     vdW  Elec       q    Type
REMARK                         _______ _______ _______ _____ _____    ______ ____
ROOT
ATOM      1  C   UNL     1       2.219   8.959  18.197  0.00  0.00    +0.000 C 
ATOM      2  C   UNL     1       2.410   7.567  18.740  0.00  0.00    +0.000 A 
ATOM      3  C   UNL     1       2.881   6.564  17.863  0.00  0.00    +0.000 A 
ATOM      4  C   UNL     1       3.138   5.260  18.311  0.00  0.00    +0.000 A 
ATOM      5  C   UNL     1       2.923   4.968  19.651  0.00  0.00    +0.000 A 
ATOM      6  C   UNL     1       2.362   5.920  20.500  0.00  0.00    +0.000 A 
ATOM      7  C   UNL     1       2.175   7.251  20.096  0.00  0.00    +0.000 A 
ENDROOT
BRANCH   4   8
ATOM      8  C   UNL     1       3.742   4.276  17.367  0.00  0.00    +0.000 C 
ATOM      9  O   UNL     1       2.974   3.476  16.835  0.00  0.00    +0.000 OA
ATOM     10  N   UNL     1       5.107   4.282  17.083  0.00  0.00    +0.000 N 
ATOM     11  C   UNL     1       6.189   4.994  17.771  0.00  0.00    +0.000 C 
ATOM     12  C   UNL     1       6.967   5.840  16.754  0.00  0.00    +0.000 C 
ATOM     13  O   UNL     1       7.485   5.013  15.696  0.00  0.00    +0.000 OA
ATOM     14  C   UNL     1       6.424   4.320  15.013  0.00  0.00    +0.000 C 
ATOM     15  C   UNL     1       5.603   3.457  15.981  0.00  0.00    +0.000 C 
ENDBRANCH   4   8
BRANCH   7  16
ATOM     16  N   UNL     1       1.693   8.226  21.002  0.00  0.00    +0.000 N 
ATOM     17  H   UNL     1       2.114   8.089  21.917  0.00  0.00    +0.000 HD
BRANCH  16  18
ATOM     18  C   UNL     1       0.227   8.301  21.122  0.00  0.00    +0.000 C 
BRANCH  18  19
ATOM     19  C   UNL     1      -0.331   9.550  21.728  0.00  0.00    +0.000 A 
ATOM     20  N   UNL     1      -0.612   9.699  23.010  0.00  0.00    +0.000 NA
ATOM     21  C   UNL     1      -1.172  10.939  23.134  0.00  0.00    +0.000 A 
ATOM     22  C   UNL     1      -1.221  11.569  21.914  0.00  0.00    +0.000 A 
ATOM     23  N   UNL     1      -0.683  10.677  21.026  0.00  0.00    +0.000 N 
ATOM     24  C   UNL     1      -0.541  10.892  19.608  0.00  0.00    +0.000 C 
ENDBRANCH  18  19
ENDBRANCH  16  18
ENDBRANCH   7  16
TORSDOF 4
ENDMDL
MODEL 3
REMARK VINA RESULT:      -7.2      0.531      1.289
REMARK  Name = 
REMARK  6 active torsions:
REMARK  status: ('A' for Active; 'I' for Inactive)
REMARK    1  A    between atoms: C_1  and  C_2
REMARK    2  A    between atoms: C_4  and  C_5
REMARK    3  A    between atoms: C_15  and  N_16
REMARK    4  A    between atoms: N_16  and  C_17
REMARK    5  A    between atoms: C_17  and  C_18
REMARK    6  A    between atoms: N_22  and  C_23
REMARK                            x       y       z     vdW  Elec       q    Type
REMARK                         _______ _______ _______ _____ _____    ______ ____
ROOT
ATOM      1  C   UNL     1       0.970   8.282  21.626  0.00  0.00    +0.000 C 
ATOM      2  C   UNL     1       1.467   8.341  20.206  0.00  0.00    +0.000 A 
ATOM      3  C   UNL     1       2.308   7.302  19.747  0.00  0.00    +0.000 A 
ATOM      4  C   UNL     1       2.763   7.258  18.420  0.00  0.00    +0.000 A 
ATOM      5  C   UNL     1       2.363   8.266  17.552  0.00  0.00    +0.000 A 
ATOM      6  C   UNL     1       1.622   9.348  18.020  0.00  0.00    +0.000 A 
ATOM      7  C   UNL     1       1.088   9.371  19.319  0.00  0.00    +0.000 A 
ENDROOT
BRANCH   4   8
ATOM      8  C   UNL     1       3.550   6.077  17.963  0.00  0.00    +0.000 C 
ATOM      9  O   UNL     1       4.755   6.252  17.782  0.00  0.00    +0.000 OA
ATOM     10  N   UNL     1       2.954   4.831  17.777  0.00  0.00    +0.000 N 
ATOM     11  C   UNL     1       1.530   4.489  17.727  0.00  0.00    +0.000 C 
ATOM     12  C   UNL     1       1.235   3.388  18.755  0.00  0.00    +0.000 C 
ATOM     13  O   UNL     1       2.053   2.229  18.508  0.00  0.00    +0.000 OA
ATOM     14  C   UNL     1       3.452   2.562  18.566  0.00  0.00    +0.000 C 
ATOM     15  C   UNL     1       3.810   3.664  17.559  0.00  0.00    +0.000 C 
ENDBRANCH   4   8
BRANCH   7  16
ATOM     16  N   UNL     1       0.257  10.435  19.745  0.00  0.00    +0.000 N 
ATOM     17  H   UNL     1      -0.505  10.074  20.315  0.00  0.00    +0.000 HD
BRANCH  16  18
ATOM     18  C   UNL     1      -0.274  11.288  18.667  0.00  0.00    +0.000 C 
BRANCH  18  19
ATOM     19  C   UNL     1      -1.757  11.482  18.638  0.00  0.00    +0.000 A 
ATOM     20  N   UNL     1      -2.431  12.232  19.492  0.00  0.00    +0.000 NA
ATOM     21  C   UNL     1      -3.750  12.075  19.175  0.00  0.00    +0.000 A 
ATOM     22  C   UNL     1      -3.890  11.230  18.101  0.00  0.00    +0.000 A 
ATOM     23  N   UNL     1      -2.616  10.858  17.767  0.00  0.00    +0.000 N 
ATOM     24  C   UNL     1      -2.262   9.954  16.701  0.00  0.00    +0.000 C 
ENDBRANCH  18  19
ENDBRANCH  16  18
ENDBRANCH   7  16
TORSDOF 4
ENDMDL
MODEL 4
REMARK VINA RESULT:      -7.0      1.519      2.548
REMARK  Name = 
REMARK  6 active torsions:
REMARK  status: ('A' for Active; 'I' for Inactive)
REMARK    1  A    between atoms: C_1  and  C_2
REMARK    2  A    between atoms: C_4  and  C_5
REMARK    3  A    between atoms: C_15  and  N_16
REMARK    4  A    between atoms: N_16  and  C_17
REMARK    5  A    between atoms: C_17  and  C_18
REMARK    6  A    between atoms: N_22  and  C_23
REMARK                            x       y       z     vdW  Elec       q    Type
REMARK                         _______ _______ _______ _____ _____    ______ ____
ROOT
ATOM      1  C   UNL     1       1.167   7.993  21.465  0.00  0.00    +0.000 C 
ATOM      2  C   UNL     1       1.727   8.005  20.067  0.00  0.00    +0.000 A 
ATOM      3  C   UNL     1       2.402   6.852  19.606  0.00  0.00    +0.000 A 
ATOM      4  C   UNL     1       2.898   6.767  18.297  0.00  0.00    +0.000 A 
ATOM      5  C   UNL     1       2.709   7.850  17.448  0.00  0.00    +0.000 A 
ATOM      6  C   UNL     1       2.138   9.028  17.923  0.00  0.00    +0.000 A 
ATOM      7  C   UNL     1       1.561   9.107  19.201  0.00  0.00    +0.000 A 
ENDROOT
BRANCH   4   8
ATOM      8  C   UNL     1       3.498   5.483  17.832  0.00  0.00    +0.000 C 
ATOM      9  O   UNL     1       2.713   4.591  17.510  0.00  0.00    +0.000 OA
ATOM     10  N   UNL     1       4.878   5.314  17.740  0.00  0.00    +0.000 N 
ATOM     11  C   UNL     1       5.948   6.161  18.277  0.00  0.00    +0.000 C 
ATOM     12  C   UNL     1       6.904   6.553  17.141  0.00  0.00    +0.000 C 
ATOM     13  O   UNL     1       7.444   5.381  16.504  0.00  0.00    +0.000 OA
ATOM     14  C   UNL     1       6.395   4.553  15.969  0.00  0.00    +0.000 C 
ATOM     15  C   UNL     1       5.401   4.129  17.059  0.00  0.00    +0.000 C 
ENDBRANCH   4   8
BRANCH   7  16
ATOM     16  N   UNL     1       0.901  10.283  19.630  0.00  0.00    +0.000 N 
ATOM     17  H   UNL     1       0.201  10.052  20.331  0.00  0.00    +0.000 HD
BRANCH  16  18
ATOM     18  C   UNL     1       0.299  11.092  18.556  0.00  0.00    +0.000 C 
BRANCH  18  19
ATOM     19  C   UNL     1      -1.123  10.786  18.208  0.00  0.00    +0.000 A 
ATOM     20  N   UNL     1      -1.499   9.896  17.306  0.00  0.00    +0.000 NA
ATOM     21  C   UNL     1      -2.860   9.983  17.231  0.00  0.00    +0.000 A 
ATOM     22  C   UNL     1      -3.331  10.926  18.111  0.00  0.00    +0.000 A 
ATOM     23  N   UNL     1      -2.218  11.432  18.728  0.00  0.00    +0.000 N 
ATOM     24  C   UNL     1      -2.216  12.472  19.726  0.00  0.00    +0.000 C 
ENDBRANCH  18  19
ENDBRANCH  16  18
ENDBRANCH   7  16
TORSDOF 4
ENDMDL
MODEL 5
REMARK VINA RESULT:      -7.0      2.495      4.154
REMARK  Name = 
REMARK  6 active torsions:
REMARK  status: ('A' for Active; 'I' for Inactive)
REMARK    1  A    between atoms: C_1  and  C_2
REMARK    2  A    between atoms: C_4  and  C_5
REMARK    3  A    between atoms: C_15  and  N_16
REMARK    4  A    between atoms: N_16  and  C_17
REMARK    5  A    between atoms: C_17  and  C_18
REMARK    6  A    between atoms: N_22  and  C_23
REMARK                            x       y       z     vdW  Elec       q    Type
REMARK                         _______ _______ _______ _____ _____    ______ ____
ROOT
ATOM      1  C   UNL     1       2.094   4.101  21.563  0.00  0.00    +0.000 C 
ATOM      2  C   UNL     1       2.455   4.888  20.330  0.00  0.00    +0.000 A 
ATOM      3  C   UNL     1       3.179   4.235  19.308  0.00  0.00    +0.000 A 
ATOM      4  C   UNL     1       3.501   4.884  18.107  0.00  0.00    +0.000 A 
ATOM      5  C   UNL     1       3.084   6.199  17.936  0.00  0.00    +0.000 A 
ATOM      6  C   UNL     1       2.462   6.883  18.977  0.00  0.00    +0.000 A 
ATOM      7  C   UNL     1       2.058   6.231  20.153  0.00  0.00    +0.000 A 
ENDROOT
BRANCH   4   8
ATOM      8  C   UNL     1       4.164   4.110  17.019  0.00  0.00    +0.000 C 
ATOM      9  O   UNL     1       3.466   3.295  16.416  0.00  0.00    +0.000 OA
ATOM     10  N   UNL     1       5.501   4.319  16.686  0.00  0.00    +0.000 N 
ATOM     11  C   UNL     1       6.528   5.066  17.420  0.00  0.00    +0.000 C 
ATOM     12  C   UNL     1       7.146   6.123  16.494  0.00  0.00    +0.000 C 
ATOM     13  O   UNL     1       7.699   5.507  15.317  0.00  0.00    +0.000 OA
ATOM     14  C   UNL     1       6.690   4.780  14.590  0.00  0.00    +0.000 C 
ATOM     15  C   UNL     1       6.029   3.707  15.466  0.00  0.00    +0.000 C 
ENDBRANCH   4   8
BRANCH   7  16
ATOM     16  N   UNL     1       1.341   6.921  21.160  0.00  0.00    +0.000 N 
ATOM     17  H   UNL     1       0.341   6.841  20.992  0.00  0.00    +0.000 HD
BRANCH  16  18
ATOM     18  C   UNL     1       1.715   8.335  21.338  0.00  0.00    +0.000 C 
BRANCH  18  19
ATOM     19  C   UNL     1       0.695   9.351  20.930  0.00  0.00    +0.000 A 
ATOM     20  N   UNL     1       0.535   9.799  19.697  0.00  0.00    +0.000 NA
ATOM     21  C   UNL     1      -0.430  10.764  19.767  0.00  0.00    +0.000 A 
ATOM     22  C   UNL     1      -0.882  10.900  21.057  0.00  0.00    +0.000 A 
ATOM     23  N   UNL     1      -0.161   9.997  21.789  0.00  0.00    +0.000 N 
ATOM     24  C   UNL     1      -0.276   9.792  23.212  0.00  0.00    +0.000 C 
ENDBRANCH  18  19
ENDBRANCH  16  18
ENDBRANCH   7  16
TORSDOF 4
ENDMDL
MODEL 6
REMARK VINA RESULT:      -7.0      2.252      3.872
REMARK  Name = 
REMARK  6 active torsions:
REMARK  status: ('A' for Active; 'I' for Inactive)
REMARK    1  A    between atoms: C_1  and  C_2
REMARK    2  A    between atoms: C_4  and  C_5
REMARK    3  A    between atoms: C_15  and  N_16
REMARK    4  A    between atoms: N_16  and  C_17
REMARK    5  A    between atoms: C_17  and  C_18
REMARK    6  A    between atoms: N_22  and  C_23
REMARK                            x       y       z     vdW  Elec       q    Type
REMARK                         _______ _______ _______ _____ _____    ______ ____
ROOT
ATOM      1  C   UNL     1       2.149   9.021  18.128  0.00  0.00    +0.000 C 
ATOM      2  C   UNL     1       2.395   7.637  18.668  0.00  0.00    +0.000 A 
ATOM      3  C   UNL     1       2.925   6.662  17.794  0.00  0.00    +0.000 A 
ATOM      4  C   UNL     1       3.235   5.368  18.239  0.00  0.00    +0.000 A 
ATOM      5  C   UNL     1       3.013   5.060  19.575  0.00  0.00    +0.000 A 
ATOM      6  C   UNL     1       2.395   5.980  20.419  0.00  0.00    +0.000 A 
ATOM      7  C   UNL     1       2.153   7.303  20.018  0.00  0.00    +0.000 A 
ENDROOT
BRANCH   4   8
ATOM      8  C   UNL     1       3.899   4.419  17.301  0.00  0.00    +0.000 C 
ATOM      9  O   UNL     1       3.185   3.559  16.786  0.00  0.00    +0.000 OA
ATOM     10  N   UNL     1       5.257   4.518  17.003  0.00  0.00    +0.000 N 
ATOM     11  C   UNL     1       6.292   5.313  17.672  0.00  0.00    +0.000 C 
ATOM     12  C   UNL     1       6.998   6.200  16.637  0.00  0.00    +0.000 C 
ATOM     13  O   UNL     1       7.564   5.400  15.583  0.00  0.00    +0.000 OA
ATOM     14  C   UNL     1       6.548   4.625  14.920  0.00  0.00    +0.000 C 
ATOM     15  C   UNL     1       5.800   3.717  15.905  0.00  0.00    +0.000 C 
ENDBRANCH   4   8
BRANCH   7  16
ATOM     16  N   UNL     1       1.612   8.250  20.921  0.00  0.00    +0.000 N 
ATOM     17  H   UNL     1       1.948   8.064  21.863  0.00  0.00    +0.000 HD
BRANCH  16  18
ATOM     18  C   UNL     1       0.143   8.353  20.916  0.00  0.00    +0.000 C 
BRANCH  18  19
ATOM     19  C   UNL     1      -0.429   9.731  20.804  0.00  0.00    +0.000 A 
ATOM     20  N   UNL     1      -0.657  10.358  19.663  0.00  0.00    +0.000 NA
ATOM     21  C   UNL     1      -1.096  11.607  19.998  0.00  0.00    +0.000 A 
ATOM     22  C   UNL     1      -1.157  11.746  21.362  0.00  0.00    +0.000 A 
ATOM     23  N   UNL     1      -0.731  10.547  21.867  0.00  0.00    +0.000 N 
ATOM     24  C   UNL     1      -0.606  10.227  23.267  0.00  0.00    +0.000 C 
ENDBRANCH  18  19
ENDBRANCH  16  18
ENDBRANCH   7  16
TORSDOF 4
ENDMDL
MODEL 7
REMARK VINA RESULT:      -7.0      1.270      1.808
REMARK  Name = 
REMARK  6 active torsions:
REMARK  status: ('A' for Active; 'I' for Inactive)
REMARK    1  A    between atoms: C_1  and  C_2
REMARK    2  A    between atoms: C_4  and  C_5
REMARK    3  A    between atoms: C_15  and  N_16
REMARK    4  A    between atoms: N_16  and  C_17
REMARK    5  A    between atoms: C_17  and  C_18
REMARK    6  A    between atoms: N_22  and  C_23
REMARK                            x       y       z     vdW  Elec       q    Type
REMARK                         _______ _______ _______ _____ _____    ______ ____
ROOT
ATOM      1  C   UNL     1       0.584   9.111  21.075  0.00  0.00    +0.000 C 
ATOM      2  C   UNL     1       1.405   8.606  19.918  0.00  0.00    +0.000 A 
ATOM      3  C   UNL     1       2.175   7.435  20.104  0.00  0.00    +0.000 A 
ATOM      4  C   UNL     1       2.918   6.872  19.056  0.00  0.00    +0.000 A 
ATOM      5  C   UNL     1       2.882   7.493  17.814  0.00  0.00    +0.000 A 
ATOM      6  C   UNL     1       2.211   8.702  17.648  0.00  0.00    +0.000 A 
ATOM      7  C   UNL     1       1.395   9.239  18.657  0.00  0.00    +0.000 A 
ENDROOT
BRANCH   4   8
ATOM      8  C   UNL     1       3.617   5.574  19.279  0.00  0.00    +0.000 C 
ATOM      9  O   UNL     1       4.844   5.614  19.369  0.00  0.00    +0.000 OA
ATOM     10  N   UNL     1       2.911   4.379  19.406  0.00  0.00    +0.000 N 
ATOM     11  C   UNL     1       1.501   4.105  19.112  0.00  0.00    +0.000 C 
ATOM     12  C   UNL     1       0.832   3.498  20.353  0.00  0.00    +0.000 C 
ATOM     13  O   UNL     1       1.514   2.300  20.764  0.00  0.00    +0.000 OA
ATOM     14  C   UNL     1       2.897   2.568  21.061  0.00  0.00    +0.000 C 
ATOM     15  C   UNL     1       3.623   3.182  19.856  0.00  0.00    +0.000 C 
ENDBRANCH   4   8
BRANCH   7  16
ATOM     16  N   UNL     1       0.646  10.419  18.436  0.00  0.00    +0.000 N 
ATOM     17  H   UNL     1       0.613  10.975  19.288  0.00  0.00    +0.000 HD
BRANCH  16  18
ATOM     18  C   UNL     1      -0.716  10.209  17.913  0.00  0.00    +0.000 C 
BRANCH  18  19
ATOM     19  C   UNL     1      -1.796  11.061  18.503  0.00  0.00    +0.000 A 
ATOM     20  N   UNL     1      -1.669  11.771  19.610  0.00  0.00    +0.000 NA
ATOM     21  C   UNL     1      -2.893  12.330  19.844  0.00  0.00    +0.000 A 
ATOM     22  C   UNL     1      -3.781  11.973  18.859  0.00  0.00    +0.000 A 
ATOM     23  N   UNL     1      -3.073  11.166  18.010  0.00  0.00    +0.000 N 
ATOM     24  C   UNL     1      -3.599  10.531  16.828  0.00  0.00    +0.000 C 
ENDBRANCH  18  19
ENDBRANCH  16  18
ENDBRANCH   7  16
TORSDOF 4
ENDMDL
MODEL 8
REMARK VINA RESULT:      -7.0      3.353      7.982
REMARK  Name = 
REMARK  6 active torsions:
REMARK  status: ('A' for Active; 'I' for Inactive)
REMARK    1  A    between atoms: C_1  and  C_2
REMARK    2  A    between atoms: C_4  and  C_5
REMARK    3  A    between atoms: C_15  and  N_16
REMARK    4  A    between atoms: N_16  and  C_17
REMARK    5  A    between atoms: C_17  and  C_18
REMARK    6  A    between atoms: N_22  and  C_23
REMARK                            x       y       z     vdW  Elec       q    Type
REMARK                         _______ _______ _______ _____ _____    ______ ____
ROOT
ATOM      1  C   UNL     1       3.048   7.511  17.582  0.00  0.00    +0.000 C 
ATOM      2  C   UNL     1       2.207   8.215  18.615  0.00  0.00    +0.000 A 
ATOM      3  C   UNL     1       1.575   9.426  18.251  0.00  0.00    +0.000 A 
ATOM      4  C   UNL     1       0.729  10.107  19.139  0.00  0.00    +0.000 A 
ATOM      5  C   UNL     1       0.519   9.562  20.399  0.00  0.00    +0.000 A 
ATOM      6  C   UNL     1       1.217   8.426  20.803  0.00  0.00    +0.000 A 
ATOM      7  C   UNL     1       2.002   7.684  19.906  0.00  0.00    +0.000 A 
ENDROOT
BRANCH   4   8
ATOM      8  C   UNL     1      -0.001  11.316  18.661  0.00  0.00    +0.000 C 
ATOM      9  O   UNL     1      -1.104  11.129  18.149  0.00  0.00    +0.000 OA
ATOM     10  N   UNL     1       0.531  12.596  18.812  0.00  0.00    +0.000 N 
ATOM     11  C   UNL     1       1.893  12.990  19.183  0.00  0.00    +0.000 C 
ATOM     12  C   UNL     1       1.837  13.931  20.395  0.00  0.00    +0.000 C 
ATOM     13  O   UNL     1       1.027  15.084  20.106  0.00  0.00    +0.000 OA
ATOM     14  C   UNL     1      -0.314  14.699  19.750  0.00  0.00    +0.000 C 
ATOM     15  C   UNL     1      -0.325  13.752  18.542  0.00  0.00    +0.000 C 
ENDBRANCH   4   8
BRANCH   7  16
ATOM     16  N   UNL     1       2.627   6.480  20.310  0.00  0.00    +0.000 N 
ATOM     17  H   UNL     1       3.280   6.170  19.594  0.00  0.00    +0.000 HD
BRANCH  16  18
ATOM     18  C   UNL     1       1.708   5.385  20.669  0.00  0.00    +0.000 C 
BRANCH  18  19
ATOM     19  C   UNL     1       1.769   4.157  19.817  0.00  0.00    +0.000 A 
ATOM     20  N   UNL     1       1.828   4.163  18.497  0.00  0.00    +0.000 NA
ATOM     21  C   UNL     1       1.784   2.854  18.110  0.00  0.00    +0.000 A 
ATOM     22  C   UNL     1       1.716   2.030  19.206  0.00  0.00    +0.000 A 
ATOM     23  N   UNL     1       1.707   2.868  20.288  0.00  0.00    +0.000 N 
ATOM     24  C   UNL     1       1.622   2.454  21.666  0.00  0.00    +0.000 C 
ENDBRANCH  18  19
ENDBRANCH  16  18
ENDBRANCH   7  16
TORSDOF 4
ENDMDL
MODEL 9
REMARK VINA RESULT:      -6.9      3.011      7.924
REMARK  Name = 
REMARK  6 active torsions:
REMARK  status: ('A' for Active; 'I' for Inactive)
REMARK    1  A    between atoms: C_1  and  C_2
REMARK    2  A    between atoms: C_4  and  C_5
REMARK    3  A    between atoms: C_15  and  N_16
REMARK    4  A    between atoms: N_16  and  C_17
REMARK    5  A    between atoms: C_17  and  C_18
REMARK    6  A    between atoms: N_22  and  C_23
REMARK                            x       y       z     vdW  Elec       q    Type
REMARK                         _______ _______ _______ _____ _____    ______ ____
ROOT
ATOM      1  C   UNL     1       1.610   3.951  20.791  0.00  0.00    +0.000 C 
ATOM      2  C   UNL     1       1.850   5.310  20.186  0.00  0.00    +0.000 A 
ATOM      3  C   UNL     1       1.362   6.444  20.873  0.00  0.00    +0.000 A 
ATOM      4  C   UNL     1       1.597   7.745  20.401  0.00  0.00    +0.000 A 
ATOM      5  C   UNL     1       2.331   7.899  19.232  0.00  0.00    +0.000 A 
ATOM      6  C   UNL     1       2.726   6.787  18.493  0.00  0.00    +0.000 A 
ATOM      7  C   UNL     1       2.575   5.481  18.987  0.00  0.00    +0.000 A 
ENDROOT
BRANCH   4   8
ATOM      8  C   UNL     1       1.159   8.905  21.228  0.00  0.00    +0.000 C 
ATOM      9  O   UNL     1       1.575   8.947  22.386  0.00  0.00    +0.000 OA
ATOM     10  N   UNL     1       0.341   9.905  20.706  0.00  0.00    +0.000 N 
ATOM     11  C   UNL     1      -0.417   9.914  19.451  0.00  0.00    +0.000 C 
ATOM     12  C   UNL     1      -0.034  11.156  18.634  0.00  0.00    +0.000 C 
ATOM     13  O   UNL     1      -0.275  12.356  19.391  0.00  0.00    +0.000 OA
ATOM     14  C   UNL     1       0.476  12.353  20.619  0.00  0.00    +0.000 C 
ATOM     15  C   UNL     1       0.139  11.130  21.482  0.00  0.00    +0.000 C 
ENDBRANCH   4   8
BRANCH   7  16
ATOM     16  N   UNL     1       3.069   4.368  18.265  0.00  0.00    +0.000 N 
ATOM     17  H   UNL     1       2.335   3.673  18.151  0.00  0.00    +0.000 HD
BRANCH  16  18
ATOM     18  C   UNL     1       4.278   3.742  18.828  0.00  0.00    +0.000 C 
BRANCH  18  19
ATOM     19  C   UNL     1       5.567   4.474  18.619  0.00  0.00    +0.000 A 
ATOM     20  N   UNL     1       6.209   5.142  19.561  0.00  0.00    +0.000 NA
ATOM     21  C   UNL     1       7.281   5.726  18.948  0.00  0.00    +0.000 A 
ATOM     22  C   UNL     1       7.309   5.398  17.614  0.00  0.00    +0.000 A 
ATOM     23  N   UNL     1       6.215   4.601  17.415  0.00  0.00    +0.000 N 
ATOM     24  C   UNL     1       5.817   4.027  16.154  0.00  0.00    +0.000 C 
ENDBRANCH  18  19
ENDBRANCH  16  18
ENDBRANCH   7  16
TORSDOF 4
ENDMDL
