MODEL 1
REMARK VINA RESULT:      -8.8      0.000      0.000
REMARK  Name = 
REMARK  7 active torsions:
REMARK  status: ('A' for Active; 'I' for Inactive)
REMARK    1  A    between atoms: C_1  and  C_2
REMARK    2  A    between atoms: C_5  and  O_6
REMARK    3  A    between atoms: O_6  and  C_7
REMARK    4  A    between atoms: C_11  and  O_12
REMARK    5  A    between atoms: C_15  and  O_16
REMARK    6  A    between atoms: O_16  and  C_17
REMARK    7  A    between atoms: C_21  and  C_22
REMARK                            x       y       z     vdW  Elec       q    Type
REMARK                         _______ _______ _______ _____ _____    ______ ____
ROOT
ATOM      1  C   UNL     1       0.654  10.276  19.743  0.00  0.00    +0.000 C 
ATOM      2  C   UNL     1       1.439   9.032  19.477  0.00  0.00    +0.000 A 
ATOM      3  C   UNL     1       2.195   8.881  18.312  0.00  0.00    +0.000 A 
ATOM      4  F   UNL     1       2.229   9.863  17.399  0.00  0.00    +0.000 F 
ATOM      5  C   UNL     1       2.920   7.713  18.120  0.00  0.00    +0.000 A 
ATOM      6  N   UNL     1       2.877   6.671  18.978  0.00  0.00    +0.000 NA
ATOM      7  C   UNL     1       2.130   6.812  20.096  0.00  0.00    +0.000 A 
ATOM      8  C   UNL     1       1.431   7.976  20.393  0.00  0.00    +0.000 A 
ATOM      9  F   UNL     1       0.733   8.083  21.532  0.00  0.00    +0.000 F 
ENDROOT
BRANCH   5  10
ATOM     10  O   UNL     1       3.698   7.611  16.974  0.00  0.00    +0.000 OA
BRANCH  10  11
ATOM     11  C   UNL     1       4.733   6.698  16.969  0.00  0.00    +0.000 A 
ATOM     12  C   UNL     1       6.012   7.203  17.213  0.00  0.00    +0.000 A 
ATOM     13  C   UNL     1       7.112   6.340  17.249  0.00  0.00    +0.000 A 
ATOM     14  C   UNL     1       6.939   4.972  17.038  0.00  0.00    +0.000 A 
ATOM     15  C   UNL     1       5.660   4.473  16.817  0.00  0.00    +0.000 A 
ATOM     16  C   UNL     1       4.558   5.320  16.807  0.00  0.00    +0.000 A 
BRANCH  15  17
ATOM     17  O   UNL     1       5.434   3.146  16.602  0.00  0.00    +0.000 OA
ATOM     18  H   UNL     1       4.992   2.779  17.382  0.00  0.00    +0.000 HD
ENDBRANCH  15  17
ENDBRANCH  10  11
ENDBRANCH   5  10
BRANCH   7  19
ATOM     19  O   UNL     1       2.072   5.754  20.992  0.00  0.00    +0.000 OA
BRANCH  19  20
ATOM     20  C   UNL     1       1.984   4.478  20.468  0.00  0.00    +0.000 A 
ATOM     21  C   UNL     1       0.714   4.002  20.147  0.00  0.00    +0.000 A 
ATOM     22  C   UNL     1       0.562   2.731  19.587  0.00  0.00    +0.000 A 
ATOM     23  C   UNL     1       1.686   1.936  19.335  0.00  0.00    +0.000 A 
ATOM     24  C   UNL     1       2.964   2.418  19.633  0.00  0.00    +0.000 A 
ATOM     25  C   UNL     1       3.110   3.689  20.190  0.00  0.00    +0.000 A 
BRANCH  24  26
ATOM     26  C   UNL     1       4.170   1.574  19.370  0.00  0.00    +0.000 C 
ATOM     27  N   UNL     1       5.225   1.585  20.120  0.00  0.00    +0.000 NA
ATOM     28  N   UNL     1       4.205   0.727  18.301  0.00  0.00    +0.000 N 
ATOM     29  H   UNL     1       5.146   2.264  20.879  0.00  0.00    +0.000 HD
ATOM     30  H   UNL     1       3.337   0.248  18.091  0.00  0.00    +0.000 HD
ATOM     31  H   UNL     1       4.986   0.083  18.392  0.00  0.00    +0.000 HD
ENDBRANCH  24  26
ENDBRANCH  19  20
ENDBRANCH   7  19
TORSDOF 6
ENDMDL
MODEL 2
REMARK VINA RESULT:      -8.8      2.750      6.115
REMARK  Name = 
REMARK  7 active torsions:
REMARK  status: ('A' for Active; 'I' for Inactive)
REMARK    1  A    between atoms: C_1  and  C_2
REMARK    2  A    between atoms: C_5  and  O_6
REMARK    3  A    between atoms: O_6  and  C_7
REMARK    4  A    between atoms: C_11  and  O_12
REMARK    5  A    between atoms: C_15  and  O_16
REMARK    6  A    between atoms: O_16  and  C_17
REMARK    7  A    between atoms: C_21  and  C_22
REMARK                            x       y       z     vdW  Elec       q    Type
REMARK                         _______ _______ _______ _____ _____    ______ ____
ROOT
ATOM      1  C   UNL     1       0.983   2.065  18.589  0.00  0.00    +0.000 C 
ATOM      2  C   UNL     1       1.955   3.058  19.141  0.00  0.00    +0.000 A 
ATOM      3  C   UNL     1       1.527   4.178  19.856  0.00  0.00    +0.000 A 
ATOM      4  F   UNL     1       0.218   4.387  20.062  0.00  0.00    +0.000 F 
ATOM      5  C   UNL     1       2.471   5.062  20.363  0.00  0.00    +0.000 A 
ATOM      6  N   UNL     1       3.796   4.932  20.137  0.00  0.00    +0.000 NA
ATOM      7  C   UNL     1       4.206   3.856  19.429  0.00  0.00    +0.000 A 
ATOM      8  C   UNL     1       3.330   2.892  18.947  0.00  0.00    +0.000 A 
ATOM      9  F   UNL     1       3.787   1.823  18.280  0.00  0.00    +0.000 F 
ENDROOT
BRANCH   5  10
ATOM     10  O   UNL     1       2.017   6.141  21.109  0.00  0.00    +0.000 OA
BRANCH  10  11
ATOM     11  C   UNL     1       1.714   7.311  20.443  0.00  0.00    +0.000 A 
ATOM     12  C   UNL     1       0.980   8.262  21.155  0.00  0.00    +0.000 A 
ATOM     13  C   UNL     1       0.652   9.485  20.561  0.00  0.00    +0.000 A 
ATOM     14  C   UNL     1       1.053   9.760  19.253  0.00  0.00    +0.000 A 
ATOM     15  C   UNL     1       1.801   8.818  18.558  0.00  0.00    +0.000 A 
ATOM     16  C   UNL     1       2.155   7.611  19.150  0.00  0.00    +0.000 A 
BRANCH  15  17
ATOM     17  O   UNL     1       2.216   9.033  17.277  0.00  0.00    +0.000 OA
ATOM     18  H   UNL     1       1.467   8.887  16.681  0.00  0.00    +0.000 HD
ENDBRANCH  15  17
ENDBRANCH  10  11
ENDBRANCH   5  10
BRANCH   7  19
ATOM     19  O   UNL     1       5.564   3.702  19.185  0.00  0.00    +0.000 OA
BRANCH  19  20
ATOM     20  C   UNL     1       6.152   4.565  18.280  0.00  0.00    +0.000 A 
ATOM     21  C   UNL     1       6.772   5.705  18.790  0.00  0.00    +0.000 A 
ATOM     22  C   UNL     1       7.409   6.602  17.928  0.00  0.00    +0.000 A 
ATOM     23  C   UNL     1       7.440   6.351  16.552  0.00  0.00    +0.000 A 
ATOM     24  C   UNL     1       6.841   5.197  16.037  0.00  0.00    +0.000 A 
ATOM     25  C   UNL     1       6.208   4.304  16.902  0.00  0.00    +0.000 A 
BRANCH  24  26
ATOM     26  C   UNL     1       6.866   4.923  14.568  0.00  0.00    +0.000 C 
ATOM     27  N   UNL     1       5.999   4.174  13.968  0.00  0.00    +0.000 NA
ATOM     28  N   UNL     1       7.829   5.477  13.775  0.00  0.00    +0.000 N 
ATOM     29  H   UNL     1       5.330   3.765  14.623  0.00  0.00    +0.000 HD
ATOM     30  H   UNL     1       8.091   6.429  14.002  0.00  0.00    +0.000 HD
ATOM     31  H   UNL     1       7.577   5.372  12.796  0.00  0.00    +0.000 HD
ENDBRANCH  24  26
ENDBRANCH  19  20
ENDBRANCH   7  19
TORSDOF 6
ENDMDL
MODEL 3
REMARK VINA RESULT:      -8.6      2.872      6.111
REMARK  Name = 
REMARK  7 active torsions:
REMARK  status: ('A' for Active; 'I' for Inactive)
REMARK    1  A    between atoms: C_1  and  C_2
REMARK    2  A    between atoms: C_5  and  O_6
REMARK    3  A    between atoms: O_6  and  C_7
REMARK    4  A    between atoms: C_11  and  O_12
REMARK    5  A    between atoms: C_15  and  O_16
REMARK    6  A    between atoms: O_16  and  C_17
REMARK    7  A    between atoms: C_21  and  C_22
REMARK                            x       y       z     vdW  Elec       q    Type
REMARK                         _______ _______ _______ _____ _____    ______ ____
ROOT
ATOM      1  C   UNL     1       1.092   1.853  19.166  0.00  0.00    +0.000 C 
ATOM      2  C   UNL     1       2.033   2.976  19.463  0.00  0.00    +0.000 A 
ATOM      3  C   UNL     1       1.574   4.203  19.948  0.00  0.00    +0.000 A 
ATOM      4  F   UNL     1       0.263   4.398  20.155  0.00  0.00    +0.000 F 
ATOM      5  C   UNL     1       2.489   5.210  20.224  0.00  0.00    +0.000 A 
ATOM      6  N   UNL     1       3.812   5.088  19.980  0.00  0.00    +0.000 NA
ATOM      7  C   UNL     1       4.251   3.906  19.494  0.00  0.00    +0.000 A 
ATOM      8  C   UNL     1       3.407   2.828  19.256  0.00  0.00    +0.000 A 
ATOM      9  F   UNL     1       3.895   1.663  18.807  0.00  0.00    +0.000 F 
ENDROOT
BRANCH   5  10
ATOM     10  O   UNL     1       2.007   6.402  20.748  0.00  0.00    +0.000 OA
BRANCH  10  11
ATOM     11  C   UNL     1       1.912   7.491  19.906  0.00  0.00    +0.000 A 
ATOM     12  C   UNL     1       2.407   7.324  18.611  0.00  0.00    +0.000 A 
ATOM     13  C   UNL     1       2.328   8.372  17.688  0.00  0.00    +0.000 A 
ATOM     14  C   UNL     1       1.756   9.590  18.056  0.00  0.00    +0.000 A 
ATOM     15  C   UNL     1       1.246   9.742  19.340  0.00  0.00    +0.000 A 
ATOM     16  C   UNL     1       1.296   8.697  20.255  0.00  0.00    +0.000 A 
BRANCH  15  17
ATOM     17  O   UNL     1       0.679  10.911  19.754  0.00  0.00    +0.000 OA
ATOM     18  H   UNL     1       1.380  11.569  19.871  0.00  0.00    +0.000 HD
ENDBRANCH  15  17
ENDBRANCH  10  11
ENDBRANCH   5  10
BRANCH   7  19
ATOM     19  O   UNL     1       5.607   3.758  19.237  0.00  0.00    +0.000 OA
BRANCH  19  20
ATOM     20  C   UNL     1       6.177   4.609  18.308  0.00  0.00    +0.000 A 
ATOM     21  C   UNL     1       6.799   5.761  18.789  0.00  0.00    +0.000 A 
ATOM     22  C   UNL     1       7.418   6.646  17.903  0.00  0.00    +0.000 A 
ATOM     23  C   UNL     1       7.428   6.373  16.530  0.00  0.00    +0.000 A 
ATOM     24  C   UNL     1       6.827   5.207  16.045  0.00  0.00    +0.000 A 
ATOM     25  C   UNL     1       6.212   4.325  16.934  0.00  0.00    +0.000 A 
BRANCH  24  26
ATOM     26  C   UNL     1       6.830   4.909  14.580  0.00  0.00    +0.000 C 
ATOM     27  N   UNL     1       5.972   4.126  14.010  0.00  0.00    +0.000 NA
ATOM     28  N   UNL     1       7.762   5.474  13.759  0.00  0.00    +0.000 N 
ATOM     29  H   UNL     1       5.327   3.711  14.685  0.00  0.00    +0.000 HD
ATOM     30  H   UNL     1       8.003   6.436  13.964  0.00  0.00    +0.000 HD
ATOM     31  H   UNL     1       7.494   5.346  12.787  0.00  0.00    +0.000 HD
ENDBRANCH  24  26
ENDBRANCH  19  20
ENDBRANCH   7  19
TORSDOF 6
ENDMDL
MODEL 4
REMARK VINA RESULT:      -8.6      2.629      5.500
REMARK  Name = 
REMARK  7 active torsions:
REMARK  status: ('A' for Active; 'I' for Inactive)
REMARK    1  A    between atoms: C_1  and  C_2
REMARK    2  A    between atoms: C_5  and  O_6
REMARK    3  A    between atoms: O_6  and  C_7
REMARK    4  A    between atoms: C_11  and  O_12
REMARK    5  A    between atoms: C_15  and  O_16
REMARK    6  A    between atoms: O_16  and  C_17
REMARK    7  A    between atoms: C_21  and  C_22
REMARK                            x       y       z     vdW  Elec       q    Type
REMARK                         _______ _______ _______ _____ _____    ______ ____
ROOT
ATOM      1  C   UNL     1       0.959   2.575  18.628  0.00  0.00    +0.000 C 
ATOM      2  C   UNL     1       1.789   3.803  18.820  0.00  0.00    +0.000 A 
ATOM      3  C   UNL     1       2.853   4.105  17.966  0.00  0.00    +0.000 A 
ATOM      4  F   UNL     1       3.153   3.286  16.948  0.00  0.00    +0.000 F 
ATOM      5  C   UNL     1       3.584   5.267  18.177  0.00  0.00    +0.000 A 
ATOM      6  N   UNL     1       3.362   6.096  19.219  0.00  0.00    +0.000 NA
ATOM      7  C   UNL     1       2.344   5.793  20.054  0.00  0.00    +0.000 A 
ATOM      8  C   UNL     1       1.524   4.686  19.871  0.00  0.00    +0.000 A 
ATOM      9  F   UNL     1       0.503   4.445  20.705  0.00  0.00    +0.000 F 
ENDROOT
BRANCH   5  10
ATOM     10  O   UNL     1       4.606   5.563  17.285  0.00  0.00    +0.000 OA
BRANCH  10  11
ATOM     11  C   UNL     1       5.816   5.984  17.798  0.00  0.00    +0.000 A 
ATOM     12  C   UNL     1       6.396   7.101  17.193  0.00  0.00    +0.000 A 
ATOM     13  C   UNL     1       7.610   7.606  17.669  0.00  0.00    +0.000 A 
ATOM     14  C   UNL     1       8.250   6.995  18.747  0.00  0.00    +0.000 A 
ATOM     15  C   UNL     1       7.657   5.896  19.358  0.00  0.00    +0.000 A 
ATOM     16  C   UNL     1       6.437   5.405  18.909  0.00  0.00    +0.000 A 
BRANCH  15  17
ATOM     17  O   UNL     1       8.240   5.259  20.413  0.00  0.00    +0.000 OA
ATOM     18  H   UNL     1       7.732   5.459  21.213  0.00  0.00    +0.000 HD
ENDBRANCH  15  17
ENDBRANCH  10  11
ENDBRANCH   5  10
BRANCH   7  19
ATOM     19  O   UNL     1       2.097   6.632  21.132  0.00  0.00    +0.000 OA
BRANCH  19  20
ATOM     20  C   UNL     1       1.304   7.742  20.908  0.00  0.00    +0.000 A 
ATOM     21  C   UNL     1       0.321   8.029  21.854  0.00  0.00    +0.000 A 
ATOM     22  C   UNL     1      -0.494   9.154  21.698  0.00  0.00    +0.000 A 
ATOM     23  C   UNL     1      -0.316  10.004  20.601  0.00  0.00    +0.000 A 
ATOM     24  C   UNL     1       0.685   9.734  19.662  0.00  0.00    +0.000 A 
ATOM     25  C   UNL     1       1.497   8.610  19.823  0.00  0.00    +0.000 A 
BRANCH  24  26
ATOM     26  C   UNL     1       0.880  10.634  18.485  0.00  0.00    +0.000 C 
ATOM     27  N   UNL     1      -0.082  11.292  17.923  0.00  0.00    +0.000 NA
ATOM     28  N   UNL     1       2.120  10.809  17.943  0.00  0.00    +0.000 N 
ATOM     29  H   UNL     1      -0.986  11.089  18.355  0.00  0.00    +0.000 HD
ATOM     30  H   UNL     1       2.886  10.856  18.604  0.00  0.00    +0.000 HD
ATOM     31  H   UNL     1       2.114  11.601  17.307  0.00  0.00    +0.000 HD
ENDBRANCH  24  26
ENDBRANCH  19  20
ENDBRANCH   7  19
TORSDOF 6
ENDMDL
MODEL 5
REMARK VINA RESULT:      -8.6      2.873      5.778
REMARK  Name = 
REMARK  7 active torsions:
REMARK  status: ('A' for Active; 'I' for Inactive)
REMARK    1  A    between atoms: C_1  and  C_2
REMARK    2  A    between atoms: C_5  and  O_6
REMARK    3  A    between atoms: O_6  and  C_7
REMARK    4  A    between atoms: C_11  and  O_12
REMARK    5  A    between atoms: C_15  and  O_16
REMARK    6  A    between atoms: O_16  and  C_17
REMARK    7  A    between atoms: C_21  and  C_22
REMARK                            x       y       z     vdW  Elec       q    Type
REMARK                         _______ _______ _______ _____ _____    ______ ____
ROOT
ATOM      1  C   UNL     1       0.648   2.418  18.674  0.00  0.00    +0.000 C 
ATOM      2  C   UNL     1       1.638   3.532  18.797  0.00  0.00    +0.000 A 
ATOM      3  C   UNL     1       2.769   3.597  17.981  0.00  0.00    +0.000 A 
ATOM      4  F   UNL     1       2.991   2.647  17.060  0.00  0.00    +0.000 F 
ATOM      5  C   UNL     1       3.650   4.661  18.123  0.00  0.00    +0.000 A 
ATOM      6  N   UNL     1       3.505   5.613  19.071  0.00  0.00    +0.000 NA
ATOM      7  C   UNL     1       2.419   5.538  19.872  0.00  0.00    +0.000 A 
ATOM      8  C   UNL     1       1.458   4.542  19.747  0.00  0.00    +0.000 A 
ATOM      9  F   UNL     1       0.378   4.529  20.541  0.00  0.00    +0.000 F 
ENDROOT
BRANCH   5  10
ATOM     10  O   UNL     1       4.740   4.723  17.267  0.00  0.00    +0.000 OA
BRANCH  10  11
ATOM     11  C   UNL     1       5.847   5.439  17.673  0.00  0.00    +0.000 A 
ATOM     12  C   UNL     1       6.112   6.624  16.983  0.00  0.00    +0.000 A 
ATOM     13  C   UNL     1       7.202   7.421  17.349  0.00  0.00    +0.000 A 
ATOM     14  C   UNL     1       8.032   7.035  18.402  0.00  0.00    +0.000 A 
ATOM     15  C   UNL     1       7.751   5.865  19.097  0.00  0.00    +0.000 A 
ATOM     16  C   UNL     1       6.654   5.082  18.758  0.00  0.00    +0.000 A 
BRANCH  15  17
ATOM     17  O   UNL     1       8.530   5.439  20.132  0.00  0.00    +0.000 OA
ATOM     18  H   UNL     1       7.961   5.020  20.794  0.00  0.00    +0.000 HD
ENDBRANCH  15  17
ENDBRANCH  10  11
ENDBRANCH   5  10
BRANCH   7  19
ATOM     19  O   UNL     1       2.250   6.505  20.852  0.00  0.00    +0.000 OA
BRANCH  19  20
ATOM     20  C   UNL     1       1.745   7.731  20.459  0.00  0.00    +0.000 A 
ATOM     21  C   UNL     1       1.926   8.102  19.127  0.00  0.00    +0.000 A 
ATOM     22  C   UNL     1       1.413   9.316  18.662  0.00  0.00    +0.000 A 
ATOM     23  C   UNL     1       0.705  10.157  19.528  0.00  0.00    +0.000 A 
ATOM     24  C   UNL     1       0.501   9.779  20.858  0.00  0.00    +0.000 A 
ATOM     25  C   UNL     1       1.013   8.565  21.318  0.00  0.00    +0.000 A 
BRANCH  24  26
ATOM     26  C   UNL     1      -0.251  10.673  21.791  0.00  0.00    +0.000 C 
ATOM     27  N   UNL     1      -0.233  10.538  23.078  0.00  0.00    +0.000 NA
ATOM     28  N   UNL     1      -1.004  11.704  21.309  0.00  0.00    +0.000 N 
ATOM     29  H   UNL     1       0.319   9.729  23.369  0.00  0.00    +0.000 HD
ATOM     30  H   UNL     1      -0.612  12.202  20.518  0.00  0.00    +0.000 HD
ATOM     31  H   UNL     1      -1.262  12.330  22.066  0.00  0.00    +0.000 HD
ENDBRANCH  24  26
ENDBRANCH  19  20
ENDBRANCH   7  19
TORSDOF 6
ENDMDL
MODEL 6
REMARK VINA RESULT:      -8.5      2.643      5.794
REMARK  Name = 
REMARK  7 active torsions:
REMARK  status: ('A' for Active; 'I' for Inactive)
REMARK    1  A    between atoms: C_1  and  C_2
REMARK    2  A    between atoms: C_5  and  O_6
REMARK    3  A    between atoms: O_6  and  C_7
REMARK    4  A    between atoms: C_11  and  O_12
REMARK    5  A    between atoms: C_15  and  O_16
REMARK    6  A    between atoms: O_16  and  C_17
REMARK    7  A    between atoms: C_21  and  C_22
REMARK                            x       y       z     vdW  Elec       q    Type
REMARK                         _______ _______ _______ _____ _____    ______ ____
ROOT
ATOM      1  C   UNL     1       1.084   1.791  18.996  0.00  0.00    +0.000 C 
ATOM      2  C   UNL     1       2.004   2.914  19.353  0.00  0.00    +0.000 A 
ATOM      3  C   UNL     1       3.383   2.819  19.154  0.00  0.00    +0.000 A 
ATOM      4  F   UNL     1       3.914   1.702  18.634  0.00  0.00    +0.000 F 
ATOM      5  C   UNL     1       4.194   3.896  19.487  0.00  0.00    +0.000 A 
ATOM      6  N   UNL     1       3.720   5.020  20.067  0.00  0.00    +0.000 NA
ATOM      7  C   UNL     1       2.387   5.103  20.275  0.00  0.00    +0.000 A 
ATOM      8  C   UNL     1       1.503   4.096  19.907  0.00  0.00    +0.000 A 
ATOM      9  F   UNL     1       0.185   4.238  20.101  0.00  0.00    +0.000 F 
ENDROOT
BRANCH   5  10
ATOM     10  O   UNL     1       5.555   3.789  19.235  0.00  0.00    +0.000 OA
BRANCH  10  11
ATOM     11  C   UNL     1       6.149   4.756  18.451  0.00  0.00    +0.000 A 
ATOM     12  C   UNL     1       7.082   5.583  19.080  0.00  0.00    +0.000 A 
ATOM     13  C   UNL     1       7.748   6.574  18.350  0.00  0.00    +0.000 A 
ATOM     14  C   UNL     1       7.481   6.742  16.991  0.00  0.00    +0.000 A 
ATOM     15  C   UNL     1       6.567   5.903  16.366  0.00  0.00    +0.000 A 
ATOM     16  C   UNL     1       5.921   4.898  17.078  0.00  0.00    +0.000 A 
BRANCH  15  17
ATOM     17  O   UNL     1       6.266   6.025  15.042  0.00  0.00    +0.000 OA
ATOM     18  H   UNL     1       6.991   5.646  14.525  0.00  0.00    +0.000 HD
ENDBRANCH  15  17
ENDBRANCH  10  11
ENDBRANCH   5  10
BRANCH   7  19
ATOM     19  O   UNL     1       1.879   6.250  20.868  0.00  0.00    +0.000 OA
BRANCH  19  20
ATOM     20  C   UNL     1       1.785   7.386  20.085  0.00  0.00    +0.000 A 
ATOM     21  C   UNL     1       2.185   7.282  18.754  0.00  0.00    +0.000 A 
ATOM     22  C   UNL     1       2.087   8.388  17.904  0.00  0.00    +0.000 A 
ATOM     23  C   UNL     1       1.574   9.598  18.383  0.00  0.00    +0.000 A 
ATOM     24  C   UNL     1       1.148   9.700  19.712  0.00  0.00    +0.000 A 
ATOM     25  C   UNL     1       1.247   8.593  20.555  0.00  0.00    +0.000 A 
BRANCH  24  26
ATOM     26  C   UNL     1       0.603  10.991  20.233  0.00  0.00    +0.000 C 
ATOM     27  N   UNL     1       0.609  11.313  21.486  0.00  0.00    +0.000 NA
ATOM     28  N   UNL     1       0.067  11.912  19.381  0.00  0.00    +0.000 N 
ATOM     29  H   UNL     1       0.990  10.566  22.070  0.00  0.00    +0.000 HD
ATOM     30  H   UNL     1       0.542  12.018  18.492  0.00  0.00    +0.000 HD
ATOM     31  H   UNL     1      -0.052  12.801  19.859  0.00  0.00    +0.000 HD
ENDBRANCH  24  26
ENDBRANCH  19  20
ENDBRANCH   7  19
TORSDOF 6
ENDMDL
MODEL 7
REMARK VINA RESULT:      -8.4      2.762      5.932
REMARK  Name = 
REMARK  7 active torsions:
REMARK  status: ('A' for Active; 'I' for Inactive)
REMARK    1  A    between atoms: C_1  and  C_2
REMARK    2  A    between atoms: C_5  and  O_6
REMARK    3  A    between atoms: O_6  and  C_7
REMARK    4  A    between atoms: C_11  and  O_12
REMARK    5  A    between atoms: C_15  and  O_16
REMARK    6  A    between atoms: O_16  and  C_17
REMARK    7  A    between atoms: C_21  and  C_22
REMARK                            x       y       z     vdW  Elec       q    Type
REMARK                         _______ _______ _______ _____ _____    ______ ____
ROOT
ATOM      1  C   UNL     1       0.897   2.112  18.840  0.00  0.00    +0.000 C 
ATOM      2  C   UNL     1       1.905   3.148  19.222  0.00  0.00    +0.000 A 
ATOM      3  C   UNL     1       3.270   2.955  18.998  0.00  0.00    +0.000 A 
ATOM      4  F   UNL     1       3.707   1.821  18.430  0.00  0.00    +0.000 F 
ATOM      5  C   UNL     1       4.165   3.955  19.355  0.00  0.00    +0.000 A 
ATOM      6  N   UNL     1       3.787   5.090  19.982  0.00  0.00    +0.000 NA
ATOM      7  C   UNL     1       2.468   5.266  20.214  0.00  0.00    +0.000 A 
ATOM      8  C   UNL     1       1.504   4.344  19.825  0.00  0.00    +0.000 A 
ATOM      9  F   UNL     1       0.203   4.578  20.045  0.00  0.00    +0.000 F 
ENDROOT
BRANCH   5  10
ATOM     10  O   UNL     1       5.511   3.754  19.078  0.00  0.00    +0.000 OA
BRANCH  10  11
ATOM     11  C   UNL     1       6.202   4.764  18.442  0.00  0.00    +0.000 A 
ATOM     12  C   UNL     1       5.934   4.945  17.084  0.00  0.00    +0.000 A 
ATOM     13  C   UNL     1       6.575   5.964  16.371  0.00  0.00    +0.000 A 
ATOM     14  C   UNL     1       7.488   6.802  17.012  0.00  0.00    +0.000 A 
ATOM     15  C   UNL     1       7.735   6.629  18.368  0.00  0.00    +0.000 A 
ATOM     16  C   UNL     1       7.081   5.638  19.091  0.00  0.00    +0.000 A 
BRANCH  15  17
ATOM     17  O   UNL     1       8.619   7.417  19.044  0.00  0.00    +0.000 OA
ATOM     18  H   UNL     1       9.128   6.860  19.650  0.00  0.00    +0.000 HD
ENDBRANCH  15  17
ENDBRANCH  10  11
ENDBRANCH   5  10
BRANCH   7  19
ATOM     19  O   UNL     1       2.056   6.426  20.856  0.00  0.00    +0.000 OA
BRANCH  19  20
ATOM     20  C   UNL     1       1.843   7.547  20.074  0.00  0.00    +0.000 A 
ATOM     21  C   UNL     1       2.393   7.550  18.793  0.00  0.00    +0.000 A 
ATOM     22  C   UNL     1       2.188   8.641  17.944  0.00  0.00    +0.000 A 
ATOM     23  C   UNL     1       1.418   9.728  18.373  0.00  0.00    +0.000 A 
ATOM     24  C   UNL     1       0.844   9.720  19.648  0.00  0.00    +0.000 A 
ATOM     25  C   UNL     1       1.051   8.627  20.491  0.00  0.00    +0.000 A 
BRANCH  24  26
ATOM     26  C   UNL     1       0.024  10.879  20.116  0.00  0.00    +0.000 C 
ATOM     27  N   UNL     1      -0.389  11.822  19.332  0.00  0.00    +0.000 NA
ATOM     28  N   UNL     1      -0.339  10.988  21.427  0.00  0.00    +0.000 N 
ATOM     29  H   UNL     1      -0.054  11.698  18.376  0.00  0.00    +0.000 HD
ATOM     30  H   UNL     1      -0.586  10.121  21.888  0.00  0.00    +0.000 HD
ATOM     31  H   UNL     1      -1.060  11.696  21.531  0.00  0.00    +0.000 HD
ENDBRANCH  24  26
ENDBRANCH  19  20
ENDBRANCH   7  19
TORSDOF 6
ENDMDL
MODEL 8
REMARK VINA RESULT:      -8.4      1.695      4.975
REMARK  Name = 
REMARK  7 active torsions:
REMARK  status: ('A' for Active; 'I' for Inactive)
REMARK    1  A    between atoms: C_1  and  C_2
REMARK    2  A    between atoms: C_5  and  O_6
REMARK    3  A    between atoms: O_6  and  C_7
REMARK    4  A    between atoms: C_11  and  O_12
REMARK    5  A    between atoms: C_15  and  O_16
REMARK    6  A    between atoms: O_16  and  C_17
REMARK    7  A    between atoms: C_21  and  C_22
REMARK                            x       y       z     vdW  Elec       q    Type
REMARK                         _______ _______ _______ _____ _____    ______ ____
ROOT
ATOM      1  C   UNL     1       0.669  10.185  19.707  0.00  0.00    +0.000 C 
ATOM      2  C   UNL     1       1.425   8.932  19.403  0.00  0.00    +0.000 A 
ATOM      3  C   UNL     1       1.436   7.853  20.289  0.00  0.00    +0.000 A 
ATOM      4  F   UNL     1       0.761   7.924  21.446  0.00  0.00    +0.000 F 
ATOM      5  C   UNL     1       2.141   6.704  19.953  0.00  0.00    +0.000 A 
ATOM      6  N   UNL     1       2.884   6.601  18.831  0.00  0.00    +0.000 NA
ATOM      7  C   UNL     1       2.886   7.653  17.982  0.00  0.00    +0.000 A 
ATOM      8  C   UNL     1       2.153   8.810  18.215  0.00  0.00    +0.000 A 
ATOM      9  F   UNL     1       2.158   9.814  17.327  0.00  0.00    +0.000 F 
ENDROOT
BRANCH   5  10
ATOM     10  O   UNL     1       2.095   5.632  20.833  0.00  0.00    +0.000 OA
BRANCH  10  11
ATOM     11  C   UNL     1       2.121   4.357  20.307  0.00  0.00    +0.000 A 
ATOM     12  C   UNL     1       0.890   3.805  19.946  0.00  0.00    +0.000 A 
ATOM     13  C   UNL     1       0.832   2.526  19.383  0.00  0.00    +0.000 A 
ATOM     14  C   UNL     1       2.002   1.793  19.182  0.00  0.00    +0.000 A 
ATOM     15  C   UNL     1       3.226   2.356  19.525  0.00  0.00    +0.000 A 
ATOM     16  C   UNL     1       3.295   3.638  20.059  0.00  0.00    +0.000 A 
BRANCH  15  17
ATOM     17  O   UNL     1       4.400   1.684  19.353  0.00  0.00    +0.000 OA
ATOM     18  H   UNL     1       4.608   1.663  18.408  0.00  0.00    +0.000 HD
ENDBRANCH  15  17
ENDBRANCH  10  11
ENDBRANCH   5  10
BRANCH   7  19
ATOM     19  O   UNL     1       3.643   7.567  16.822  0.00  0.00    +0.000 OA
BRANCH  19  20
ATOM     20  C   UNL     1       4.788   6.793  16.862  0.00  0.00    +0.000 A 
ATOM     21  C   UNL     1       4.978   5.876  15.829  0.00  0.00    +0.000 A 
ATOM     22  C   UNL     1       6.130   5.085  15.798  0.00  0.00    +0.000 A 
ATOM     23  C   UNL     1       7.102   5.220  16.795  0.00  0.00    +0.000 A 
ATOM     24  C   UNL     1       6.927   6.156  17.820  0.00  0.00    +0.000 A 
ATOM     25  C   UNL     1       5.776   6.945  17.846  0.00  0.00    +0.000 A 
BRANCH  24  26
ATOM     26  C   UNL     1       7.959   6.304  18.892  0.00  0.00    +0.000 C 
ATOM     27  N   UNL     1       8.281   5.353  19.708  0.00  0.00    +0.000 NA
ATOM     28  N   UNL     1       8.627   7.483  19.052  0.00  0.00    +0.000 N 
ATOM     29  H   UNL     1       7.720   4.514  19.555  0.00  0.00    +0.000 HD
ATOM     30  H   UNL     1       8.876   7.967  18.198  0.00  0.00    +0.000 HD
ATOM     31  H   UNL     1       9.428   7.349  19.663  0.00  0.00    +0.000 HD
ENDBRANCH  24  26
ENDBRANCH  19  20
ENDBRANCH   7  19
TORSDOF 6
ENDMDL
MODEL 9
REMARK VINA RESULT:      -8.4      3.508      6.593
REMARK  Name = 
REMARK  7 active torsions:
REMARK  status: ('A' for Active; 'I' for Inactive)
REMARK    1  A    between atoms: C_1  and  C_2
REMARK    2  A    between atoms: C_5  and  O_6
REMARK    3  A    between atoms: O_6  and  C_7
REMARK    4  A    between atoms: C_11  and  O_12
REMARK    5  A    between atoms: C_15  and  O_16
REMARK    6  A    between atoms: O_16  and  C_17
REMARK    7  A    between atoms: C_21  and  C_22
REMARK                            x       y       z     vdW  Elec       q    Type
REMARK                         _______ _______ _______ _____ _____    ______ ____
ROOT
ATOM      1  C   UNL     1       3.589   8.245  17.449  0.00  0.00    +0.000 C 
ATOM      2  C   UNL     1       3.930   6.802  17.258  0.00  0.00    +0.000 A 
ATOM      3  C   UNL     1       3.049   5.788  17.638  0.00  0.00    +0.000 A 
ATOM      4  F   UNL     1       1.866   6.094  18.191  0.00  0.00    +0.000 F 
ATOM      5  C   UNL     1       3.406   4.462  17.424  0.00  0.00    +0.000 A 
ATOM      6  N   UNL     1       4.606   4.096  16.925  0.00  0.00    +0.000 NA
ATOM      7  C   UNL     1       5.464   5.079  16.574  0.00  0.00    +0.000 A 
ATOM      8  C   UNL     1       5.154   6.428  16.694  0.00  0.00    +0.000 A 
ATOM      9  F   UNL     1       6.024   7.368  16.299  0.00  0.00    +0.000 F 
ENDROOT
BRANCH   5  10
ATOM     10  O   UNL     1       2.490   3.478  17.770  0.00  0.00    +0.000 OA
BRANCH  10  11
ATOM     11  C   UNL     1       2.411   3.100  19.095  0.00  0.00    +0.000 A 
ATOM     12  C   UNL     1       1.183   3.300  19.729  0.00  0.00    +0.000 A 
ATOM     13  C   UNL     1       1.013   2.921  21.065  0.00  0.00    +0.000 A 
ATOM     14  C   UNL     1       2.069   2.346  21.772  0.00  0.00    +0.000 A 
ATOM     15  C   UNL     1       3.282   2.131  21.129  0.00  0.00    +0.000 A 
ATOM     16  C   UNL     1       3.451   2.478  19.793  0.00  0.00    +0.000 A 
BRANCH  15  17
ATOM     17  O   UNL     1       4.348   1.575  21.772  0.00  0.00    +0.000 OA
ATOM     18  H   UNL     1       5.099   1.552  21.161  0.00  0.00    +0.000 HD
ENDBRANCH  15  17
ENDBRANCH  10  11
ENDBRANCH   5  10
BRANCH   7  19
ATOM     19  O   UNL     1       6.703   4.725  16.058  0.00  0.00    +0.000 OA
BRANCH  19  20
ATOM     20  C   UNL     1       6.815   4.620  14.683  0.00  0.00    +0.000 A 
ATOM     21  C   UNL     1       7.757   5.432  14.053  0.00  0.00    +0.000 A 
ATOM     22  C   UNL     1       7.938   5.352  12.669  0.00  0.00    +0.000 A 
ATOM     23  C   UNL     1       7.185   4.446  11.915  0.00  0.00    +0.000 A 
ATOM     24  C   UNL     1       6.256   3.612  12.545  0.00  0.00    +0.000 A 
ATOM     25  C   UNL     1       6.080   3.695  13.927  0.00  0.00    +0.000 A 
BRANCH  24  26
ATOM     26  C   UNL     1       5.444   2.644  11.746  0.00  0.00    +0.000 C 
ATOM     27  N   UNL     1       5.855   1.458  11.432  0.00  0.00    +0.000 NA
ATOM     28  N   UNL     1       4.196   2.980  11.309  0.00  0.00    +0.000 N 
ATOM     29  H   UNL     1       6.807   1.285  11.759  0.00  0.00    +0.000 HD
ATOM     30  H   UNL     1       3.636   3.523  11.955  0.00  0.00    +0.000 HD
ATOM     31  H   UNL     1       3.707   2.152  10.980  0.00  0.00    +0.000 HD
ENDBRANCH  24  26
ENDBRANCH  19  20
ENDBRANCH   7  19
TORSDOF 6
ENDMDL
