MODEL 1
REMARK VINA RESULT:      -7.1      0.000      0.000
REMARK  Name = 
REMARK  7 active torsions:
REMARK  status: ('A' for Active; 'I' for Inactive)
REMARK    1  A    between atoms: C_1  and  O_2
REMARK    2  A    between atoms: O_2  and  C_3
REMARK    3  A    between atoms: C_6  and  C_7
REMARK    4  A    between atoms: C_7  and  N_8
REMARK    5  A    between atoms: C_9  and  C_11
REMARK    6  A    between atoms: C_11  and  C_12
REMARK    7  A    between atoms: C_14  and  C_15
REMARK                            x       y       z     vdW  Elec       q    Type
REMARK                         _______ _______ _______ _____ _____    ______ ____
ROOT
ATOM      1  N   UNL     1       3.999   5.775  18.341  0.00  0.00    +0.000 N 
ATOM      2  C   UNL     1       4.891   4.724  18.334  0.00  0.00    +0.000 C 
ATOM      3  O   UNL     1       4.956   3.900  19.242  0.00  0.00    +0.000 OA
ATOM      4  H   UNL     1       3.955   6.433  17.572  0.00  0.00    +0.000 HD
ENDROOT
BRANCH   2   5
ATOM      5  C   UNL     1       5.798   4.645  17.134  0.00  0.00    +0.000 C 
ATOM      6  C   UNL     1       5.243   4.775  15.911  0.00  0.00    +0.000 C 
BRANCH   6   7
ATOM      7  C   UNL     1       5.978   4.656  14.694  0.00  0.00    +0.000 A 
ATOM      8  C   UNL     1       5.801   3.765  13.639  0.00  0.00    +0.000 A 
ATOM      9  C   UNL     1       6.808   4.018  12.672  0.00  0.00    +0.000 A 
ATOM     10  C   UNL     1       7.549   5.058  13.171  0.00  0.00    +0.000 A 
ATOM     11  O   UNL     1       7.060   5.445  14.368  0.00  0.00    +0.000 OA
ENDBRANCH   6   7
BRANCH   5  12
ATOM     12  C   UNL     1       7.184   4.429  17.361  0.00  0.00    +0.000 C 
ATOM     13  N   UNL     1       8.290   4.229  17.649  0.00  0.00    +0.000 NA
ENDBRANCH   5  12
ENDBRANCH   2   5
BRANCH   1  14
ATOM     14  C   UNL     1       3.054   6.008  19.412  0.00  0.00    +0.000 C 
BRANCH  14  18
ATOM     15  C   UNL     1       1.057   9.819  18.922  0.00  0.00    +0.000 A 
ATOM     16  C   UNL     1       1.026   9.158  20.151  0.00  0.00    +0.000 A 
ATOM     17  C   UNL     1       1.675   7.931  20.316  0.00  0.00    +0.000 A 
ATOM     18  C   UNL     1       2.359   7.337  19.247  0.00  0.00    +0.000 A 
ATOM     19  C   UNL     1       2.364   7.994  18.008  0.00  0.00    +0.000 A 
ATOM     20  C   UNL     1       1.720   9.228  17.847  0.00  0.00    +0.000 A 
BRANCH  15  22
ATOM     21  C   UNL     1      -1.008  10.916  18.564  0.00  0.00    +0.000 C 
ATOM     22  O   UNL     1       0.377  11.005  18.879  0.00  0.00    +0.000 OA
ENDBRANCH  15  22
ENDBRANCH  14  18
ENDBRANCH   1  14
TORSDOF 6
ENDMDL
MODEL 2
REMARK VINA RESULT:      -7.0      0.507      1.165
REMARK  Name = 
REMARK  7 active torsions:
REMARK  status: ('A' for Active; 'I' for Inactive)
REMARK    1  A    between atoms: C_1  and  O_2
REMARK    2  A    between atoms: O_2  and  C_3
REMARK    3  A    between atoms: C_6  and  C_7
REMARK    4  A    between atoms: C_7  and  N_8
REMARK    5  A    between atoms: C_9  and  C_11
REMARK    6  A    between atoms: C_11  and  C_12
REMARK    7  A    between atoms: C_14  and  C_15
REMARK                            x       y       z     vdW  Elec       q    Type
REMARK                         _______ _______ _______ _____ _____    ______ ____
ROOT
ATOM      1  N   UNL     1       3.981   5.544  18.074  0.00  0.00    +0.000 N 
ATOM      2  C   UNL     1       4.595   4.351  17.756  0.00  0.00    +0.000 C 
ATOM      3  O   UNL     1       4.348   3.299  18.338  0.00  0.00    +0.000 OA
ATOM      4  H   UNL     1       4.192   6.396  17.568  0.00  0.00    +0.000 HD
ENDROOT
BRANCH   2   5
ATOM      5  C   UNL     1       5.605   4.415  16.641  0.00  0.00    +0.000 C 
ATOM      6  C   UNL     1       5.147   4.464  15.373  0.00  0.00    +0.000 C 
BRANCH   6   7
ATOM      7  C   UNL     1       5.995   4.462  14.225  0.00  0.00    +0.000 A 
ATOM      8  C   UNL     1       5.991   3.608  13.126  0.00  0.00    +0.000 A 
ATOM      9  C   UNL     1       7.055   3.987  12.267  0.00  0.00    +0.000 A 
ATOM     10  C   UNL     1       7.656   5.062  12.872  0.00  0.00    +0.000 A 
ATOM     11  O   UNL     1       7.029   5.351  14.031  0.00  0.00    +0.000 OA
ENDBRANCH   6   7
BRANCH   5  12
ATOM     12  C   UNL     1       6.983   4.409  16.990  0.00  0.00    +0.000 C 
ATOM     13  N   UNL     1       8.125   4.346  17.184  0.00  0.00    +0.000 NA
ENDBRANCH   5  12
ENDBRANCH   2   5
BRANCH   1  14
ATOM     14  C   UNL     1       2.986   5.671  19.118  0.00  0.00    +0.000 C 
BRANCH  14  18
ATOM     15  C   UNL     1       1.166   9.600  19.085  0.00  0.00    +0.000 A 
ATOM     16  C   UNL     1       1.751   9.083  17.929  0.00  0.00    +0.000 A 
ATOM     17  C   UNL     1       2.334   7.812  17.932  0.00  0.00    +0.000 A 
ATOM     18  C   UNL     1       2.351   7.039  19.101  0.00  0.00    +0.000 A 
ATOM     19  C   UNL     1       1.783   7.576  20.266  0.00  0.00    +0.000 A 
ATOM     20  C   UNL     1       1.192   8.847  20.258  0.00  0.00    +0.000 A 
BRANCH  15  22
ATOM     21  C   UNL     1      -0.673  10.928  18.413  0.00  0.00    +0.000 C 
ATOM     22  O   UNL     1       0.638  10.857  18.962  0.00  0.00    +0.000 OA
ENDBRANCH  15  22
ENDBRANCH  14  18
ENDBRANCH   1  14
TORSDOF 6
ENDMDL
MODEL 3
REMARK VINA RESULT:      -6.7      3.320      4.615
REMARK  Name = 
REMARK  7 active torsions:
REMARK  status: ('A' for Active; 'I' for Inactive)
REMARK    1  A    between atoms: C_1  and  O_2
REMARK    2  A    between atoms: O_2  and  C_3
REMARK    3  A    between atoms: C_6  and  C_7
REMARK    4  A    between atoms: C_7  and  N_8
REMARK    5  A    between atoms: C_9  and  C_11
REMARK    6  A    between atoms: C_11  and  C_12
REMARK    7  A    between atoms: C_14  and  C_15
REMARK                            x       y       z     vdW  Elec       q    Type
REMARK                         _______ _______ _______ _____ _____    ______ ____
ROOT
ATOM      1  N   UNL     1       6.425   4.378  16.966  0.00  0.00    +0.000 N 
ATOM      2  C   UNL     1       6.930   5.236  16.012  0.00  0.00    +0.000 C 
ATOM      3  O   UNL     1       7.498   6.286  16.295  0.00  0.00    +0.000 OA
ATOM      4  H   UNL     1       5.974   3.509  16.707  0.00  0.00    +0.000 HD
ENDROOT
BRANCH   2   5
ATOM      5  C   UNL     1       6.738   4.806  14.582  0.00  0.00    +0.000 C 
ATOM      6  C   UNL     1       5.768   3.908  14.315  0.00  0.00    +0.000 C 
BRANCH   6   7
ATOM      7  C   UNL     1       5.524   3.371  13.015  0.00  0.00    +0.000 A 
ATOM      8  C   UNL     1       4.481   3.638  12.131  0.00  0.00    +0.000 A 
ATOM      9  C   UNL     1       4.657   2.825  10.982  0.00  0.00    +0.000 A 
ATOM     10  C   UNL     1       5.804   2.107  11.206  0.00  0.00    +0.000 A 
ATOM     11  O   UNL     1       6.325   2.429  12.408  0.00  0.00    +0.000 OA
ENDBRANCH   6   7
BRANCH   5  12
ATOM     12  C   UNL     1       7.598   5.366  13.597  0.00  0.00    +0.000 C 
ATOM     13  N   UNL     1       8.294   5.726  12.742  0.00  0.00    +0.000 NA
ENDBRANCH   5  12
ENDBRANCH   2   5
BRANCH   1  14
ATOM     14  C   UNL     1       6.518   4.629  18.389  0.00  0.00    +0.000 C 
BRANCH  14  18
ATOM     15  C   UNL     1       2.650   4.236  20.295  0.00  0.00    +0.000 A 
ATOM     16  C   UNL     1       3.462   3.117  20.107  0.00  0.00    +0.000 A 
ATOM     17  C   UNL     1       4.715   3.239  19.499  0.00  0.00    +0.000 A 
ATOM     18  C   UNL     1       5.173   4.488  19.056  0.00  0.00    +0.000 A 
ATOM     19  C   UNL     1       4.341   5.603  19.225  0.00  0.00    +0.000 A 
ATOM     20  C   UNL     1       3.089   5.480  19.843  0.00  0.00    +0.000 A 
BRANCH  15  22
ATOM     21  C   UNL     1       1.291   2.700  21.473  0.00  0.00    +0.000 C 
ATOM     22  O   UNL     1       1.444   3.989  20.891  0.00  0.00    +0.000 OA
ENDBRANCH  15  22
ENDBRANCH  14  18
ENDBRANCH   1  14
TORSDOF 6
ENDMDL
MODEL 4
REMARK VINA RESULT:      -6.6      0.944      1.561
REMARK  Name = 
REMARK  7 active torsions:
REMARK  status: ('A' for Active; 'I' for Inactive)
REMARK    1  A    between atoms: C_1  and  O_2
REMARK    2  A    between atoms: O_2  and  C_3
REMARK    3  A    between atoms: C_6  and  C_7
REMARK    4  A    between atoms: C_7  and  N_8
REMARK    5  A    between atoms: C_9  and  C_11
REMARK    6  A    between atoms: C_11  and  C_12
REMARK    7  A    between atoms: C_14  and  C_15
REMARK                            x       y       z     vdW  Elec       q    Type
REMARK                         _______ _______ _______ _____ _____    ______ ____
ROOT
ATOM      1  N   UNL     1       3.537   4.527  17.596  0.00  0.00    +0.000 N 
ATOM      2  C   UNL     1       4.876   4.504  17.924  0.00  0.00    +0.000 C 
ATOM      3  O   UNL     1       5.276   4.492  19.084  0.00  0.00    +0.000 OA
ATOM      4  H   UNL     1       3.232   4.520  16.630  0.00  0.00    +0.000 HD
ENDROOT
BRANCH   2   5
ATOM      5  C   UNL     1       5.832   4.498  16.762  0.00  0.00    +0.000 C 
ATOM      6  C   UNL     1       5.321   4.618  15.519  0.00  0.00    +0.000 C 
BRANCH   6   7
ATOM      7  C   UNL     1       6.110   4.564  14.331  0.00  0.00    +0.000 A 
ATOM      8  C   UNL     1       6.014   3.695  13.247  0.00  0.00    +0.000 A 
ATOM      9  C   UNL     1       7.049   4.016  12.331  0.00  0.00    +0.000 A 
ATOM     10  C   UNL     1       7.724   5.072  12.887  0.00  0.00    +0.000 A 
ATOM     11  O   UNL     1       7.170   5.405  14.072  0.00  0.00    +0.000 OA
ENDBRANCH   6   7
BRANCH   5  12
ATOM     12  C   UNL     1       7.219   4.358  17.042  0.00  0.00    +0.000 C 
ATOM     13  N   UNL     1       8.344   4.335  17.327  0.00  0.00    +0.000 NA
ENDBRANCH   5  12
ENDBRANCH   2   5
BRANCH   1  14
ATOM     14  C   UNL     1       2.477   4.535  18.582  0.00  0.00    +0.000 C 
BRANCH  14  18
ATOM     15  C   UNL     1       1.575   8.565  19.884  0.00  0.00    +0.000 A 
ATOM     16  C   UNL     1       2.001   8.324  18.577  0.00  0.00    +0.000 A 
ATOM     17  C   UNL     1       2.286   7.023  18.149  0.00  0.00    +0.000 A 
ATOM     18  C   UNL     1       2.161   5.940  19.030  0.00  0.00    +0.000 A 
ATOM     19  C   UNL     1       1.758   6.194  20.349  0.00  0.00    +0.000 A 
ATOM     20  C   UNL     1       1.464   7.497  20.773  0.00  0.00    +0.000 A 
BRANCH  15  22
ATOM     21  C   UNL     1       0.966  10.711  19.095  0.00  0.00    +0.000 C 
ATOM     22  O   UNL     1       1.337   9.878  20.188  0.00  0.00    +0.000 OA
ENDBRANCH  15  22
ENDBRANCH  14  18
ENDBRANCH   1  14
TORSDOF 6
ENDMDL
MODEL 5
REMARK VINA RESULT:      -6.6      0.941      1.097
REMARK  Name = 
REMARK  7 active torsions:
REMARK  status: ('A' for Active; 'I' for Inactive)
REMARK    1  A    between atoms: C_1  and  O_2
REMARK    2  A    between atoms: O_2  and  C_3
REMARK    3  A    between atoms: C_6  and  C_7
REMARK    4  A    between atoms: C_7  and  N_8
REMARK    5  A    between atoms: C_9  and  C_11
REMARK    6  A    between atoms: C_11  and  C_12
REMARK    7  A    between atoms: C_14  and  C_15
REMARK                            x       y       z     vdW  Elec       q    Type
REMARK                         _______ _______ _______ _____ _____    ______ ____
ROOT
ATOM      1  N   UNL     1       4.396   5.574  18.328  0.00  0.00    +0.000 N 
ATOM      2  C   UNL     1       4.524   4.395  17.624  0.00  0.00    +0.000 C 
ATOM      3  O   UNL     1       3.849   3.399  17.866  0.00  0.00    +0.000 OA
ATOM      4  H   UNL     1       4.954   6.387  18.099  0.00  0.00    +0.000 HD
ENDROOT
BRANCH   2   5
ATOM      5  C   UNL     1       5.556   4.399  16.528  0.00  0.00    +0.000 C 
ATOM      6  C   UNL     1       5.124   4.390  15.250  0.00  0.00    +0.000 C 
BRANCH   6   7
ATOM      7  C   UNL     1       5.996   4.329  14.121  0.00  0.00    +0.000 A 
ATOM      8  C   UNL     1       7.105   5.114  13.819  0.00  0.00    +0.000 A 
ATOM      9  C   UNL     1       7.617   4.692  12.565  0.00  0.00    +0.000 A 
ATOM     10  C   UNL     1       6.808   3.661  12.161  0.00  0.00    +0.000 A 
ATOM     11  O   UNL     1       5.847   3.438  13.081  0.00  0.00    +0.000 OA
ENDBRANCH   6   7
BRANCH   5  12
ATOM     12  C   UNL     1       6.927   4.402  16.905  0.00  0.00    +0.000 C 
ATOM     13  N   UNL     1       8.026   4.311  17.267  0.00  0.00    +0.000 NA
ENDBRANCH   5  12
ENDBRANCH   2   5
BRANCH   1  14
ATOM     14  C   UNL     1       3.455   5.752  19.414  0.00  0.00    +0.000 C 
BRANCH  14  18
ATOM     15  C   UNL     1       1.179   9.401  18.915  0.00  0.00    +0.000 A 
ATOM     16  C   UNL     1       1.174   8.727  20.137  0.00  0.00    +0.000 A 
ATOM     17  C   UNL     1       1.913   7.552  20.306  0.00  0.00    +0.000 A 
ATOM     18  C   UNL     1       2.663   7.024  19.246  0.00  0.00    +0.000 A 
ATOM     19  C   UNL     1       2.642   7.692  18.013  0.00  0.00    +0.000 A 
ATOM     20  C   UNL     1       1.908   8.875  17.849  0.00  0.00    +0.000 A 
BRANCH  15  22
ATOM     21  C   UNL     1      -0.569  10.660  19.893  0.00  0.00    +0.000 C 
ATOM     22  O   UNL     1       0.410  10.532  18.868  0.00  0.00    +0.000 OA
ENDBRANCH  15  22
ENDBRANCH  14  18
ENDBRANCH   1  14
TORSDOF 6
ENDMDL
MODEL 6
REMARK VINA RESULT:      -6.6      0.865      1.027
REMARK  Name = 
REMARK  7 active torsions:
REMARK  status: ('A' for Active; 'I' for Inactive)
REMARK    1  A    between atoms: C_1  and  O_2
REMARK    2  A    between atoms: O_2  and  C_3
REMARK    3  A    between atoms: C_6  and  C_7
REMARK    4  A    between atoms: C_7  and  N_8
REMARK    5  A    between atoms: C_9  and  C_11
REMARK    6  A    between atoms: C_11  and  C_12
REMARK    7  A    between atoms: C_14  and  C_15
REMARK                            x       y       z     vdW  Elec       q    Type
REMARK                         _______ _______ _______ _____ _____    ______ ____
ROOT
ATOM      1  N   UNL     1       3.726   5.572  18.481  0.00  0.00    +0.000 N 
ATOM      2  C   UNL     1       5.076   5.358  18.667  0.00  0.00    +0.000 C 
ATOM      3  O   UNL     1       5.621   5.462  19.761  0.00  0.00    +0.000 OA
ATOM      4  H   UNL     1       3.297   5.465  17.570  0.00  0.00    +0.000 HD
ENDROOT
BRANCH   2   5
ATOM      5  C   UNL     1       5.854   4.991  17.432  0.00  0.00    +0.000 C 
ATOM      6  C   UNL     1       5.238   5.105  16.237  0.00  0.00    +0.000 C 
BRANCH   6   7
ATOM      7  C   UNL     1       5.840   4.730  14.998  0.00  0.00    +0.000 A 
ATOM      8  C   UNL     1       7.018   5.188  14.415  0.00  0.00    +0.000 A 
ATOM      9  C   UNL     1       7.171   4.542  13.161  0.00  0.00    +0.000 A 
ATOM     10  C   UNL     1       6.088   3.710  13.037  0.00  0.00    +0.000 A 
ATOM     11  O   UNL     1       5.296   3.813  14.125  0.00  0.00    +0.000 OA
ENDBRANCH   6   7
BRANCH   5  12
ATOM     12  C   UNL     1       7.191   4.535  17.598  0.00  0.00    +0.000 C 
ATOM     13  N   UNL     1       8.297   4.189  17.628  0.00  0.00    +0.000 NA
ENDBRANCH   5  12
ENDBRANCH   2   5
BRANCH   1  14
ATOM     14  C   UNL     1       2.824   5.933  19.554  0.00  0.00    +0.000 C 
BRANCH  14  18
ATOM     15  C   UNL     1       1.159   9.879  18.921  0.00  0.00    +0.000 A 
ATOM     16  C   UNL     1       1.039   9.253  20.162  0.00  0.00    +0.000 A 
ATOM     17  C   UNL     1       1.582   7.982  20.374  0.00  0.00    +0.000 A 
ATOM     18  C   UNL     1       2.245   7.309  19.339  0.00  0.00    +0.000 A 
ATOM     19  C   UNL     1       2.338   7.933  18.087  0.00  0.00    +0.000 A 
ATOM     20  C   UNL     1       1.801   9.211  17.880  0.00  0.00    +0.000 A 
BRANCH  15  22
ATOM     21  C   UNL     1      -0.206  11.515  19.949  0.00  0.00    +0.000 C 
ATOM     22  O   UNL     1       0.579  11.116  18.832  0.00  0.00    +0.000 OA
ENDBRANCH  15  22
ENDBRANCH  14  18
ENDBRANCH   1  14
TORSDOF 6
ENDMDL
MODEL 7
REMARK VINA RESULT:      -6.6      1.053      1.062
REMARK  Name = 
REMARK  7 active torsions:
REMARK  status: ('A' for Active; 'I' for Inactive)
REMARK    1  A    between atoms: C_1  and  O_2
REMARK    2  A    between atoms: O_2  and  C_3
REMARK    3  A    between atoms: C_6  and  C_7
REMARK    4  A    between atoms: C_7  and  N_8
REMARK    5  A    between atoms: C_9  and  C_11
REMARK    6  A    between atoms: C_11  and  C_12
REMARK    7  A    between atoms: C_14  and  C_15
REMARK                            x       y       z     vdW  Elec       q    Type
REMARK                         _______ _______ _______ _____ _____    ______ ____
ROOT
ATOM      1  N   UNL     1       4.085   6.002  18.068  0.00  0.00    +0.000 N 
ATOM      2  C   UNL     1       4.746   4.877  17.623  0.00  0.00    +0.000 C 
ATOM      3  O   UNL     1       4.633   3.781  18.164  0.00  0.00    +0.000 OA
ATOM      4  H   UNL     1       4.183   6.892  17.595  0.00  0.00    +0.000 HD
ENDROOT
BRANCH   2   5
ATOM      5  C   UNL     1       5.631   5.073  16.420  0.00  0.00    +0.000 C 
ATOM      6  C   UNL     1       5.367   4.348  15.314  0.00  0.00    +0.000 C 
BRANCH   6   7
ATOM      7  C   UNL     1       6.164   4.392  14.131  0.00  0.00    +0.000 A 
ATOM      8  C   UNL     1       6.074   3.618  12.977  0.00  0.00    +0.000 A 
ATOM      9  C   UNL     1       7.117   4.012  12.099  0.00  0.00    +0.000 A 
ATOM     10  C   UNL     1       7.790   5.014  12.747  0.00  0.00    +0.000 A 
ATOM     11  O   UNL     1       7.228   5.248  13.952  0.00  0.00    +0.000 OA
ENDBRANCH   6   7
BRANCH   5  12
ATOM     12  C   UNL     1       6.699   6.005  16.525  0.00  0.00    +0.000 C 
ATOM     13  N   UNL     1       7.611   6.703  16.690  0.00  0.00    +0.000 NA
ENDBRANCH   5  12
ENDBRANCH   2   5
BRANCH   1  14
ATOM     14  C   UNL     1       3.194   6.000  19.210  0.00  0.00    +0.000 C 
BRANCH  14  18
ATOM     15  C   UNL     1       0.891   9.662  19.388  0.00  0.00    +0.000 A 
ATOM     16  C   UNL     1       1.031   8.860  20.521  0.00  0.00    +0.000 A 
ATOM     17  C   UNL     1       1.780   7.680  20.471  0.00  0.00    +0.000 A 
ATOM     18  C   UNL     1       2.393   7.277  19.277  0.00  0.00    +0.000 A 
ATOM     19  C   UNL     1       2.227   8.074  18.137  0.00  0.00    +0.000 A 
ATOM     20  C   UNL     1       1.483   9.261  18.192  0.00  0.00    +0.000 A 
BRANCH  15  22
ATOM     21  C   UNL     1      -0.170  11.136  20.904  0.00  0.00    +0.000 C 
ATOM     22  O   UNL     1       0.126  10.785  19.558  0.00  0.00    +0.000 OA
ENDBRANCH  15  22
ENDBRANCH  14  18
ENDBRANCH   1  14
TORSDOF 6
ENDMDL
MODEL 8
REMARK VINA RESULT:      -6.5      4.333      8.502
REMARK  Name = 
REMARK  7 active torsions:
REMARK  status: ('A' for Active; 'I' for Inactive)
REMARK    1  A    between atoms: C_1  and  O_2
REMARK    2  A    between atoms: O_2  and  C_3
REMARK    3  A    between atoms: C_6  and  C_7
REMARK    4  A    between atoms: C_7  and  N_8
REMARK    5  A    between atoms: C_9  and  C_11
REMARK    6  A    between atoms: C_11  and  C_12
REMARK    7  A    between atoms: C_14  and  C_15
REMARK                            x       y       z     vdW  Elec       q    Type
REMARK                         _______ _______ _______ _____ _____    ______ ____
ROOT
ATOM      1  N   UNL     1       1.443   8.856  17.940  0.00  0.00    +0.000 N 
ATOM      2  C   UNL     1       0.910   9.789  18.804  0.00  0.00    +0.000 C 
ATOM      3  O   UNL     1       1.425  10.067  19.882  0.00  0.00    +0.000 OA
ATOM      4  H   UNL     1       1.007   8.655  17.048  0.00  0.00    +0.000 HD
ENDROOT
BRANCH   2   5
ATOM      5  C   UNL     1      -0.360  10.454  18.343  0.00  0.00    +0.000 C 
ATOM      6  C   UNL     1      -1.206   9.739  17.574  0.00  0.00    +0.000 C 
BRANCH   6   7
ATOM      7  C   UNL     1      -2.410  10.269  17.019  0.00  0.00    +0.000 A 
ATOM      8  C   UNL     1      -2.746  10.488  15.686  0.00  0.00    +0.000 A 
ATOM      9  C   UNL     1      -4.040  11.069  15.646  0.00  0.00    +0.000 A 
ATOM     10  C   UNL     1      -4.443  11.170  16.953  0.00  0.00    +0.000 A 
ATOM     11  O   UNL     1      -3.482  10.694  17.773  0.00  0.00    +0.000 OA
ENDBRANCH   6   7
BRANCH   5  12
ATOM     12  C   UNL     1      -0.588  11.800  18.739  0.00  0.00    +0.000 C 
ATOM     13  N   UNL     1      -0.851  12.903  18.984  0.00  0.00    +0.000 NA
ENDBRANCH   5  12
ENDBRANCH   2   5
BRANCH   1  14
ATOM     14  C   UNL     1       2.658   8.119  18.217  0.00  0.00    +0.000 C 
BRANCH  14  18
ATOM     15  C   UNL     1       1.783   4.116  19.620  0.00  0.00    +0.000 A 
ATOM     16  C   UNL     1       1.786   5.192  20.509  0.00  0.00    +0.000 A 
ATOM     17  C   UNL     1       2.060   6.487  20.060  0.00  0.00    +0.000 A 
ATOM     18  C   UNL     1       2.350   6.727  18.710  0.00  0.00    +0.000 A 
ATOM     19  C   UNL     1       2.371   5.638  17.827  0.00  0.00    +0.000 A 
ATOM     20  C   UNL     1       2.087   4.341  18.278  0.00  0.00    +0.000 A 
BRANCH  15  22
ATOM     21  C   UNL     1       1.521   2.850  21.600  0.00  0.00    +0.000 C 
ATOM     22  O   UNL     1       1.512   2.897  20.178  0.00  0.00    +0.000 OA
ENDBRANCH  15  22
ENDBRANCH  14  18
ENDBRANCH   1  14
TORSDOF 6
ENDMDL
MODEL 9
REMARK VINA RESULT:      -6.5      2.395      3.558
REMARK  Name = 
REMARK  7 active torsions:
REMARK  status: ('A' for Active; 'I' for Inactive)
REMARK    1  A    between atoms: C_1  and  O_2
REMARK    2  A    between atoms: O_2  and  C_3
REMARK    3  A    between atoms: C_6  and  C_7
REMARK    4  A    between atoms: C_7  and  N_8
REMARK    5  A    between atoms: C_9  and  C_11
REMARK    6  A    between atoms: C_11  and  C_12
REMARK    7  A    between atoms: C_14  and  C_15
REMARK                            x       y       z     vdW  Elec       q    Type
REMARK                         _______ _______ _______ _____ _____    ______ ____
ROOT
ATOM      1  N   UNL     1       2.137   7.324  19.999  0.00  0.00    +0.000 N 
ATOM      2  C   UNL     1       2.200   5.948  19.937  0.00  0.00    +0.000 C 
ATOM      3  O   UNL     1       1.725   5.221  20.804  0.00  0.00    +0.000 OA
ATOM      4  H   UNL     1       2.523   7.902  19.262  0.00  0.00    +0.000 HD
ENDROOT
BRANCH   2   5
ATOM      5  C   UNL     1       2.898   5.381  18.730  0.00  0.00    +0.000 C 
ATOM      6  C   UNL     1       4.140   5.826  18.449  0.00  0.00    +0.000 C 
BRANCH   6   7
ATOM      7  C   UNL     1       4.885   5.418  17.301  0.00  0.00    +0.000 A 
ATOM      8  C   UNL     1       5.093   6.090  16.099  0.00  0.00    +0.000 A 
ATOM      9  C   UNL     1       5.870   5.255  15.255  0.00  0.00    +0.000 A 
ATOM     10  C   UNL     1       6.113   4.117  15.980  0.00  0.00    +0.000 A 
ATOM     11  O   UNL     1       5.536   4.209  17.196  0.00  0.00    +0.000 OA
ENDBRANCH   6   7
BRANCH   5  12
ATOM     12  C   UNL     1       2.203   4.415  17.951  0.00  0.00    +0.000 C 
ATOM     13  N   UNL     1       1.545   3.661  17.364  0.00  0.00    +0.000 NA
ENDBRANCH   5  12
ENDBRANCH   2   5
BRANCH   1  14
ATOM     14  C   UNL     1       1.505   8.042  21.085  0.00  0.00    +0.000 C 
BRANCH  14  18
ATOM     15  C   UNL     1      -0.605  11.540  19.647  0.00  0.00    +0.000 A 
ATOM     16  C   UNL     1       0.197  10.793  18.783  0.00  0.00    +0.000 A 
ATOM     17  C   UNL     1       0.875   9.659  19.240  0.00  0.00    +0.000 A 
ATOM     18  C   UNL     1       0.769   9.258  20.579  0.00  0.00    +0.000 A 
ATOM     19  C   UNL     1      -0.018  10.028  21.448  0.00  0.00    +0.000 A 
ATOM     20  C   UNL     1      -0.703  11.159  20.985  0.00  0.00    +0.000 A 
BRANCH  15  22
ATOM     21  C   UNL     1      -0.333  13.615  18.546  0.00  0.00    +0.000 C 
ATOM     22  O   UNL     1      -1.208  12.633  19.087  0.00  0.00    +0.000 OA
ENDBRANCH  15  22
ENDBRANCH  14  18
ENDBRANCH   1  14
TORSDOF 6
ENDMDL
