MODEL 1
REMARK VINA RESULT:      -7.8      0.000      0.000
REMARK  Name = 
REMARK  10 active torsions:
REMARK  status: ('A' for Active; 'I' for Inactive)
REMARK    1  A    between atoms: C_1  and  C_2
REMARK    2  A    between atoms: C_2  and  N_3
REMARK    3  A    between atoms: C_7  and  O_8
REMARK    4  A    between atoms: O_8  and  C_9
REMARK    5  A    between atoms: C_9  and  C_10
REMARK    6  A    between atoms: N_12  and  C_13
REMARK    7  A    between atoms: C_17  and  O_18
REMARK    8  A    between atoms: O_18  and  C_19
REMARK    9  A    between atoms: C_21  and  O_22
REMARK   10  A    between atoms: O_22  and  C_23
REMARK                            x       y       z     vdW  Elec       q    Type
REMARK                         _______ _______ _______ _____ _____    ______ ____
ROOT
ATOM      1  C   UNL     1       8.506   9.146  17.609  0.00  0.00    +0.000 C 
ENDROOT
BRANCH   1   2
ATOM      2  C   UNL     1       7.683   7.876  17.771  0.00  0.00    +0.000 C 
ATOM      3  O   UNL     1       7.973   7.028  18.608  0.00  0.00    +0.000 OA
ATOM      4  N   UNL     1       6.631   7.771  16.860  0.00  0.00    +0.000 N 
ATOM      5  H   UNL     1       6.719   8.304  16.006  0.00  0.00    +0.000 HD
BRANCH   4   6
ATOM      6  C   UNL     1       5.845   6.601  16.839  0.00  0.00    +0.000 A 
ATOM      7  C   UNL     1       4.625   6.644  17.530  0.00  0.00    +0.000 A 
ATOM      8  C   UNL     1       3.815   5.515  17.629  0.00  0.00    +0.000 A 
ATOM      9 CL   UNL     1       2.339   5.650  18.520  0.00  0.00    +0.000 Cl
ATOM     10  C   UNL     1       4.203   4.314  17.027  0.00  0.00    +0.000 A 
ATOM     11  C   UNL     1       5.380   4.296  16.267  0.00  0.00    +0.000 A 
ATOM     12  C   UNL     1       6.209   5.432  16.158  0.00  0.00    +0.000 A 
BRANCH  10  13
ATOM     13  O   UNL     1       3.393   3.232  17.244  0.00  0.00    +0.000 OA
ATOM     14  C   UNL     1       3.745   2.330  18.280  0.00  0.00    +0.000 C 
ENDBRANCH  10  13
BRANCH  12  15
ATOM     15  O   UNL     1       7.296   5.215  15.353  0.00  0.00    +0.000 OA
ATOM     16  C   UNL     1       7.096   4.761  14.021  0.00  0.00    +0.000 C 
ENDBRANCH  12  15
ENDBRANCH   4   6
ENDBRANCH   1   2
BRANCH   1  17
ATOM     17  O   UNL     1       8.839   9.624  18.907  0.00  0.00    +0.000 OA
BRANCH  17  22
ATOM     18  N   UNL     1      11.015  13.202  19.412  0.00  0.00    +0.000 N 
ATOM     19  C   UNL     1      11.252  12.456  18.265  0.00  0.00    +0.000 A 
ATOM     20  O   UNL     1      12.091  12.743  17.409  0.00  0.00    +0.000 OA
ATOM     21  C   UNL     1      10.453  11.234  18.071  0.00  0.00    +0.000 A 
ATOM     22  C   UNL     1       9.595  10.770  18.996  0.00  0.00    +0.000 A 
ATOM     23  C   UNL     1       9.426  11.538  20.246  0.00  0.00    +0.000 A 
ATOM     24  C   UNL     1       8.610  11.050  21.284  0.00  0.00    +0.000 A 
ATOM     25  C   UNL     1       8.474  11.750  22.481  0.00  0.00    +0.000 A 
ATOM     26  C   UNL     1       9.107  12.975  22.640  0.00  0.00    +0.000 A 
ATOM     27  C   UNL     1       9.903  13.482  21.610  0.00  0.00    +0.000 A 
ATOM     28  C   UNL     1      10.104  12.759  20.423  0.00  0.00    +0.000 A 
BRANCH  18  30
ATOM     29  C   UNL     1      11.301  15.631  19.087  0.00  0.00    +0.000 C 
ATOM     30  C   UNL     1      11.897  14.347  19.654  0.00  0.00    +0.000 C 
ENDBRANCH  18  30
ENDBRANCH  17  22
ENDBRANCH   1  17
TORSDOF 7
ENDMDL
MODEL 2
REMARK VINA RESULT:      -7.8      6.108      8.537
REMARK  Name = 
REMARK  10 active torsions:
REMARK  status: ('A' for Active; 'I' for Inactive)
REMARK    1  A    between atoms: C_1  and  C_2
REMARK    2  A    between atoms: C_2  and  N_3
REMARK    3  A    between atoms: C_7  and  O_8
REMARK    4  A    between atoms: O_8  and  C_9
REMARK    5  A    between atoms: C_9  and  C_10
REMARK    6  A    between atoms: N_12  and  C_13
REMARK    7  A    between atoms: C_17  and  O_18
REMARK    8  A    between atoms: O_18  and  C_19
REMARK    9  A    between atoms: C_21  and  O_22
REMARK   10  A    between atoms: O_22  and  C_23
REMARK                            x       y       z     vdW  Elec       q    Type
REMARK                         _______ _______ _______ _____ _____    ______ ____
ROOT
ATOM      1  C   UNL     1       1.622   6.590  20.426  0.00  0.00    +0.000 C 
ENDROOT
BRANCH   1   2
ATOM      2  C   UNL     1       2.770   5.883  19.720  0.00  0.00    +0.000 C 
ATOM      3  O   UNL     1       3.448   5.035  20.291  0.00  0.00    +0.000 OA
ATOM      4  N   UNL     1       2.983   6.329  18.415  0.00  0.00    +0.000 N 
ATOM      5  H   UNL     1       2.643   7.254  18.193  0.00  0.00    +0.000 HD
BRANCH   4   6
ATOM      6  C   UNL     1       4.073   5.824  17.678  0.00  0.00    +0.000 A 
ATOM      7  C   UNL     1       5.253   6.584  17.689  0.00  0.00    +0.000 A 
ATOM      8  C   UNL     1       6.359   6.205  16.932  0.00  0.00    +0.000 A 
ATOM      9 CL   UNL     1       7.763   7.213  16.985  0.00  0.00    +0.000 Cl
ATOM     10  C   UNL     1       6.315   5.047  16.151  0.00  0.00    +0.000 A 
ATOM     11  C   UNL     1       5.168   4.244  16.207  0.00  0.00    +0.000 A 
ATOM     12  C   UNL     1       4.041   4.616  16.970  0.00  0.00    +0.000 A 
BRANCH  10  13
ATOM     13  O   UNL     1       7.412   4.792  15.373  0.00  0.00    +0.000 OA
ATOM     14  C   UNL     1       7.237   4.747  13.965  0.00  0.00    +0.000 C 
ENDBRANCH  10  13
BRANCH  12  15
ATOM     15  O   UNL     1       3.035   3.687  16.910  0.00  0.00    +0.000 OA
ATOM     16  C   UNL     1       3.083   2.554  17.766  0.00  0.00    +0.000 C 
ENDBRANCH  12  15
ENDBRANCH   4   6
ENDBRANCH   1   2
BRANCH   1  17
ATOM     17  O   UNL     1       1.643   7.959  20.041  0.00  0.00    +0.000 OA
BRANCH  17  22
ATOM     18  N   UNL     1      -0.676  10.817  22.102  0.00  0.00    +0.000 N 
ATOM     19  C   UNL     1       0.055   9.908  22.858  0.00  0.00    +0.000 A 
ATOM     20  O   UNL     1       0.031   9.849  24.088  0.00  0.00    +0.000 OA
ATOM     21  C   UNL     1       0.900   8.946  22.132  0.00  0.00    +0.000 A 
ATOM     22  C   UNL     1       0.910   8.850  20.791  0.00  0.00    +0.000 A 
ATOM     23  C   UNL     1       0.057   9.772  20.014  0.00  0.00    +0.000 A 
ATOM     24  C   UNL     1      -0.039   9.654  18.615  0.00  0.00    +0.000 A 
ATOM     25  C   UNL     1      -0.870  10.496  17.878  0.00  0.00    +0.000 A 
ATOM     26  C   UNL     1      -1.575  11.504  18.520  0.00  0.00    +0.000 A 
ATOM     27  C   UNL     1      -1.473  11.646  19.906  0.00  0.00    +0.000 A 
ATOM     28  C   UNL     1      -0.693  10.765  20.672  0.00  0.00    +0.000 A 
BRANCH  18  30
ATOM     29  C   UNL     1      -1.014  13.080  23.026  0.00  0.00    +0.000 C 
ATOM     30  C   UNL     1      -1.606  11.688  22.827  0.00  0.00    +0.000 C 
ENDBRANCH  18  30
ENDBRANCH  17  22
ENDBRANCH   1  17
TORSDOF 7
ENDMDL
MODEL 3
REMARK VINA RESULT:      -7.8      6.274      7.789
REMARK  Name = 
REMARK  10 active torsions:
REMARK  status: ('A' for Active; 'I' for Inactive)
REMARK    1  A    between atoms: C_1  and  C_2
REMARK    2  A    between atoms: C_2  and  N_3
REMARK    3  A    between atoms: C_7  and  O_8
REMARK    4  A    between atoms: O_8  and  C_9
REMARK    5  A    between atoms: C_9  and  C_10
REMARK    6  A    between atoms: N_12  and  C_13
REMARK    7  A    between atoms: C_17  and  O_18
REMARK    8  A    between atoms: O_18  and  C_19
REMARK    9  A    between atoms: C_21  and  O_22
REMARK   10  A    between atoms: O_22  and  C_23
REMARK                            x       y       z     vdW  Elec       q    Type
REMARK                         _______ _______ _______ _____ _____    ______ ____
ROOT
ATOM      1  C   UNL     1       1.233   6.078  20.446  0.00  0.00    +0.000 C 
ENDROOT
BRANCH   1   2
ATOM      2  C   UNL     1       2.463   5.452  19.804  0.00  0.00    +0.000 C 
ATOM      3  O   UNL     1       3.205   4.705  20.434  0.00  0.00    +0.000 OA
ATOM      4  N   UNL     1       2.666   5.847  18.480  0.00  0.00    +0.000 N 
ATOM      5  H   UNL     1       2.245   6.722  18.202  0.00  0.00    +0.000 HD
BRANCH   4   6
ATOM      6  C   UNL     1       3.819   5.414  17.796  0.00  0.00    +0.000 A 
ATOM      7  C   UNL     1       4.935   6.263  17.832  0.00  0.00    +0.000 A 
ATOM      8  C   UNL     1       6.095   5.956  17.124  0.00  0.00    +0.000 A 
ATOM      9 CL   UNL     1       7.415   7.071  17.204  0.00  0.00    +0.000 Cl
ATOM     10  C   UNL     1       6.170   4.782  16.369  0.00  0.00    +0.000 A 
ATOM     11  C   UNL     1       5.087   3.894  16.403  0.00  0.00    +0.000 A 
ATOM     12  C   UNL     1       3.907   4.192  17.115  0.00  0.00    +0.000 A 
BRANCH  10  13
ATOM     13  O   UNL     1       7.313   4.597  15.638  0.00  0.00    +0.000 OA
ATOM     14  C   UNL     1       7.254   4.825  14.238  0.00  0.00    +0.000 C 
ENDBRANCH  10  13
BRANCH  12  15
ATOM     15  O   UNL     1       2.979   3.187  17.041  0.00  0.00    +0.000 OA
ATOM     16  C   UNL     1       3.097   2.066  17.907  0.00  0.00    +0.000 C 
ENDBRANCH  12  15
ENDBRANCH   4   6
ENDBRANCH   1   2
BRANCH   1  17
ATOM     17  O   UNL     1       1.637   7.283  21.086  0.00  0.00    +0.000 OA
BRANCH  17  22
ATOM     18  N   UNL     1       0.552  10.987  19.384  0.00  0.00    +0.000 N 
ATOM     19  C   UNL     1       1.400  10.163  18.656  0.00  0.00    +0.000 A 
ATOM     20  O   UNL     1       1.898  10.463  17.569  0.00  0.00    +0.000 OA
ATOM     21  C   UNL     1       1.735   8.851  19.234  0.00  0.00    +0.000 A 
ATOM     22  C   UNL     1       1.340   8.473  20.462  0.00  0.00    +0.000 A 
ATOM     23  C   UNL     1       0.509   9.405  21.251  0.00  0.00    +0.000 A 
ATOM     24  C   UNL     1       0.144   9.098  22.575  0.00  0.00    +0.000 A 
ATOM     25  C   UNL     1      -0.609   9.988  23.338  0.00  0.00    +0.000 A 
ATOM     26  C   UNL     1      -1.056  11.174  22.774  0.00  0.00    +0.000 A 
ATOM     27  C   UNL     1      -0.720  11.482  21.454  0.00  0.00    +0.000 A 
ATOM     28  C   UNL     1       0.093  10.629  20.691  0.00  0.00    +0.000 A 
BRANCH  18  30
ATOM     29  C   UNL     1      -1.016  12.423  18.131  0.00  0.00    +0.000 C 
ATOM     30  C   UNL     1       0.322  12.336  18.858  0.00  0.00    +0.000 C 
ENDBRANCH  18  30
ENDBRANCH  17  22
ENDBRANCH   1  17
TORSDOF 7
ENDMDL
MODEL 4
REMARK VINA RESULT:      -7.7      6.957     10.555
REMARK  Name = 
REMARK  10 active torsions:
REMARK  status: ('A' for Active; 'I' for Inactive)
REMARK    1  A    between atoms: C_1  and  C_2
REMARK    2  A    between atoms: C_2  and  N_3
REMARK    3  A    between atoms: C_7  and  O_8
REMARK    4  A    between atoms: O_8  and  C_9
REMARK    5  A    between atoms: C_9  and  C_10
REMARK    6  A    between atoms: N_12  and  C_13
REMARK    7  A    between atoms: C_17  and  O_18
REMARK    8  A    between atoms: O_18  and  C_19
REMARK    9  A    between atoms: C_21  and  O_22
REMARK   10  A    between atoms: O_22  and  C_23
REMARK                            x       y       z     vdW  Elec       q    Type
REMARK                         _______ _______ _______ _____ _____    ______ ____
ROOT
ATOM      1  C   UNL     1       1.667   8.632  20.792  0.00  0.00    +0.000 C 
ENDROOT
BRANCH   1   2
ATOM      2  C   UNL     1       0.296   9.178  20.419  0.00  0.00    +0.000 C 
ATOM      3  O   UNL     1      -0.699   8.922  21.089  0.00  0.00    +0.000 OA
ATOM      4  N   UNL     1       0.296   9.936  19.247  0.00  0.00    +0.000 N 
ATOM      5  H   UNL     1       1.051   9.763  18.598  0.00  0.00    +0.000 HD
BRANCH   4   6
ATOM      6  C   UNL     1      -0.924  10.425  18.737  0.00  0.00    +0.000 A 
ATOM      7  C   UNL     1      -1.388   9.851  17.544  0.00  0.00    +0.000 A 
ATOM      8  C   UNL     1      -2.545  10.319  16.924  0.00  0.00    +0.000 A 
ATOM      9 CL   UNL     1      -3.032   9.571  15.443  0.00  0.00    +0.000 Cl
ATOM     10  C   UNL     1      -3.272  11.370  17.491  0.00  0.00    +0.000 A 
ATOM     11  C   UNL     1      -2.855  11.884  18.726  0.00  0.00    +0.000 A 
ATOM     12  C   UNL     1      -1.686  11.420  19.365  0.00  0.00    +0.000 A 
BRANCH  10  13
ATOM     13  O   UNL     1      -4.347  11.825  16.776  0.00  0.00    +0.000 OA
ATOM     14  C   UNL     1      -5.533  12.149  17.485  0.00  0.00    +0.000 C 
ENDBRANCH  10  13
BRANCH  12  15
ATOM     15  O   UNL     1      -1.465  12.033  20.569  0.00  0.00    +0.000 OA
ATOM     16  C   UNL     1      -0.533  13.103  20.645  0.00  0.00    +0.000 C 
ENDBRANCH  12  15
ENDBRANCH   4   6
ENDBRANCH   1   2
BRANCH   1  17
ATOM     17  O   UNL     1       2.231   8.029  19.633  0.00  0.00    +0.000 OA
BRANCH  17  22
ATOM     18  N   UNL     1       2.777   3.856  19.354  0.00  0.00    +0.000 N 
ATOM     19  C   UNL     1       2.038   4.342  20.424  0.00  0.00    +0.000 A 
ATOM     20  O   UNL     1       1.574   3.641  21.325  0.00  0.00    +0.000 OA
ATOM     21  C   UNL     1       1.810   5.796  20.488  0.00  0.00    +0.000 A 
ATOM     22  C   UNL     1       2.367   6.660  19.622  0.00  0.00    +0.000 A 
ATOM     23  C   UNL     1       3.219   6.122  18.543  0.00  0.00    +0.000 A 
ATOM     24  C   UNL     1       3.898   6.988  17.666  0.00  0.00    +0.000 A 
ATOM     25  C   UNL     1       4.734   6.490  16.667  0.00  0.00    +0.000 A 
ATOM     26  C   UNL     1       4.861   5.119  16.495  0.00  0.00    +0.000 A 
ATOM     27  C   UNL     1       4.176   4.247  17.344  0.00  0.00    +0.000 A 
ATOM     28  C   UNL     1       3.383   4.731  18.397  0.00  0.00    +0.000 A 
BRANCH  18  30
ATOM     29  C   UNL     1       4.375   2.156  20.158  0.00  0.00    +0.000 C 
ATOM     30  C   UNL     1       3.101   2.426  19.364  0.00  0.00    +0.000 C 
ENDBRANCH  18  30
ENDBRANCH  17  22
ENDBRANCH   1  17
TORSDOF 7
ENDMDL
MODEL 5
REMARK VINA RESULT:      -7.7      6.250      9.972
REMARK  Name = 
REMARK  10 active torsions:
REMARK  status: ('A' for Active; 'I' for Inactive)
REMARK    1  A    between atoms: C_1  and  C_2
REMARK    2  A    between atoms: C_2  and  N_3
REMARK    3  A    between atoms: C_7  and  O_8
REMARK    4  A    between atoms: O_8  and  C_9
REMARK    5  A    between atoms: C_9  and  C_10
REMARK    6  A    between atoms: N_12  and  C_13
REMARK    7  A    between atoms: C_17  and  O_18
REMARK    8  A    between atoms: O_18  and  C_19
REMARK    9  A    between atoms: C_21  and  O_22
REMARK   10  A    between atoms: O_22  and  C_23
REMARK                            x       y       z     vdW  Elec       q    Type
REMARK                         _______ _______ _______ _____ _____    ______ ____
ROOT
ATOM      1  C   UNL     1       2.022   7.542  19.867  0.00  0.00    +0.000 C 
ENDROOT
BRANCH   1   2
ATOM      2  C   UNL     1       1.483   8.962  19.962  0.00  0.00    +0.000 C 
ATOM      3  O   UNL     1       1.092   9.429  21.026  0.00  0.00    +0.000 OA
ATOM      4  N   UNL     1       1.444   9.629  18.736  0.00  0.00    +0.000 N 
ATOM      5  H   UNL     1       1.420   9.049  17.909  0.00  0.00    +0.000 HD
BRANCH   4   6
ATOM      6  C   UNL     1       0.881  10.919  18.665  0.00  0.00    +0.000 A 
ATOM      7  C   UNL     1       1.775  11.999  18.620  0.00  0.00    +0.000 A 
ATOM      8  C   UNL     1       1.314  13.314  18.624  0.00  0.00    +0.000 A 
ATOM      9 CL   UNL     1       2.486  14.585  18.592  0.00  0.00    +0.000 Cl
ATOM     10  C   UNL     1      -0.058  13.579  18.663  0.00  0.00    +0.000 A 
ATOM     11  C   UNL     1      -0.950  12.500  18.622  0.00  0.00    +0.000 A 
ATOM     12  C   UNL     1      -0.498  11.164  18.617  0.00  0.00    +0.000 A 
BRANCH  10  13
ATOM     13  O   UNL     1      -0.423  14.896  18.749  0.00  0.00    +0.000 OA
ATOM     14  C   UNL     1      -0.970  15.358  19.974  0.00  0.00    +0.000 C 
ENDBRANCH  10  13
BRANCH  12  15
ATOM     15  O   UNL     1      -1.524  10.261  18.552  0.00  0.00    +0.000 OA
ATOM     16  C   UNL     1      -2.387  10.267  17.422  0.00  0.00    +0.000 C 
ENDBRANCH  12  15
ENDBRANCH   4   6
ENDBRANCH   1   2
BRANCH   1  17
ATOM     17  O   UNL     1       1.915   7.119  18.513  0.00  0.00    +0.000 OA
BRANCH  17  22
ATOM     18  N   UNL     1       5.113   4.909  16.876  0.00  0.00    +0.000 N 
ATOM     19  C   UNL     1       5.199   6.295  16.843  0.00  0.00    +0.000 A 
ATOM     20  O   UNL     1       6.123   6.923  16.322  0.00  0.00    +0.000 OA
ATOM     21  C   UNL     1       4.102   7.059  17.460  0.00  0.00    +0.000 A 
ATOM     22  C   UNL     1       2.995   6.478  17.952  0.00  0.00    +0.000 A 
ATOM     23  C   UNL     1       2.891   5.005  17.897  0.00  0.00    +0.000 A 
ATOM     24  C   UNL     1       1.716   4.352  18.314  0.00  0.00    +0.000 A 
ATOM     25  C   UNL     1       1.595   2.966  18.230  0.00  0.00    +0.000 A 
ATOM     26  C   UNL     1       2.666   2.207  17.780  0.00  0.00    +0.000 A 
ATOM     27  C   UNL     1       3.846   2.839  17.383  0.00  0.00    +0.000 A 
ATOM     28  C   UNL     1       3.961   4.239  17.397  0.00  0.00    +0.000 A 
BRANCH  18  30
ATOM     29  C   UNL     1       5.832   4.087  14.663  0.00  0.00    +0.000 C 
ATOM     30  C   UNL     1       6.146   4.162  16.153  0.00  0.00    +0.000 C 
ENDBRANCH  18  30
ENDBRANCH  17  22
ENDBRANCH   1  17
TORSDOF 7
ENDMDL
MODEL 6
REMARK VINA RESULT:      -7.6      6.846     10.106
REMARK  Name = 
REMARK  10 active torsions:
REMARK  status: ('A' for Active; 'I' for Inactive)
REMARK    1  A    between atoms: C_1  and  C_2
REMARK    2  A    between atoms: C_2  and  N_3
REMARK    3  A    between atoms: C_7  and  O_8
REMARK    4  A    between atoms: O_8  and  C_9
REMARK    5  A    between atoms: C_9  and  C_10
REMARK    6  A    between atoms: N_12  and  C_13
REMARK    7  A    between atoms: C_17  and  O_18
REMARK    8  A    between atoms: O_18  and  C_19
REMARK    9  A    between atoms: C_21  and  O_22
REMARK   10  A    between atoms: O_22  and  C_23
REMARK                            x       y       z     vdW  Elec       q    Type
REMARK                         _______ _______ _______ _____ _____    ______ ____
ROOT
ATOM      1  C   UNL     1       1.488   9.499  18.758  0.00  0.00    +0.000 C 
ENDROOT
BRANCH   1   2
ATOM      2  C   UNL     1       0.036   9.909  18.963  0.00  0.00    +0.000 C 
ATOM      3  O   UNL     1      -0.555   9.671  20.011  0.00  0.00    +0.000 OA
ATOM      4  N   UNL     1      -0.535  10.522  17.846  0.00  0.00    +0.000 N 
ATOM      5  H   UNL     1      -0.106  10.322  16.954  0.00  0.00    +0.000 HD
BRANCH   4   6
ATOM      6  C   UNL     1      -1.901  10.869  17.867  0.00  0.00    +0.000 A 
ATOM      7  C   UNL     1      -2.325  11.710  18.907  0.00  0.00    +0.000 A 
ATOM      8  C   UNL     1      -3.668  12.048  19.055  0.00  0.00    +0.000 A 
ATOM      9 CL   UNL     1      -4.107  13.072  20.378  0.00  0.00    +0.000 Cl
ATOM     10  C   UNL     1      -4.621  11.558  18.157  0.00  0.00    +0.000 A 
ATOM     11  C   UNL     1      -4.185  10.787  17.072  0.00  0.00    +0.000 A 
ATOM     12  C   UNL     1      -2.828  10.438  16.909  0.00  0.00    +0.000 A 
BRANCH  10  13
ATOM     13  O   UNL     1      -5.928  11.868  18.423  0.00  0.00    +0.000 OA
ATOM     14  C   UNL     1      -6.783  10.830  18.874  0.00  0.00    +0.000 C 
ENDBRANCH  10  13
BRANCH  12  15
ATOM     15  O   UNL     1      -2.606   9.702  15.776  0.00  0.00    +0.000 OA
ATOM     16  C   UNL     1      -3.119  10.165  14.534  0.00  0.00    +0.000 C 
ENDBRANCH  12  15
ENDBRANCH   4   6
ENDBRANCH   1   2
BRANCH   1  17
ATOM     17  O   UNL     1       1.674   8.223  19.360  0.00  0.00    +0.000 OA
BRANCH  17  22
ATOM     18  N   UNL     1       4.405   5.416  17.793  0.00  0.00    +0.000 N 
ATOM     19  C   UNL     1       4.283   6.636  17.139  0.00  0.00    +0.000 A 
ATOM     20  O   UNL     1       4.881   6.933  16.104  0.00  0.00    +0.000 OA
ATOM     21  C   UNL     1       3.364   7.629  17.720  0.00  0.00    +0.000 A 
ATOM     22  C   UNL     1       2.579   7.365  18.779  0.00  0.00    +0.000 A 
ATOM     23  C   UNL     1       2.668   6.030  19.404  0.00  0.00    +0.000 A 
ATOM     24  C   UNL     1       1.805   5.671  20.456  0.00  0.00    +0.000 A 
ATOM     25  C   UNL     1       1.857   4.400  21.026  0.00  0.00    +0.000 A 
ATOM     26  C   UNL     1       2.807   3.487  20.592  0.00  0.00    +0.000 A 
ATOM     27  C   UNL     1       3.684   3.837  19.562  0.00  0.00    +0.000 A 
ATOM     28  C   UNL     1       3.602   5.088  18.931  0.00  0.00    +0.000 A 
BRANCH  18  30
ATOM     29  C   UNL     1       6.695   4.535  17.531  0.00  0.00    +0.000 C 
ATOM     30  C   UNL     1       5.228   4.393  17.142  0.00  0.00    +0.000 C 
ENDBRANCH  18  30
ENDBRANCH  17  22
ENDBRANCH   1  17
TORSDOF 7
ENDMDL
MODEL 7
REMARK VINA RESULT:      -7.6      6.354     10.249
REMARK  Name = 
REMARK  10 active torsions:
REMARK  status: ('A' for Active; 'I' for Inactive)
REMARK    1  A    between atoms: C_1  and  C_2
REMARK    2  A    between atoms: C_2  and  N_3
REMARK    3  A    between atoms: C_7  and  O_8
REMARK    4  A    between atoms: O_8  and  C_9
REMARK    5  A    between atoms: C_9  and  C_10
REMARK    6  A    between atoms: N_12  and  C_13
REMARK    7  A    between atoms: C_17  and  O_18
REMARK    8  A    between atoms: O_18  and  C_19
REMARK    9  A    between atoms: C_21  and  O_22
REMARK   10  A    between atoms: O_22  and  C_23
REMARK                            x       y       z     vdW  Elec       q    Type
REMARK                         _______ _______ _______ _____ _____    ______ ____
ROOT
ATOM      1  C   UNL     1       2.006   8.716  17.814  0.00  0.00    +0.000 C 
ENDROOT
BRANCH   1   2
ATOM      2  C   UNL     1       1.190   9.533  18.806  0.00  0.00    +0.000 C 
ATOM      3  O   UNL     1       0.970   9.126  19.942  0.00  0.00    +0.000 OA
ATOM      4  N   UNL     1       0.703  10.730  18.278  0.00  0.00    +0.000 N 
ATOM      5  H   UNL     1       0.615  10.776  17.273  0.00  0.00    +0.000 HD
BRANCH   4   6
ATOM      6  C   UNL     1      -0.145  11.539  19.061  0.00  0.00    +0.000 A 
ATOM      7  C   UNL     1       0.474  12.447  19.934  0.00  0.00    +0.000 A 
ATOM      8  C   UNL     1      -0.278  13.236  20.801  0.00  0.00    +0.000 A 
ATOM      9 CL   UNL     1       0.567  14.311  21.860  0.00  0.00    +0.000 Cl
ATOM     10  C   UNL     1      -1.673  13.143  20.809  0.00  0.00    +0.000 A 
ATOM     11  C   UNL     1      -2.293  12.298  19.879  0.00  0.00    +0.000 A 
ATOM     12  C   UNL     1      -1.544  11.494  18.995  0.00  0.00    +0.000 A 
BRANCH  10  13
ATOM     13  O   UNL     1      -2.330  13.890  21.749  0.00  0.00    +0.000 OA
ATOM     14  C   UNL     1      -3.719  13.665  21.930  0.00  0.00    +0.000 C 
ENDBRANCH  10  13
BRANCH  12  15
ATOM     15  O   UNL     1      -2.335  10.760  18.152  0.00  0.00    +0.000 OA
ATOM     16  C   UNL     1      -3.577  11.298  17.719  0.00  0.00    +0.000 C 
ENDBRANCH  12  15
ENDBRANCH   4   6
ENDBRANCH   1   2
BRANCH   1  17
ATOM     17  O   UNL     1       2.315   7.467  18.421  0.00  0.00    +0.000 OA
BRANCH  17  22
ATOM     18  N   UNL     1       5.233   4.908  16.768  0.00  0.00    +0.000 N 
ATOM     19  C   UNL     1       5.473   6.276  16.729  0.00  0.00    +0.000 A 
ATOM     20  O   UNL     1       6.457   6.794  16.198  0.00  0.00    +0.000 OA
ATOM     21  C   UNL     1       4.474   7.160  17.351  0.00  0.00    +0.000 A 
ATOM     22  C   UNL     1       3.312   6.707  17.854  0.00  0.00    +0.000 A 
ATOM     23  C   UNL     1       3.044   5.255  17.806  0.00  0.00    +0.000 A 
ATOM     24  C   UNL     1       1.808   4.739  18.236  0.00  0.00    +0.000 A 
ATOM     25  C   UNL     1       1.532   3.375  18.159  0.00  0.00    +0.000 A 
ATOM     26  C   UNL     1       2.507   2.499  17.704  0.00  0.00    +0.000 A 
ATOM     27  C   UNL     1       3.747   2.994  17.294  0.00  0.00    +0.000 A 
ATOM     28  C   UNL     1       4.018   4.372  17.302  0.00  0.00    +0.000 A 
BRANCH  18  30
ATOM     29  C   UNL     1       5.871   4.046  14.546  0.00  0.00    +0.000 C 
ATOM     30  C   UNL     1       6.171   4.047  16.041  0.00  0.00    +0.000 C 
ENDBRANCH  18  30
ENDBRANCH  17  22
ENDBRANCH   1  17
TORSDOF 7
ENDMDL
MODEL 8
REMARK VINA RESULT:      -7.6      6.383     10.009
REMARK  Name = 
REMARK  10 active torsions:
REMARK  status: ('A' for Active; 'I' for Inactive)
REMARK    1  A    between atoms: C_1  and  C_2
REMARK    2  A    between atoms: C_2  and  N_3
REMARK    3  A    between atoms: C_7  and  O_8
REMARK    4  A    between atoms: O_8  and  C_9
REMARK    5  A    between atoms: C_9  and  C_10
REMARK    6  A    between atoms: N_12  and  C_13
REMARK    7  A    between atoms: C_17  and  O_18
REMARK    8  A    between atoms: O_18  and  C_19
REMARK    9  A    between atoms: C_21  and  O_22
REMARK   10  A    between atoms: O_22  and  C_23
REMARK                            x       y       z     vdW  Elec       q    Type
REMARK                         _______ _______ _______ _____ _____    ______ ____
ROOT
ATOM      1  C   UNL     1       2.093   9.043  17.840  0.00  0.00    +0.000 C 
ENDROOT
BRANCH   1   2
ATOM      2  C   UNL     1       0.948   9.637  18.648  0.00  0.00    +0.000 C 
ATOM      3  O   UNL     1       0.683   9.235  19.776  0.00  0.00    +0.000 OA
ATOM      4  N   UNL     1       0.232  10.621  17.963  0.00  0.00    +0.000 N 
ATOM      5  H   UNL     1       0.284  10.596  16.955  0.00  0.00    +0.000 HD
BRANCH   4   6
ATOM      6  C   UNL     1      -0.911  11.189  18.560  0.00  0.00    +0.000 A 
ATOM      7  C   UNL     1      -2.156  10.798  18.046  0.00  0.00    +0.000 A 
ATOM      8  C   UNL     1      -3.339  11.361  18.520  0.00  0.00    +0.000 A 
ATOM      9 CL   UNL     1      -4.828  10.839  17.813  0.00  0.00    +0.000 Cl
ATOM     10  C   UNL     1      -3.304  12.325  19.532  0.00  0.00    +0.000 A 
ATOM     11  C   UNL     1      -2.067  12.653  20.103  0.00  0.00    +0.000 A 
ATOM     12  C   UNL     1      -0.862  12.090  19.633  0.00  0.00    +0.000 A 
BRANCH  10  13
ATOM     13  O   UNL     1      -4.502  12.889  19.881  0.00  0.00    +0.000 OA
ATOM     14  C   UNL     1      -4.885  12.851  21.247  0.00  0.00    +0.000 C 
ENDBRANCH  10  13
BRANCH  12  15
ATOM     15  O   UNL     1       0.231  12.521  20.337  0.00  0.00    +0.000 OA
ATOM     16  C   UNL     1       0.973  13.634  19.858  0.00  0.00    +0.000 C 
ENDBRANCH  12  15
ENDBRANCH   4   6
ENDBRANCH   1   2
BRANCH   1  17
ATOM     17  O   UNL     1       2.125   7.641  18.086  0.00  0.00    +0.000 OA
BRANCH  17  22
ATOM     18  N   UNL     1       5.495   5.300  17.110  0.00  0.00    +0.000 N 
ATOM     19  C   UNL     1       5.622   6.681  17.035  0.00  0.00    +0.000 A 
ATOM     20  O   UNL     1       6.637   7.267  16.654  0.00  0.00    +0.000 OA
ATOM     21  C   UNL     1       4.457   7.493  17.424  0.00  0.00    +0.000 A 
ATOM     22  C   UNL     1       3.267   6.955  17.744  0.00  0.00    +0.000 A 
ATOM     23  C   UNL     1       3.136   5.484  17.734  0.00  0.00    +0.000 A 
ATOM     24  C   UNL     1       1.891   4.873  17.972  0.00  0.00    +0.000 A 
ATOM     25  C   UNL     1       1.750   3.487  17.927  0.00  0.00    +0.000 A 
ATOM     26  C   UNL     1       2.860   2.687  17.698  0.00  0.00    +0.000 A 
ATOM     27  C   UNL     1       4.107   3.279  17.481  0.00  0.00    +0.000 A 
ATOM     28  C   UNL     1       4.255   4.676  17.456  0.00  0.00    +0.000 A 
BRANCH  18  30
ATOM     29  C   UNL     1       7.749   4.437  17.626  0.00  0.00    +0.000 C 
ATOM     30  C   UNL     1       6.616   4.501  16.607  0.00  0.00    +0.000 C 
ENDBRANCH  18  30
ENDBRANCH  17  22
ENDBRANCH   1  17
TORSDOF 7
ENDMDL
MODEL 9
REMARK VINA RESULT:      -7.6      6.190      8.794
REMARK  Name = 
REMARK  10 active torsions:
REMARK  status: ('A' for Active; 'I' for Inactive)
REMARK    1  A    between atoms: C_1  and  C_2
REMARK    2  A    between atoms: C_2  and  N_3
REMARK    3  A    between atoms: C_7  and  O_8
REMARK    4  A    between atoms: O_8  and  C_9
REMARK    5  A    between atoms: C_9  and  C_10
REMARK    6  A    between atoms: N_12  and  C_13
REMARK    7  A    between atoms: C_17  and  O_18
REMARK    8  A    between atoms: O_18  and  C_19
REMARK    9  A    between atoms: C_21  and  O_22
REMARK   10  A    between atoms: O_22  and  C_23
REMARK                            x       y       z     vdW  Elec       q    Type
REMARK                         _______ _______ _______ _____ _____    ______ ____
ROOT
ATOM      1  C   UNL     1       2.140   9.358  17.961  0.00  0.00    +0.000 C 
ENDROOT
BRANCH   1   2
ATOM      2  C   UNL     1       2.406   7.955  18.490  0.00  0.00    +0.000 C 
ATOM      3  O   UNL     1       2.177   7.657  19.658  0.00  0.00    +0.000 OA
ATOM      4  N   UNL     1       2.963   7.096  17.541  0.00  0.00    +0.000 N 
ATOM      5  H   UNL     1       3.449   7.531  16.770  0.00  0.00    +0.000 HD
BRANCH   4   6
ATOM      6  C   UNL     1       3.344   5.795  17.923  0.00  0.00    +0.000 A 
ATOM      7  C   UNL     1       2.326   4.832  18.000  0.00  0.00    +0.000 A 
ATOM      8  C   UNL     1       2.593   3.538  18.440  0.00  0.00    +0.000 A 
ATOM      9 CL   UNL     1       1.275   2.422  18.528  0.00  0.00    +0.000 Cl
ATOM     10  C   UNL     1       3.892   3.171  18.805  0.00  0.00    +0.000 A 
ATOM     11  C   UNL     1       4.922   4.108  18.647  0.00  0.00    +0.000 A 
ATOM     12  C   UNL     1       4.666   5.422  18.203  0.00  0.00    +0.000 A 
BRANCH  10  13
ATOM     13  O   UNL     1       4.052   1.907  19.306  0.00  0.00    +0.000 OA
ATOM     14  C   UNL     1       4.647   1.766  20.586  0.00  0.00    +0.000 C 
ENDBRANCH  10  13
BRANCH  12  15
ATOM     15  O   UNL     1       5.806   6.172  18.093  0.00  0.00    +0.000 OA
ATOM     16  C   UNL     1       6.520   6.179  16.864  0.00  0.00    +0.000 C 
ENDBRANCH  12  15
ENDBRANCH   4   6
ENDBRANCH   1   2
BRANCH   1  17
ATOM     17  O   UNL     1       0.730   9.540  17.887  0.00  0.00    +0.000 OA
BRANCH  17  22
ATOM     18  N   UNL     1      -1.268  12.302  20.371  0.00  0.00    +0.000 N 
ATOM     19  C   UNL     1       0.051  11.991  20.677  0.00  0.00    +0.000 A 
ATOM     20  O   UNL     1       0.660  12.429  21.655  0.00  0.00    +0.000 OA
ATOM     21  C   UNL     1       0.757  11.064  19.777  0.00  0.00    +0.000 A 
ATOM     22  C   UNL     1       0.153  10.442  18.751  0.00  0.00    +0.000 A 
ATOM     23  C   UNL     1      -1.275  10.726  18.500  0.00  0.00    +0.000 A 
ATOM     24  C   UNL     1      -1.978  10.034  17.496  0.00  0.00    +0.000 A 
ATOM     25  C   UNL     1      -3.335  10.269  17.277  0.00  0.00    +0.000 A 
ATOM     26  C   UNL     1      -3.996  11.237  18.019  0.00  0.00    +0.000 A 
ATOM     27  C   UNL     1      -3.305  11.947  19.004  0.00  0.00    +0.000 A 
ATOM     28  C   UNL     1      -1.956  11.677  19.283  0.00  0.00    +0.000 A 
BRANCH  18  30
ATOM     29  C   UNL     1      -2.497  12.291  22.511  0.00  0.00    +0.000 C 
ATOM     30  C   UNL     1      -1.997  13.128  21.338  0.00  0.00    +0.000 C 
ENDBRANCH  18  30
ENDBRANCH  17  22
ENDBRANCH   1  17
TORSDOF 7
ENDMDL
