MODEL 1
REMARK VINA RESULT:      -8.3      0.000      0.000
REMARK  Name = 
REMARK  1 active torsions:
REMARK  status: ('A' for Active; 'I' for Inactive)
REMARK    1  A    between atoms: C_13  and  C_14
REMARK                            x       y       z     vdW  Elec       q    Type
REMARK                         _______ _______ _______ _____ _____    ______ ____
ROOT
ATOM      1  O   UNL     1       0.550  13.558  18.224  0.00  0.00    +0.000 OA
ATOM      2  C   UNL     1      -0.219  12.619  18.176  0.00  0.00    +0.000 C 
ATOM      3  N   UNL     1      -1.508  12.602  17.758  0.00  0.00    +0.000 N 
ATOM      4  C   UNL     1      -2.023  11.356  17.926  0.00  0.00    +0.000 C 
ATOM      5  N   UNL     1      -3.332  11.086  17.639  0.00  0.00    +0.000 N 
ATOM      6  C   UNL     1      -3.915   9.770  17.954  0.00  0.00    +0.000 C 
ATOM      7  C   UNL     1      -5.306   9.963  18.596  0.00  0.00    +0.000 C 
ATOM      8  N   UNL     1      -6.227  10.768  17.768  0.00  0.00    +0.000 NA
ATOM      9  C   UNL     1      -5.591  12.051  17.417  0.00  0.00    +0.000 C 
ATOM     10  C   UNL     1      -4.197  11.893  16.773  0.00  0.00    +0.000 C 
ATOM     11  N   UNL     1      -1.168  10.499  18.402  0.00  0.00    +0.000 NA
ATOM     12  C   UNL     1       0.001  11.208  18.573  0.00  0.00    +0.000 C 
ATOM     13  C   UNL     1       1.182  10.759  19.009  0.00  0.00    +0.000 C 
ATOM     14  H   UNL     1      -1.989  13.428  17.461  0.00  0.00    +0.000 HD
ATOM     15  H   UNL     1      -7.077  10.950  18.302  0.00  0.00    +0.000 HD
ENDROOT
BRANCH  13  16
ATOM     16  C   UNL     1       1.415   9.355  19.345  0.00  0.00    +0.000 A 
ATOM     17  C   UNL     1       1.045   8.883  20.620  0.00  0.00    +0.000 A 
ATOM     18  C   UNL     1       1.273   7.554  20.994  0.00  0.00    +0.000 A 
ATOM     19  C   UNL     1       1.874   6.709  20.078  0.00  0.00    +0.000 A 
ATOM     20  C   UNL     1       2.243   7.181  18.799  0.00  0.00    +0.000 A 
ATOM     21  C   UNL     1       2.020   8.495  18.420  0.00  0.00    +0.000 A 
ATOM     22  C   UNL     1       2.887   6.070  17.995  0.00  0.00    +0.000 C 
ATOM     23  C   UNL     1       2.831   4.907  18.966  0.00  0.00    +0.000 A 
ATOM     24  C   UNL     1       3.274   3.609  18.774  0.00  0.00    +0.000 A 
ATOM     25  C   UNL     1       3.123   2.704  19.827  0.00  0.00    +0.000 A 
ATOM     26  C   UNL     1       2.540   3.103  21.042  0.00  0.00    +0.000 A 
ATOM     27  C   UNL     1       2.093   4.415  21.225  0.00  0.00    +0.000 A 
ATOM     28  C   UNL     1       2.239   5.313  20.181  0.00  0.00    +0.000 A 
ENDBRANCH  13  16
TORSDOF 1
ENDMDL
MODEL 2
REMARK VINA RESULT:      -8.2      2.310      3.608
REMARK  Name = 
REMARK  1 active torsions:
REMARK  status: ('A' for Active; 'I' for Inactive)
REMARK    1  A    between atoms: C_13  and  C_14
REMARK                            x       y       z     vdW  Elec       q    Type
REMARK                         _______ _______ _______ _____ _____    ______ ____
ROOT
ATOM      1  O   UNL     1      -0.070   9.654  23.453  0.00  0.00    +0.000 OA
ATOM      2  C   UNL     1      -0.179   9.723  22.245  0.00  0.00    +0.000 C 
ATOM      3  N   UNL     1      -0.923  10.586  21.511  0.00  0.00    +0.000 N 
ATOM      4  C   UNL     1      -0.807  10.277  20.194  0.00  0.00    +0.000 C 
ATOM      5  N   UNL     1      -1.512  10.959  19.241  0.00  0.00    +0.000 N 
ATOM      6  C   UNL     1      -1.484  10.527  17.832  0.00  0.00    +0.000 C 
ATOM      7  C   UNL     1      -2.915  10.564  17.254  0.00  0.00    +0.000 C 
ATOM      8  N   UNL     1      -3.570  11.881  17.395  0.00  0.00    +0.000 NA
ATOM      9  C   UNL     1      -3.525  12.314  18.803  0.00  0.00    +0.000 C 
ATOM     10  C   UNL     1      -2.107  12.287  19.413  0.00  0.00    +0.000 C 
ATOM     11  N   UNL     1      -0.006   9.278  19.962  0.00  0.00    +0.000 NA
ATOM     12  C   UNL     1       0.447   8.880  21.200  0.00  0.00    +0.000 C 
ATOM     13  C   UNL     1       1.319   7.909  21.486  0.00  0.00    +0.000 C 
ATOM     14  H   UNL     1      -1.519  11.273  21.928  0.00  0.00    +0.000 HD
ATOM     15  H   UNL     1      -4.543  11.799  17.100  0.00  0.00    +0.000 HD
ENDROOT
BRANCH  13  16
ATOM     16  C   UNL     1       1.982   7.115  20.452  0.00  0.00    +0.000 A 
ATOM     17  C   UNL     1       1.956   5.709  20.542  0.00  0.00    +0.000 A 
ATOM     18  C   UNL     1       2.599   4.911  19.589  0.00  0.00    +0.000 A 
ATOM     19  C   UNL     1       3.265   5.537  18.550  0.00  0.00    +0.000 A 
ATOM     20  C   UNL     1       3.289   6.946  18.458  0.00  0.00    +0.000 A 
ATOM     21  C   UNL     1       2.655   7.745  19.397  0.00  0.00    +0.000 A 
ATOM     22  C   UNL     1       4.087   7.380  17.246  0.00  0.00    +0.000 C 
ATOM     23  C   UNL     1       4.505   6.048  16.652  0.00  0.00    +0.000 A 
ATOM     24  C   UNL     1       5.257   5.816  15.513  0.00  0.00    +0.000 A 
ATOM     25  C   UNL     1       5.525   4.490  15.166  0.00  0.00    +0.000 A 
ATOM     26  C   UNL     1       5.046   3.428  15.951  0.00  0.00    +0.000 A 
ATOM     27  C   UNL     1       4.285   3.673  17.099  0.00  0.00    +0.000 A 
ATOM     28  C   UNL     1       4.015   4.986  17.443  0.00  0.00    +0.000 A 
ENDBRANCH  13  16
TORSDOF 1
ENDMDL
MODEL 3
REMARK VINA RESULT:      -8.2      4.646      7.156
REMARK  Name = 
REMARK  1 active torsions:
REMARK  status: ('A' for Active; 'I' for Inactive)
REMARK    1  A    between atoms: C_13  and  C_14
REMARK                            x       y       z     vdW  Elec       q    Type
REMARK                         _______ _______ _______ _____ _____    ______ ____
ROOT
ATOM      1  O   UNL     1       2.268   4.137  21.662  0.00  0.00    +0.000 OA
ATOM      2  C   UNL     1       2.355   5.105  20.933  0.00  0.00    +0.000 C 
ATOM      3  N   UNL     1       1.768   6.319  21.065  0.00  0.00    +0.000 N 
ATOM      4  C   UNL     1       2.083   7.093  19.994  0.00  0.00    +0.000 C 
ATOM      5  N   UNL     1       1.563   8.350  19.851  0.00  0.00    +0.000 N 
ATOM      6  C   UNL     1       1.800   9.126  18.621  0.00  0.00    +0.000 C 
ATOM      7  C   UNL     1       0.481   9.791  18.169  0.00  0.00    +0.000 C 
ATOM      8  N   UNL     1      -0.142  10.627  19.215  0.00  0.00    +0.000 NA
ATOM      9  C   UNL     1      -0.308   9.842  20.451  0.00  0.00    +0.000 C 
ATOM     10  C   UNL     1       0.993   9.162  20.930  0.00  0.00    +0.000 C 
ATOM     11  N   UNL     1       2.875   6.509  19.144  0.00  0.00    +0.000 NA
ATOM     12  C   UNL     1       3.111   5.257  19.667  0.00  0.00    +0.000 C 
ATOM     13  C   UNL     1       3.891   4.291  19.175  0.00  0.00    +0.000 C 
ATOM     14  H   UNL     1       1.137   6.534  21.811  0.00  0.00    +0.000 HD
ATOM     15  H   UNL     1      -1.058  10.936  18.889  0.00  0.00    +0.000 HD
ENDROOT
BRANCH  13  16
ATOM     16  C   UNL     1       4.684   4.462  17.957  0.00  0.00    +0.000 A 
ATOM     17  C   UNL     1       5.755   5.377  17.958  0.00  0.00    +0.000 A 
ATOM     18  C   UNL     1       6.523   5.592  16.808  0.00  0.00    +0.000 A 
ATOM     19  C   UNL     1       6.205   4.882  15.664  0.00  0.00    +0.000 A 
ATOM     20  C   UNL     1       5.134   3.962  15.664  0.00  0.00    +0.000 A 
ATOM     21  C   UNL     1       4.367   3.743  16.799  0.00  0.00    +0.000 A 
ATOM     22  C   UNL     1       4.986   3.327  14.297  0.00  0.00    +0.000 C 
ATOM     23  C   UNL     1       6.110   3.987  13.522  0.00  0.00    +0.000 A 
ATOM     24  C   UNL     1       6.471   3.788  12.199  0.00  0.00    +0.000 A 
ATOM     25  C   UNL     1       7.546   4.525  11.698  0.00  0.00    +0.000 A 
ATOM     26  C   UNL     1       8.236   5.439  12.511  0.00  0.00    +0.000 A 
ATOM     27  C   UNL     1       7.866   5.631  13.846  0.00  0.00    +0.000 A 
ATOM     28  C   UNL     1       6.803   4.899  14.347  0.00  0.00    +0.000 A 
ENDBRANCH  13  16
TORSDOF 1
ENDMDL
MODEL 4
REMARK VINA RESULT:      -8.1      4.300      8.064
REMARK  Name = 
REMARK  1 active torsions:
REMARK  status: ('A' for Active; 'I' for Inactive)
REMARK    1  A    between atoms: C_13  and  C_14
REMARK                            x       y       z     vdW  Elec       q    Type
REMARK                         _______ _______ _______ _____ _____    ______ ____
ROOT
ATOM      1  O   UNL     1       5.204   6.870  15.861  0.00  0.00    +0.000 OA
ATOM      2  C   UNL     1       4.485   6.408  16.724  0.00  0.00    +0.000 C 
ATOM      3  N   UNL     1       4.406   5.129  17.165  0.00  0.00    +0.000 N 
ATOM      4  C   UNL     1       3.426   5.033  18.102  0.00  0.00    +0.000 C 
ATOM      5  N   UNL     1       3.099   3.829  18.662  0.00  0.00    +0.000 N 
ATOM      6  C   UNL     1       1.946   3.713  19.573  0.00  0.00    +0.000 C 
ATOM      7  C   UNL     1       1.132   2.451  19.214  0.00  0.00    +0.000 C 
ATOM      8  N   UNL     1       1.938   1.213  19.216  0.00  0.00    +0.000 NA
ATOM      9  C   UNL     1       3.117   1.383  18.347  0.00  0.00    +0.000 C 
ATOM     10  C   UNL     1       3.952   2.638  18.678  0.00  0.00    +0.000 C 
ATOM     11  N   UNL     1       2.843   6.166  18.364  0.00  0.00    +0.000 NA
ATOM     12  C   UNL     1       3.462   7.090  17.552  0.00  0.00    +0.000 C 
ATOM     13  C   UNL     1       3.236   8.405  17.478  0.00  0.00    +0.000 C 
ATOM     14  H   UNL     1       4.947   4.388  16.767  0.00  0.00    +0.000 HD
ATOM     15  H   UNL     1       1.367   0.446  18.860  0.00  0.00    +0.000 HD
ENDROOT
BRANCH  13  16
ATOM     16  C   UNL     1       2.267   9.087  18.336  0.00  0.00    +0.000 A 
ATOM     17  C   UNL     1       1.654  10.270  17.874  0.00  0.00    +0.000 A 
ATOM     18  C   UNL     1       0.742  10.970  18.672  0.00  0.00    +0.000 A 
ATOM     19  C   UNL     1       0.453  10.472  19.930  0.00  0.00    +0.000 A 
ATOM     20  C   UNL     1       1.065   9.286  20.391  0.00  0.00    +0.000 A 
ATOM     21  C   UNL     1       1.970   8.585  19.608  0.00  0.00    +0.000 A 
ATOM     22  C   UNL     1       0.592   8.962  21.793  0.00  0.00    +0.000 C 
ATOM     23  C   UNL     1      -0.371  10.100  22.070  0.00  0.00    +0.000 A 
ATOM     24  C   UNL     1      -1.121  10.329  23.212  0.00  0.00    +0.000 A 
ATOM     25  C   UNL     1      -1.939  11.460  23.240  0.00  0.00    +0.000 A 
ATOM     26  C   UNL     1      -1.994  12.338  22.145  0.00  0.00    +0.000 A 
ATOM     27  C   UNL     1      -1.234  12.098  20.995  0.00  0.00    +0.000 A 
ATOM     28  C   UNL     1      -0.426  10.974  20.963  0.00  0.00    +0.000 A 
ENDBRANCH  13  16
TORSDOF 1
ENDMDL
MODEL 5
REMARK VINA RESULT:      -8.0      1.701      2.672
REMARK  Name = 
REMARK  1 active torsions:
REMARK  status: ('A' for Active; 'I' for Inactive)
REMARK    1  A    between atoms: C_13  and  C_14
REMARK                            x       y       z     vdW  Elec       q    Type
REMARK                         _______ _______ _______ _____ _____    ______ ____
ROOT
ATOM      1  O   UNL     1      -0.090  11.399  22.763  0.00  0.00    +0.000 OA
ATOM      2  C   UNL     1      -0.408  10.993  21.663  0.00  0.00    +0.000 C 
ATOM      3  N   UNL     1      -1.311  11.514  20.798  0.00  0.00    +0.000 N 
ATOM      4  C   UNL     1      -1.405  10.714  19.704  0.00  0.00    +0.000 C 
ATOM      5  N   UNL     1      -2.297  10.983  18.704  0.00  0.00    +0.000 N 
ATOM      6  C   UNL     1      -2.487  10.036  17.591  0.00  0.00    +0.000 C 
ATOM      7  C   UNL     1      -3.997   9.869  17.309  0.00  0.00    +0.000 C 
ATOM      8  N   UNL     1      -4.688  11.148  17.044  0.00  0.00    +0.000 NA
ATOM      9  C   UNL     1      -4.426  12.095  18.142  0.00  0.00    +0.000 C 
ATOM     10  C   UNL     1      -2.926  12.283  18.452  0.00  0.00    +0.000 C 
ATOM     11  N   UNL     1      -0.603   9.690  19.738  0.00  0.00    +0.000 NA
ATOM     12  C   UNL     1       0.076   9.799  20.932  0.00  0.00    +0.000 C 
ATOM     13  C   UNL     1       1.034   9.001  21.411  0.00  0.00    +0.000 C 
ATOM     14  H   UNL     1      -1.863  12.320  21.016  0.00  0.00    +0.000 HD
ATOM     15  H   UNL     1      -5.691  10.974  16.982  0.00  0.00    +0.000 HD
ENDROOT
BRANCH  13  16
ATOM     16  C   UNL     1       1.553   7.855  20.663  0.00  0.00    +0.000 A 
ATOM     17  C   UNL     1       2.186   8.075  19.423  0.00  0.00    +0.000 A 
ATOM     18  C   UNL     1       2.674   7.007  18.662  0.00  0.00    +0.000 A 
ATOM     19  C   UNL     1       2.520   5.724  19.156  0.00  0.00    +0.000 A 
ATOM     20  C   UNL     1       1.888   5.504  20.399  0.00  0.00    +0.000 A 
ATOM     21  C   UNL     1       1.402   6.556  21.161  0.00  0.00    +0.000 A 
ATOM     22  C   UNL     1       1.835   4.022  20.707  0.00  0.00    +0.000 C 
ATOM     23  C   UNL     1       2.523   3.425  19.495  0.00  0.00    +0.000 A 
ATOM     24  C   UNL     1       2.774   2.090  19.224  0.00  0.00    +0.000 A 
ATOM     25  C   UNL     1       3.421   1.778  18.026  0.00  0.00    +0.000 A 
ATOM     26  C   UNL     1       3.800   2.788  17.126  0.00  0.00    +0.000 A 
ATOM     27  C   UNL     1       3.543   4.134  17.410  0.00  0.00    +0.000 A 
ATOM     28  C   UNL     1       2.907   4.446  18.599  0.00  0.00    +0.000 A 
ENDBRANCH  13  16
TORSDOF 1
ENDMDL
MODEL 6
REMARK VINA RESULT:      -8.0      3.322      4.656
REMARK  Name = 
REMARK  1 active torsions:
REMARK  status: ('A' for Active; 'I' for Inactive)
REMARK    1  A    between atoms: C_13  and  C_14
REMARK                            x       y       z     vdW  Elec       q    Type
REMARK                         _______ _______ _______ _____ _____    ______ ____
ROOT
ATOM      1  O   UNL     1      -0.740   8.678  23.108  0.00  0.00    +0.000 OA
ATOM      2  C   UNL     1      -0.273   9.340  22.203  0.00  0.00    +0.000 C 
ATOM      3  N   UNL     1      -0.434  10.662  21.950  0.00  0.00    +0.000 N 
ATOM      4  C   UNL     1       0.215  10.986  20.802  0.00  0.00    +0.000 C 
ATOM      5  N   UNL     1       0.155  12.252  20.288  0.00  0.00    +0.000 N 
ATOM      6  C   UNL     1       0.746  12.558  18.973  0.00  0.00    +0.000 C 
ATOM      7  C   UNL     1      -0.233  13.435  18.161  0.00  0.00    +0.000 C 
ATOM      8  N   UNL     1      -0.635  14.670  18.864  0.00  0.00    +0.000 NA
ATOM      9  C   UNL     1      -1.162  14.336  20.200  0.00  0.00    +0.000 C 
ATOM     10  C   UNL     1      -0.208  13.458  21.038  0.00  0.00    +0.000 C 
ATOM     11  N   UNL     1       0.842   9.985  20.257  0.00  0.00    +0.000 NA
ATOM     12  C   UNL     1       0.602   8.911  21.086  0.00  0.00    +0.000 C 
ATOM     13  C   UNL     1       1.060   7.661  20.970  0.00  0.00    +0.000 C 
ATOM     14  H   UNL     1      -1.022  11.249  22.508  0.00  0.00    +0.000 HD
ATOM     15  H   UNL     1      -1.363  15.136  18.323  0.00  0.00    +0.000 HD
ENDROOT
BRANCH  13  16
ATOM     16  C   UNL     1       1.970   7.252  19.900  0.00  0.00    +0.000 A 
ATOM     17  C   UNL     1       2.241   8.150  18.848  0.00  0.00    +0.000 A 
ATOM     18  C   UNL     1       3.085   7.791  17.791  0.00  0.00    +0.000 A 
ATOM     19  C   UNL     1       3.650   6.528  17.802  0.00  0.00    +0.000 A 
ATOM     20  C   UNL     1       3.381   5.630  18.858  0.00  0.00    +0.000 A 
ATOM     21  C   UNL     1       2.547   5.977  19.909  0.00  0.00    +0.000 A 
ATOM     22  C   UNL     1       4.108   4.320  18.631  0.00  0.00    +0.000 C 
ATOM     23  C   UNL     1       4.831   4.585  17.325  0.00  0.00    +0.000 A 
ATOM     24  C   UNL     1       5.669   3.735  16.622  0.00  0.00    +0.000 A 
ATOM     25  C   UNL     1       6.218   4.201  15.426  0.00  0.00    +0.000 A 
ATOM     26  C   UNL     1       5.926   5.491  14.952  0.00  0.00    +0.000 A 
ATOM     27  C   UNL     1       5.081   6.343  15.670  0.00  0.00    +0.000 A 
ATOM     28  C   UNL     1       4.538   5.884  16.859  0.00  0.00    +0.000 A 
ENDBRANCH  13  16
TORSDOF 1
ENDMDL
MODEL 7
REMARK VINA RESULT:      -7.9      4.675      8.818
REMARK  Name = 
REMARK  1 active torsions:
REMARK  status: ('A' for Active; 'I' for Inactive)
REMARK    1  A    between atoms: C_13  and  C_14
REMARK                            x       y       z     vdW  Elec       q    Type
REMARK                         _______ _______ _______ _____ _____    ______ ____
ROOT
ATOM      1  O   UNL     1       2.218   3.434  20.663  0.00  0.00    +0.000 OA
ATOM      2  C   UNL     1       2.721   4.288  19.960  0.00  0.00    +0.000 C 
ATOM      3  N   UNL     1       3.642   4.141  18.977  0.00  0.00    +0.000 N 
ATOM      4  C   UNL     1       3.978   5.361  18.485  0.00  0.00    +0.000 C 
ATOM      5  N   UNL     1       4.940   5.496  17.522  0.00  0.00    +0.000 N 
ATOM      6  C   UNL     1       5.393   6.832  17.095  0.00  0.00    +0.000 C 
ATOM      7  C   UNL     1       6.934   6.842  16.989  0.00  0.00    +0.000 C 
ATOM      8  N   UNL     1       7.468   5.789  16.101  0.00  0.00    +0.000 NA
ATOM      9  C   UNL     1       6.946   4.475  16.515  0.00  0.00    +0.000 C 
ATOM     10  C   UNL     1       5.407   4.430  16.632  0.00  0.00    +0.000 C 
ATOM     11  N   UNL     1       3.328   6.343  19.038  0.00  0.00    +0.000 NA
ATOM     12  C   UNL     1       2.501   5.753  19.968  0.00  0.00    +0.000 C 
ATOM     13  C   UNL     1       1.611   6.343  20.772  0.00  0.00    +0.000 C 
ATOM     14  H   UNL     1       4.046   3.255  18.746  0.00  0.00    +0.000 HD
ATOM     15  H   UNL     1       8.486   5.783  16.171  0.00  0.00    +0.000 HD
ENDROOT
BRANCH  13  16
ATOM     16  C   UNL     1       1.352   7.782  20.738  0.00  0.00    +0.000 A 
ATOM     17  C   UNL     1       0.966   8.439  21.924  0.00  0.00    +0.000 A 
ATOM     18  C   UNL     1       0.682   9.809  21.933  0.00  0.00    +0.000 A 
ATOM     19  C   UNL     1       0.790  10.509  20.744  0.00  0.00    +0.000 A 
ATOM     20  C   UNL     1       1.179   9.852  19.557  0.00  0.00    +0.000 A 
ATOM     21  C   UNL     1       1.462   8.495  19.538  0.00  0.00    +0.000 A 
ATOM     22  C   UNL     1       1.211  10.832  18.401  0.00  0.00    +0.000 C 
ATOM     23  C   UNL     1       0.804  12.127  19.076  0.00  0.00    +0.000 A 
ATOM     24  C   UNL     1       0.665  13.382  18.508  0.00  0.00    +0.000 A 
ATOM     25  C   UNL     1       0.266  14.433  19.336  0.00  0.00    +0.000 A 
ATOM     26  C   UNL     1       0.011  14.220  20.702  0.00  0.00    +0.000 A 
ATOM     27  C   UNL     1       0.156  12.948  21.267  0.00  0.00    +0.000 A 
ATOM     28  C   UNL     1       0.556  11.906  20.448  0.00  0.00    +0.000 A 
ENDBRANCH  13  16
TORSDOF 1
ENDMDL
MODEL 8
REMARK VINA RESULT:      -7.9      4.794      9.018
REMARK  Name = 
REMARK  1 active torsions:
REMARK  status: ('A' for Active; 'I' for Inactive)
REMARK    1  A    between atoms: C_13  and  C_14
REMARK                            x       y       z     vdW  Elec       q    Type
REMARK                         _______ _______ _______ _____ _____    ______ ____
ROOT
ATOM      1  O   UNL     1       2.625   2.974  20.575  0.00  0.00    +0.000 OA
ATOM      2  C   UNL     1       3.038   3.883  19.883  0.00  0.00    +0.000 C 
ATOM      3  N   UNL     1       3.968   3.841  18.898  0.00  0.00    +0.000 N 
ATOM      4  C   UNL     1       4.179   5.095  18.420  0.00  0.00    +0.000 C 
ATOM      5  N   UNL     1       5.121   5.337  17.460  0.00  0.00    +0.000 N 
ATOM      6  C   UNL     1       5.438   6.717  17.049  0.00  0.00    +0.000 C 
ATOM      7  C   UNL     1       6.970   6.883  16.943  0.00  0.00    +0.000 C 
ATOM      8  N   UNL     1       7.605   5.900  16.041  0.00  0.00    +0.000 NA
ATOM      9  C   UNL     1       7.218   4.535  16.439  0.00  0.00    +0.000 C 
ATOM     10  C   UNL     1       5.692   4.335  16.556  0.00  0.00    +0.000 C 
ATOM     11  N   UNL     1       3.435   6.000  18.986  0.00  0.00    +0.000 NA
ATOM     12  C   UNL     1       2.673   5.319  19.909  0.00  0.00    +0.000 C 
ATOM     13  C   UNL     1       1.730   5.807  20.720  0.00  0.00    +0.000 C 
ATOM     14  H   UNL     1       4.458   3.003  18.655  0.00  0.00    +0.000 HD
ATOM     15  H   UNL     1       8.618   5.995  16.111  0.00  0.00    +0.000 HD
ENDROOT
BRANCH  13  16
ATOM     16  C   UNL     1       1.327   7.213  20.705  0.00  0.00    +0.000 A 
ATOM     17  C   UNL     1       1.639   8.004  19.580  0.00  0.00    +0.000 A 
ATOM     18  C   UNL     1       1.296   9.360  19.533  0.00  0.00    +0.000 A 
ATOM     19  C   UNL     1       0.642   9.910  20.621  0.00  0.00    +0.000 A 
ATOM     20  C   UNL     1       0.327   9.117  21.746  0.00  0.00    +0.000 A 
ATOM     21  C   UNL     1       0.662   7.773  21.802  0.00  0.00    +0.000 A 
ATOM     22  C   UNL     1      -0.375   9.952  22.798  0.00  0.00    +0.000 C 
ATOM     23  C   UNL     1      -0.432  11.312  22.132  0.00  0.00    +0.000 A 
ATOM     24  C   UNL     1      -0.977  12.486  22.625  0.00  0.00    +0.000 A 
ATOM     25  C   UNL     1      -0.902  13.628  21.825  0.00  0.00    +0.000 A 
ATOM     26  C   UNL     1      -0.291  13.585  20.561  0.00  0.00    +0.000 A 
ATOM     27  C   UNL     1       0.255  12.394  20.070  0.00  0.00    +0.000 A 
ATOM     28  C   UNL     1       0.178  11.259  20.860  0.00  0.00    +0.000 A 
ENDBRANCH  13  16
TORSDOF 1
ENDMDL
MODEL 9
REMARK VINA RESULT:      -7.9      3.394      4.319
REMARK  Name = 
REMARK  1 active torsions:
REMARK  status: ('A' for Active; 'I' for Inactive)
REMARK    1  A    between atoms: C_13  and  C_14
REMARK                            x       y       z     vdW  Elec       q    Type
REMARK                         _______ _______ _______ _____ _____    ______ ____
ROOT
ATOM      1  O   UNL     1      -3.007  14.512  24.314  0.00  0.00    +0.000 OA
ATOM      2  C   UNL     1      -3.283  13.965  23.265  0.00  0.00    +0.000 C 
ATOM      3  N   UNL     1      -4.321  14.213  22.429  0.00  0.00    +0.000 N 
ATOM      4  C   UNL     1      -4.292  13.330  21.397  0.00  0.00    +0.000 C 
ATOM      5  N   UNL     1      -5.271  13.325  20.443  0.00  0.00    +0.000 N 
ATOM      6  C   UNL     1      -5.305  12.278  19.406  0.00  0.00    +0.000 C 
ATOM      7  C   UNL     1      -6.754  11.770  19.235  0.00  0.00    +0.000 C 
ATOM      8  N   UNL     1      -7.720  12.847  18.935  0.00  0.00    +0.000 NA
ATOM      9  C   UNL     1      -7.617  13.908  19.953  0.00  0.00    +0.000 C 
ATOM     10  C   UNL     1      -6.181  14.437  20.151  0.00  0.00    +0.000 C 
ATOM     11  N   UNL     1      -3.285  12.508  21.443  0.00  0.00    +0.000 NA
ATOM     12  C   UNL     1      -2.588  12.850  22.580  0.00  0.00    +0.000 C 
ATOM     13  C   UNL     1      -1.455  12.315  23.045  0.00  0.00    +0.000 C 
ATOM     14  H   UNL     1      -5.024  14.895  22.632  0.00  0.00    +0.000 HD
ATOM     15  H   UNL     1      -8.663  12.458  18.950  0.00  0.00    +0.000 HD
ENDROOT
BRANCH  13  16
ATOM     16  C   UNL     1      -0.737  11.255  22.338  0.00  0.00    +0.000 A 
ATOM     17  C   UNL     1      -0.456  10.049  23.012  0.00  0.00    +0.000 A 
ATOM     18  C   UNL     1       0.251   9.018  22.384  0.00  0.00    +0.000 A 
ATOM     19  C   UNL     1       0.671   9.209  21.079  0.00  0.00    +0.000 A 
ATOM     20  C   UNL     1       0.386  10.416  20.403  0.00  0.00    +0.000 A 
ATOM     21  C   UNL     1      -0.314  11.443  21.017  0.00  0.00    +0.000 A 
ATOM     22  C   UNL     1       0.959  10.379  19.001  0.00  0.00    +0.000 C 
ATOM     23  C   UNL     1       1.593   9.003  18.957  0.00  0.00    +0.000 A 
ATOM     24  C   UNL     1       2.269   8.405  17.906  0.00  0.00    +0.000 A 
ATOM     25  C   UNL     1       2.779   7.120  18.105  0.00  0.00    +0.000 A 
ATOM     26  C   UNL     1       2.611   6.459  19.333  0.00  0.00    +0.000 A 
ATOM     27  C   UNL     1       1.925   7.071  20.388  0.00  0.00    +0.000 A 
ATOM     28  C   UNL     1       1.415   8.343  20.191  0.00  0.00    +0.000 A 
ENDBRANCH  13  16
TORSDOF 1
ENDMDL
