MODEL 1
REMARK VINA RESULT:      -7.8      0.000      0.000
REMARK  Name = 
REMARK  10 active torsions:
REMARK  status: ('A' for Active; 'I' for Inactive)
REMARK    1  A    between atoms: C_1  and  C_2
REMARK    2  A    between atoms: C_2  and  C_3
REMARK    3  A    between atoms: N_5  and  C_6
REMARK    4  A    between atoms: C_9  and  N_10
REMARK    5  A    between atoms: C_11  and  C_13
REMARK    6  A    between atoms: C_13  and  S_14
REMARK    7  A    between atoms: S_14  and  C_15
REMARK    8  A    between atoms: N_19  and  C_20
REMARK    9  A    between atoms: C_23  and  O_24
REMARK   10  A    between atoms: O_24  and  C_25
REMARK                            x       y       z     vdW  Elec       q    Type
REMARK                         _______ _______ _______ _____ _____    ______ ____
ROOT
ATOM      1  N   UNL     1       2.394   5.845  20.890  0.00  0.00    +0.000 N 
ATOM      2  C   UNL     1       1.720   4.632  20.808  0.00  0.00    +0.000 C 
ATOM      3  O   UNL     1       0.613   4.437  20.307  0.00  0.00    +0.000 OA
ATOM      4  H   UNL     1       3.355   5.823  21.211  0.00  0.00    +0.000 HD
ENDROOT
BRANCH   1   8
ATOM      5  C   UNL     1       0.996   9.552  19.365  0.00  0.00    +0.000 A 
ATOM      6  C   UNL     1       0.660   9.141  20.653  0.00  0.00    +0.000 A 
ATOM      7  C   UNL     1       1.125   7.934  21.175  0.00  0.00    +0.000 A 
ATOM      8  C   UNL     1       1.929   7.094  20.416  0.00  0.00    +0.000 A 
ATOM      9  C   UNL     1       2.276   7.494  19.121  0.00  0.00    +0.000 A 
ATOM     10  C   UNL     1       1.806   8.714  18.594  0.00  0.00    +0.000 A 
BRANCH   5  13
ATOM     11  C   UNL     1       0.990  12.028  19.160  0.00  0.00    +0.000 C 
ATOM     12  O   UNL     1       1.954  12.263  19.875  0.00  0.00    +0.000 OA
ATOM     13  N   UNL     1       0.524  10.767  18.818  0.00  0.00    +0.000 N 
ATOM     14  H   UNL     1      -0.146  10.700  18.065  0.00  0.00    +0.000 HD
BRANCH  11  16
ATOM     15  C   UNL     1      -1.191  12.663  18.119  0.00  0.00    +0.000 C 
ATOM     16  C   UNL     1       0.185  13.156  18.547  0.00  0.00    +0.000 C 
ENDBRANCH  11  16
ENDBRANCH   5  13
ENDBRANCH   1   8
BRANCH   2  17
ATOM     17  C   UNL     1       2.510   3.462  21.368  0.00  0.00    +0.000 C 
BRANCH  17  18
ATOM     18  S   UNL     1       3.975   3.154  20.346  0.00  0.00    +0.000 S 
BRANCH  18  19
ATOM     19  C   UNL     1       3.262   2.828  18.799  0.00  0.00    +0.000 A 
ATOM     20  N   UNL     1       2.223   2.046  18.611  0.00  0.00    +0.000 NA
ATOM     21  N   UNL     1       1.800   2.287  17.332  0.00  0.00    +0.000 NA
ATOM     22  N   UNL     1       2.552   3.207  16.743  0.00  0.00    +0.000 NA
ATOM     23  N   UNL     1       3.546   3.506  17.621  0.00  0.00    +0.000 N 
BRANCH  23  24
ATOM     24  C   UNL     1       4.602   4.385  17.271  0.00  0.00    +0.000 A 
ATOM     25  C   UNL     1       4.470   5.758  17.522  0.00  0.00    +0.000 A 
ATOM     26  C   UNL     1       5.547   6.618  17.280  0.00  0.00    +0.000 A 
ATOM     27  C   UNL     1       6.749   6.124  16.772  0.00  0.00    +0.000 A 
ATOM     28  C   UNL     1       6.847   4.777  16.432  0.00  0.00    +0.000 A 
ATOM     29  C   UNL     1       5.778   3.909  16.678  0.00  0.00    +0.000 A 
BRANCH  27  30
ATOM     30  O   UNL     1       7.751   7.040  16.610  0.00  0.00    +0.000 OA
ATOM     31  C   UNL     1       7.777   8.081  17.581  0.00  0.00    +0.000 C 
ENDBRANCH  27  30
ENDBRANCH  23  24
ENDBRANCH  18  19
ENDBRANCH  17  18
ENDBRANCH   2  17
TORSDOF 8
ENDMDL
MODEL 2
REMARK VINA RESULT:      -7.4      2.320      3.105
REMARK  Name = 
REMARK  10 active torsions:
REMARK  status: ('A' for Active; 'I' for Inactive)
REMARK    1  A    between atoms: C_1  and  C_2
REMARK    2  A    between atoms: C_2  and  C_3
REMARK    3  A    between atoms: N_5  and  C_6
REMARK    4  A    between atoms: C_9  and  N_10
REMARK    5  A    between atoms: C_11  and  C_13
REMARK    6  A    between atoms: C_13  and  S_14
REMARK    7  A    between atoms: S_14  and  C_15
REMARK    8  A    between atoms: N_19  and  C_20
REMARK    9  A    between atoms: C_23  and  O_24
REMARK   10  A    between atoms: O_24  and  C_25
REMARK                            x       y       z     vdW  Elec       q    Type
REMARK                         _______ _______ _______ _____ _____    ______ ____
ROOT
ATOM      1  N   UNL     1       2.862   5.906  19.978  0.00  0.00    +0.000 N 
ATOM      2  C   UNL     1       2.242   4.690  20.241  0.00  0.00    +0.000 C 
ATOM      3  O   UNL     1       1.039   4.499  20.417  0.00  0.00    +0.000 OA
ATOM      4  H   UNL     1       3.843   5.883  19.725  0.00  0.00    +0.000 HD
ENDROOT
BRANCH   1   8
ATOM      5  C   UNL     1       0.932   9.662  19.543  0.00  0.00    +0.000 A 
ATOM      6  C   UNL     1       0.852   8.957  20.741  0.00  0.00    +0.000 A 
ATOM      7  C   UNL     1       1.495   7.729  20.906  0.00  0.00    +0.000 A 
ATOM      8  C   UNL     1       2.224   7.163  19.869  0.00  0.00    +0.000 A 
ATOM      9  C   UNL     1       2.314   7.862  18.660  0.00  0.00    +0.000 A 
ATOM     10  C   UNL     1       1.665   9.101  18.494  0.00  0.00    +0.000 A 
BRANCH   5  13
ATOM     11  C   UNL     1       0.412  12.004  20.186  0.00  0.00    +0.000 C 
ATOM     12  O   UNL     1       1.207  12.110  21.110  0.00  0.00    +0.000 OA
ATOM     13  N   UNL     1       0.278  10.901  19.356  0.00  0.00    +0.000 N 
ATOM     14  H   UNL     1      -0.264  11.010  18.511  0.00  0.00    +0.000 HD
BRANCH  11  16
ATOM     15  C   UNL     1      -0.403  13.527  18.381  0.00  0.00    +0.000 C 
ATOM     16  C   UNL     1      -0.538  13.135  19.846  0.00  0.00    +0.000 C 
ENDBRANCH  11  16
ENDBRANCH   5  13
ENDBRANCH   1   8
BRANCH   2  17
ATOM     17  C   UNL     1       3.200   3.512  20.248  0.00  0.00    +0.000 C 
BRANCH  17  18
ATOM     18  S   UNL     1       3.989   3.341  18.626  0.00  0.00    +0.000 S 
BRANCH  18  19
ATOM     19  C   UNL     1       5.394   4.341  18.813  0.00  0.00    +0.000 A 
ATOM     20  N   UNL     1       5.859   4.758  19.970  0.00  0.00    +0.000 NA
ATOM     21  N   UNL     1       7.110   5.250  19.713  0.00  0.00    +0.000 NA
ATOM     22  N   UNL     1       7.419   5.131  18.429  0.00  0.00    +0.000 NA
ATOM     23  N   UNL     1       6.312   4.637  17.814  0.00  0.00    +0.000 N 
BRANCH  23  24
ATOM     24  C   UNL     1       6.255   4.484  16.406  0.00  0.00    +0.000 A 
ATOM     25  C   UNL     1       7.347   4.885  15.623  0.00  0.00    +0.000 A 
ATOM     26  C   UNL     1       7.344   4.638  14.246  0.00  0.00    +0.000 A 
ATOM     27  C   UNL     1       6.255   4.012  13.638  0.00  0.00    +0.000 A 
ATOM     28  C   UNL     1       5.131   3.702  14.401  0.00  0.00    +0.000 A 
ATOM     29  C   UNL     1       5.129   3.937  15.779  0.00  0.00    +0.000 A 
BRANCH  27  30
ATOM     30  O   UNL     1       6.370   3.783  12.295  0.00  0.00    +0.000 OA
ATOM     31  C   UNL     1       5.265   3.107  11.704  0.00  0.00    +0.000 C 
ENDBRANCH  27  30
ENDBRANCH  23  24
ENDBRANCH  18  19
ENDBRANCH  17  18
ENDBRANCH   2  17
TORSDOF 8
ENDMDL
MODEL 3
REMARK VINA RESULT:      -7.1      2.825      3.557
REMARK  Name = 
REMARK  10 active torsions:
REMARK  status: ('A' for Active; 'I' for Inactive)
REMARK    1  A    between atoms: C_1  and  C_2
REMARK    2  A    between atoms: C_2  and  C_3
REMARK    3  A    between atoms: N_5  and  C_6
REMARK    4  A    between atoms: C_9  and  N_10
REMARK    5  A    between atoms: C_11  and  C_13
REMARK    6  A    between atoms: C_13  and  S_14
REMARK    7  A    between atoms: S_14  and  C_15
REMARK    8  A    between atoms: N_19  and  C_20
REMARK    9  A    between atoms: C_23  and  O_24
REMARK   10  A    between atoms: O_24  and  C_25
REMARK                            x       y       z     vdW  Elec       q    Type
REMARK                         _______ _______ _______ _____ _____    ______ ____
ROOT
ATOM      1  N   UNL     1       1.798   7.971  20.307  0.00  0.00    +0.000 N 
ATOM      2  C   UNL     1       2.147   7.864  18.966  0.00  0.00    +0.000 C 
ATOM      3  O   UNL     1       1.793   8.609  18.051  0.00  0.00    +0.000 OA
ATOM      4  H   UNL     1       2.275   7.361  20.962  0.00  0.00    +0.000 HD
ENDROOT
BRANCH   1   8
ATOM      5  C   UNL     1      -0.663  10.916  22.120  0.00  0.00    +0.000 A 
ATOM      6  C   UNL     1      -0.287  11.029  20.784  0.00  0.00    +0.000 A 
ATOM      7  C   UNL     1       0.507  10.061  20.169  0.00  0.00    +0.000 A 
ATOM      8  C   UNL     1       0.962   8.958  20.878  0.00  0.00    +0.000 A 
ATOM      9  C   UNL     1       0.592   8.831  22.222  0.00  0.00    +0.000 A 
ATOM     10  C   UNL     1      -0.211   9.809  22.843  0.00  0.00    +0.000 A 
BRANCH   5  13
ATOM     11  C   UNL     1      -1.114  13.229  22.907  0.00  0.00    +0.000 C 
ATOM     12  O   UNL     1      -0.149  13.777  22.392  0.00  0.00    +0.000 OA
ATOM     13  N   UNL     1      -1.458  11.893  22.761  0.00  0.00    +0.000 N 
ATOM     14  H   UNL     1      -2.379  11.608  23.064  0.00  0.00    +0.000 HD
BRANCH  11  16
ATOM     15  C   UNL     1      -1.321  15.053  24.600  0.00  0.00    +0.000 C 
ATOM     16  C   UNL     1      -2.071  14.008  23.786  0.00  0.00    +0.000 C 
ENDBRANCH  11  16
ENDBRANCH   5  13
ENDBRANCH   1   8
BRANCH   2  17
ATOM     17  C   UNL     1       3.102   6.720  18.678  0.00  0.00    +0.000 C 
BRANCH  17  18
ATOM     18  S   UNL     1       2.182   5.167  18.514  0.00  0.00    +0.000 S 
BRANCH  18  19
ATOM     19  C   UNL     1       3.166   4.077  19.437  0.00  0.00    +0.000 A 
ATOM     20  N   UNL     1       2.759   3.442  20.514  0.00  0.00    +0.000 NA
ATOM     21  N   UNL     1       3.704   2.482  20.760  0.00  0.00    +0.000 NA
ATOM     22  N   UNL     1       4.667   2.512  19.849  0.00  0.00    +0.000 NA
ATOM     23  N   UNL     1       4.399   3.575  19.045  0.00  0.00    +0.000 N 
BRANCH  23  24
ATOM     24  C   UNL     1       5.294   3.969  18.018  0.00  0.00    +0.000 A 
ATOM     25  C   UNL     1       5.007   3.636  16.687  0.00  0.00    +0.000 A 
ATOM     26  C   UNL     1       5.826   4.113  15.658  0.00  0.00    +0.000 A 
ATOM     27  C   UNL     1       6.939   4.903  15.944  0.00  0.00    +0.000 A 
ATOM     28  C   UNL     1       7.279   5.152  17.272  0.00  0.00    +0.000 A 
ATOM     29  C   UNL     1       6.461   4.686  18.307  0.00  0.00    +0.000 A 
BRANCH  27  30
ATOM     30  O   UNL     1       7.650   5.350  14.865  0.00  0.00    +0.000 OA
ATOM     31  C   UNL     1       7.158   4.917  13.600  0.00  0.00    +0.000 C 
ENDBRANCH  27  30
ENDBRANCH  23  24
ENDBRANCH  18  19
ENDBRANCH  17  18
ENDBRANCH   2  17
TORSDOF 8
ENDMDL
MODEL 4
REMARK VINA RESULT:      -7.1      5.037      7.526
REMARK  Name = 
REMARK  10 active torsions:
REMARK  status: ('A' for Active; 'I' for Inactive)
REMARK    1  A    between atoms: C_1  and  C_2
REMARK    2  A    between atoms: C_2  and  C_3
REMARK    3  A    between atoms: N_5  and  C_6
REMARK    4  A    between atoms: C_9  and  N_10
REMARK    5  A    between atoms: C_11  and  C_13
REMARK    6  A    between atoms: C_13  and  S_14
REMARK    7  A    between atoms: S_14  and  C_15
REMARK    8  A    between atoms: N_19  and  C_20
REMARK    9  A    between atoms: C_23  and  O_24
REMARK   10  A    between atoms: O_24  and  C_25
REMARK                            x       y       z     vdW  Elec       q    Type
REMARK                         _______ _______ _______ _____ _____    ______ ____
ROOT
ATOM      1  N   UNL     1       9.147   9.136  19.132  0.00  0.00    +0.000 N 
ATOM      2  C   UNL     1       8.195   8.562  18.298  0.00  0.00    +0.000 C 
ATOM      3  O   UNL     1       7.481   9.146  17.483  0.00  0.00    +0.000 OA
ATOM      4  H   UNL     1       9.749   8.508  19.653  0.00  0.00    +0.000 HD
ENDROOT
BRANCH   1   8
ATOM      5  C   UNL     1      10.100  13.271  19.255  0.00  0.00    +0.000 A 
ATOM      6  C   UNL     1       9.585  12.627  20.377  0.00  0.00    +0.000 A 
ATOM      7  C   UNL     1       9.283  11.265  20.359  0.00  0.00    +0.000 A 
ATOM      8  C   UNL     1       9.472  10.510  19.209  0.00  0.00    +0.000 A 
ATOM      9  C   UNL     1       9.990  11.144  18.074  0.00  0.00    +0.000 A 
ATOM     10  C   UNL     1      10.295  12.520  18.093  0.00  0.00    +0.000 A 
BRANCH   5  13
ATOM     11  C   UNL     1       9.512  15.660  18.912  0.00  0.00    +0.000 C 
ATOM     12  O   UNL     1       8.317  15.514  18.693  0.00  0.00    +0.000 OA
ATOM     13  N   UNL     1      10.400  14.652  19.254  0.00  0.00    +0.000 N 
ATOM     14  H   UNL     1      11.308  14.923  19.606  0.00  0.00    +0.000 HD
BRANCH  11  16
ATOM     15  C   UNL     1       9.140  18.071  18.374  0.00  0.00    +0.000 C 
ATOM     16  C   UNL     1      10.153  17.030  18.831  0.00  0.00    +0.000 C 
ENDBRANCH  11  16
ENDBRANCH   5  13
ENDBRANCH   1   8
BRANCH   2  17
ATOM     17  C   UNL     1       8.116   7.050  18.420  0.00  0.00    +0.000 C 
BRANCH  17  18
ATOM     18  S   UNL     1       6.397   6.501  18.249  0.00  0.00    +0.000 S 
BRANCH  18  19
ATOM     19  C   UNL     1       6.458   5.617  16.759  0.00  0.00    +0.000 A 
ATOM     20  N   UNL     1       7.404   5.750  15.855  0.00  0.00    +0.000 NA
ATOM     21  N   UNL     1       7.254   4.692  14.999  0.00  0.00    +0.000 NA
ATOM     22  N   UNL     1       6.247   3.914  15.370  0.00  0.00    +0.000 NA
ATOM     23  N   UNL     1       5.664   4.524  16.435  0.00  0.00    +0.000 N 
BRANCH  23  24
ATOM     24  C   UNL     1       4.479   4.015  17.022  0.00  0.00    +0.000 A 
ATOM     25  C   UNL     1       3.418   4.886  17.304  0.00  0.00    +0.000 A 
ATOM     26  C   UNL     1       2.206   4.376  17.783  0.00  0.00    +0.000 A 
ATOM     27  C   UNL     1       2.047   3.007  18.000  0.00  0.00    +0.000 A 
ATOM     28  C   UNL     1       3.133   2.154  17.812  0.00  0.00    +0.000 A 
ATOM     29  C   UNL     1       4.345   2.654  17.326  0.00  0.00    +0.000 A 
BRANCH  27  30
ATOM     30  O   UNL     1       0.812   2.609  18.431  0.00  0.00    +0.000 OA
ATOM     31  C   UNL     1       0.537   2.880  19.802  0.00  0.00    +0.000 C 
ENDBRANCH  27  30
ENDBRANCH  23  24
ENDBRANCH  18  19
ENDBRANCH  17  18
ENDBRANCH   2  17
TORSDOF 8
ENDMDL
MODEL 5
REMARK VINA RESULT:      -7.1      5.254      7.896
REMARK  Name = 
REMARK  10 active torsions:
REMARK  status: ('A' for Active; 'I' for Inactive)
REMARK    1  A    between atoms: C_1  and  C_2
REMARK    2  A    between atoms: C_2  and  C_3
REMARK    3  A    between atoms: N_5  and  C_6
REMARK    4  A    between atoms: C_9  and  N_10
REMARK    5  A    between atoms: C_11  and  C_13
REMARK    6  A    between atoms: C_13  and  S_14
REMARK    7  A    between atoms: S_14  and  C_15
REMARK    8  A    between atoms: N_19  and  C_20
REMARK    9  A    between atoms: C_23  and  O_24
REMARK   10  A    between atoms: O_24  and  C_25
REMARK                            x       y       z     vdW  Elec       q    Type
REMARK                         _______ _______ _______ _____ _____    ______ ____
ROOT
ATOM      1  N   UNL     1       9.197   9.304  19.213  0.00  0.00    +0.000 N 
ATOM      2  C   UNL     1       8.240   8.965  18.264  0.00  0.00    +0.000 C 
ATOM      3  O   UNL     1       7.599   9.740  17.555  0.00  0.00    +0.000 OA
ATOM      4  H   UNL     1       9.734   8.549  19.624  0.00  0.00    +0.000 HD
ENDROOT
BRANCH   1   8
ATOM      5  C   UNL     1      10.442  13.261  20.117  0.00  0.00    +0.000 A 
ATOM      6  C   UNL     1       9.738  12.506  21.052  0.00  0.00    +0.000 A 
ATOM      7  C   UNL     1       9.337  11.199  20.777  0.00  0.00    +0.000 A 
ATOM      8  C   UNL     1       9.615  10.613  19.550  0.00  0.00    +0.000 A 
ATOM      9  C   UNL     1      10.323  11.358  18.600  0.00  0.00    +0.000 A 
ATOM     10  C   UNL     1      10.727  12.679  18.879  0.00  0.00    +0.000 A 
BRANCH   5  13
ATOM     11  C   UNL     1      10.100  15.721  20.078  0.00  0.00    +0.000 C 
ATOM     12  O   UNL     1       8.944  15.728  19.677  0.00  0.00    +0.000 OA
ATOM     13  N   UNL     1      10.846  14.590  20.375  0.00  0.00    +0.000 N 
ATOM     14  H   UNL     1      11.708  14.716  20.887  0.00  0.00    +0.000 HD
BRANCH  11  16
ATOM     15  C   UNL     1      12.312  16.742  20.627  0.00  0.00    +0.000 C 
ATOM     16  C   UNL     1      10.850  17.018  20.303  0.00  0.00    +0.000 C 
ENDBRANCH  11  16
ENDBRANCH   5  13
ENDBRANCH   1   8
BRANCH   2  17
ATOM     17  C   UNL     1       8.051   7.467  18.104  0.00  0.00    +0.000 C 
BRANCH  17  18
ATOM     18  S   UNL     1       6.316   7.094  17.735  0.00  0.00    +0.000 S 
BRANCH  18  19
ATOM     19  C   UNL     1       6.471   5.840  16.548  0.00  0.00    +0.000 A 
ATOM     20  N   UNL     1       7.322   5.868  15.546  0.00  0.00    +0.000 NA
ATOM     21  N   UNL     1       7.339   4.598  15.036  0.00  0.00    +0.000 NA
ATOM     22  N   UNL     1       6.528   3.797  15.713  0.00  0.00    +0.000 NA
ATOM     23  N   UNL     1       5.894   4.579  16.626  0.00  0.00    +0.000 N 
BRANCH  23  24
ATOM     24  C   UNL     1       4.867   4.063  17.456  0.00  0.00    +0.000 A 
ATOM     25  C   UNL     1       3.598   3.818  16.913  0.00  0.00    +0.000 A 
ATOM     26  C   UNL     1       2.611   3.208  17.695  0.00  0.00    +0.000 A 
ATOM     27  C   UNL     1       2.872   2.857  19.020  0.00  0.00    +0.000 A 
ATOM     28  C   UNL     1       4.100   3.189  19.588  0.00  0.00    +0.000 A 
ATOM     29  C   UNL     1       5.095   3.791  18.810  0.00  0.00    +0.000 A 
BRANCH  27  30
ATOM     30  O   UNL     1       1.853   2.231  19.684  0.00  0.00    +0.000 OA
ATOM     31  C   UNL     1       1.355   2.932  20.819  0.00  0.00    +0.000 C 
ENDBRANCH  27  30
ENDBRANCH  23  24
ENDBRANCH  18  19
ENDBRANCH  17  18
ENDBRANCH   2  17
TORSDOF 8
ENDMDL
MODEL 6
REMARK VINA RESULT:      -6.9      2.426      3.252
REMARK  Name = 
REMARK  10 active torsions:
REMARK  status: ('A' for Active; 'I' for Inactive)
REMARK    1  A    between atoms: C_1  and  C_2
REMARK    2  A    between atoms: C_2  and  C_3
REMARK    3  A    between atoms: N_5  and  C_6
REMARK    4  A    between atoms: C_9  and  N_10
REMARK    5  A    between atoms: C_11  and  C_13
REMARK    6  A    between atoms: C_13  and  S_14
REMARK    7  A    between atoms: S_14  and  C_15
REMARK    8  A    between atoms: N_19  and  C_20
REMARK    9  A    between atoms: C_23  and  O_24
REMARK   10  A    between atoms: O_24  and  C_25
REMARK                            x       y       z     vdW  Elec       q    Type
REMARK                         _______ _______ _______ _____ _____    ______ ____
ROOT
ATOM      1  N   UNL     1       2.630   6.426  19.531  0.00  0.00    +0.000 N 
ATOM      2  C   UNL     1       2.195   5.257  20.144  0.00  0.00    +0.000 C 
ATOM      3  O   UNL     1       1.210   5.129  20.871  0.00  0.00    +0.000 OA
ATOM      4  H   UNL     1       3.382   6.345  18.855  0.00  0.00    +0.000 HD
ENDROOT
BRANCH   1   8
ATOM      5  C   UNL     1       0.778  10.241  19.724  0.00  0.00    +0.000 A 
ATOM      6  C   UNL     1       0.830   9.418  20.847  0.00  0.00    +0.000 A 
ATOM      7  C   UNL     1       1.450   8.169  20.805  0.00  0.00    +0.000 A 
ATOM      8  C   UNL     1       2.024   7.699  19.631  0.00  0.00    +0.000 A 
ATOM      9  C   UNL     1       1.981   8.516  18.495  0.00  0.00    +0.000 A 
ATOM     10  C   UNL     1       1.354   9.777  18.538  0.00  0.00    +0.000 A 
BRANCH   5  13
ATOM     11  C   UNL     1       0.612  12.616  20.432  0.00  0.00    +0.000 C 
ATOM     12  O   UNL     1       1.693  12.704  20.997  0.00  0.00    +0.000 OA
ATOM     13  N   UNL     1       0.145  11.504  19.748  0.00  0.00    +0.000 N 
ATOM     14  H   UNL     1      -0.666  11.620  19.156  0.00  0.00    +0.000 HD
BRANCH  11  16
ATOM     15  C   UNL     1      -0.277  14.537  19.106  0.00  0.00    +0.000 C 
ATOM     16  C   UNL     1      -0.357  13.781  20.425  0.00  0.00    +0.000 C 
ENDBRANCH  11  16
ENDBRANCH   5  13
ENDBRANCH   1   8
BRANCH   2  17
ATOM     17  C   UNL     1       3.039   4.042  19.800  0.00  0.00    +0.000 C 
BRANCH  17  18
ATOM     18  S   UNL     1       3.759   4.232  18.148  0.00  0.00    +0.000 S 
BRANCH  18  19
ATOM     19  C   UNL     1       5.368   4.758  18.525  0.00  0.00    +0.000 A 
ATOM     20  N   UNL     1       5.779   5.084  19.731  0.00  0.00    +0.000 NA
ATOM     21  N   UNL     1       7.144   5.148  19.655  0.00  0.00    +0.000 NA
ATOM     22  N   UNL     1       7.572   4.856  18.434  0.00  0.00    +0.000 NA
ATOM     23  N   UNL     1       6.460   4.690  17.670  0.00  0.00    +0.000 N 
BRANCH  23  24
ATOM     24  C   UNL     1       6.550   4.471  16.272  0.00  0.00    +0.000 A 
ATOM     25  C   UNL     1       5.785   3.456  15.682  0.00  0.00    +0.000 A 
ATOM     26  C   UNL     1       5.785   3.302  14.291  0.00  0.00    +0.000 A 
ATOM     27  C   UNL     1       6.555   4.141  13.484  0.00  0.00    +0.000 A 
ATOM     28  C   UNL     1       7.389   5.086  14.078  0.00  0.00    +0.000 A 
ATOM     29  C   UNL     1       7.389   5.251  15.467  0.00  0.00    +0.000 A 
BRANCH  27  30
ATOM     30  O   UNL     1       6.453   3.933  12.136  0.00  0.00    +0.000 OA
ATOM     31  C   UNL     1       5.684   2.795  11.760  0.00  0.00    +0.000 C 
ENDBRANCH  27  30
ENDBRANCH  23  24
ENDBRANCH  18  19
ENDBRANCH  17  18
ENDBRANCH   2  17
TORSDOF 8
ENDMDL
MODEL 7
REMARK VINA RESULT:      -6.9      2.570      3.273
REMARK  Name = 
REMARK  10 active torsions:
REMARK  status: ('A' for Active; 'I' for Inactive)
REMARK    1  A    between atoms: C_1  and  C_2
REMARK    2  A    between atoms: C_2  and  C_3
REMARK    3  A    between atoms: N_5  and  C_6
REMARK    4  A    between atoms: C_9  and  N_10
REMARK    5  A    between atoms: C_11  and  C_13
REMARK    6  A    between atoms: C_13  and  S_14
REMARK    7  A    between atoms: S_14  and  C_15
REMARK    8  A    between atoms: N_19  and  C_20
REMARK    9  A    between atoms: C_23  and  O_24
REMARK   10  A    between atoms: O_24  and  C_25
REMARK                            x       y       z     vdW  Elec       q    Type
REMARK                         _______ _______ _______ _____ _____    ______ ____
ROOT
ATOM      1  N   UNL     1       1.931   7.785  19.697  0.00  0.00    +0.000 N 
ATOM      2  C   UNL     1       2.372   7.785  18.379  0.00  0.00    +0.000 C 
ATOM      3  O   UNL     1       2.146   8.644  17.526  0.00  0.00    +0.000 OA
ATOM      4  H   UNL     1       2.310   7.076  20.315  0.00  0.00    +0.000 HD
ENDROOT
BRANCH   1   8
ATOM      5  C   UNL     1      -0.407  10.755  21.629  0.00  0.00    +0.000 A 
ATOM      6  C   UNL     1      -0.285  10.738  20.242  0.00  0.00    +0.000 A 
ATOM      7  C   UNL     1       0.466   9.759  19.590  0.00  0.00    +0.000 A 
ATOM      8  C   UNL     1       1.130   8.775  20.311  0.00  0.00    +0.000 A 
ATOM      9  C   UNL     1       1.015   8.779  21.706  0.00  0.00    +0.000 A 
ATOM     10  C   UNL     1       0.257   9.769  22.363  0.00  0.00    +0.000 A 
BRANCH   5  13
ATOM     11  C   UNL     1      -0.681  13.004  22.646  0.00  0.00    +0.000 C 
ATOM     12  O   UNL     1       0.391  13.482  22.301  0.00  0.00    +0.000 OA
ATOM     13  N   UNL     1      -1.154  11.746  22.304  0.00  0.00    +0.000 N 
ATOM     14  H   UNL     1      -2.130  11.546  22.478  0.00  0.00    +0.000 HD
BRANCH  11  16
ATOM     15  C   UNL     1      -1.045  15.151  23.871  0.00  0.00    +0.000 C 
ATOM     16  C   UNL     1      -1.638  13.794  23.517  0.00  0.00    +0.000 C 
ENDBRANCH  11  16
ENDBRANCH   5  13
ENDBRANCH   1   8
BRANCH   2  17
ATOM     17  C   UNL     1       3.258   6.600  18.037  0.00  0.00    +0.000 C 
BRANCH  17  18
ATOM     18  S   UNL     1       3.747   5.731  19.550  0.00  0.00    +0.000 S 
BRANCH  18  19
ATOM     19  C   UNL     1       3.665   4.074  19.046  0.00  0.00    +0.000 A 
ATOM     20  N   UNL     1       2.916   3.159  19.622  0.00  0.00    +0.000 NA
ATOM     21  N   UNL     1       2.905   2.092  18.765  0.00  0.00    +0.000 NA
ATOM     22  N   UNL     1       3.620   2.343  17.676  0.00  0.00    +0.000 NA
ATOM     23  N   UNL     1       4.189   3.562  17.866  0.00  0.00    +0.000 N 
BRANCH  23  24
ATOM     24  C   UNL     1       5.113   4.100  16.935  0.00  0.00    +0.000 A 
ATOM     25  C   UNL     1       6.386   4.489  17.372  0.00  0.00    +0.000 A 
ATOM     26  C   UNL     1       7.341   4.919  16.443  0.00  0.00    +0.000 A 
ATOM     27  C   UNL     1       7.031   4.981  15.084  0.00  0.00    +0.000 A 
ATOM     28  C   UNL     1       5.737   4.687  14.662  0.00  0.00    +0.000 A 
ATOM     29  C   UNL     1       4.779   4.249  15.583  0.00  0.00    +0.000 A 
BRANCH  27  30
ATOM     30  O   UNL     1       8.046   5.376  14.257  0.00  0.00    +0.000 OA
ATOM     31  C   UNL     1       7.799   5.183  12.868  0.00  0.00    +0.000 C 
ENDBRANCH  27  30
ENDBRANCH  23  24
ENDBRANCH  18  19
ENDBRANCH  17  18
ENDBRANCH   2  17
TORSDOF 8
ENDMDL
MODEL 8
REMARK VINA RESULT:      -6.9      2.830      4.626
REMARK  Name = 
REMARK  10 active torsions:
REMARK  status: ('A' for Active; 'I' for Inactive)
REMARK    1  A    between atoms: C_1  and  C_2
REMARK    2  A    between atoms: C_2  and  C_3
REMARK    3  A    between atoms: N_5  and  C_6
REMARK    4  A    between atoms: C_9  and  N_10
REMARK    5  A    between atoms: C_11  and  C_13
REMARK    6  A    between atoms: C_13  and  S_14
REMARK    7  A    between atoms: S_14  and  C_15
REMARK    8  A    between atoms: N_19  and  C_20
REMARK    9  A    between atoms: C_23  and  O_24
REMARK   10  A    between atoms: O_24  and  C_25
REMARK                            x       y       z     vdW  Elec       q    Type
REMARK                         _______ _______ _______ _____ _____    ______ ____
ROOT
ATOM      1  N   UNL     1       1.759   7.831  19.499  0.00  0.00    +0.000 N 
ATOM      2  C   UNL     1       2.339   7.930  18.239  0.00  0.00    +0.000 C 
ATOM      3  O   UNL     1       2.337   8.916  17.502  0.00  0.00    +0.000 OA
ATOM      4  H   UNL     1       1.959   6.997  20.039  0.00  0.00    +0.000 HD
ENDROOT
BRANCH   1   8
ATOM      5  C   UNL     1      -0.304  10.883  21.608  0.00  0.00    +0.000 A 
ATOM      6  C   UNL     1      -0.314  10.850  20.216  0.00  0.00    +0.000 A 
ATOM      7  C   UNL     1       0.345   9.844  19.508  0.00  0.00    +0.000 A 
ATOM      8  C   UNL     1       1.047   8.849  20.174  0.00  0.00    +0.000 A 
ATOM      9  C   UNL     1       1.065   8.868  21.573  0.00  0.00    +0.000 A 
ATOM     10  C   UNL     1       0.400   9.885  22.287  0.00  0.00    +0.000 A 
BRANCH   5  13
ATOM     11  C   UNL     1      -0.459  13.180  22.542  0.00  0.00    +0.000 C 
ATOM     12  O   UNL     1       0.539  13.649  22.012  0.00  0.00    +0.000 OA
ATOM     13  N   UNL     1      -0.957  11.901  22.340  0.00  0.00    +0.000 N 
ATOM     14  H   UNL     1      -1.890  11.700  22.671  0.00  0.00    +0.000 HD
BRANCH  11  16
ATOM     15  C   UNL     1      -2.713  13.481  23.576  0.00  0.00    +0.000 C 
ATOM     16  C   UNL     1      -1.285  14.004  23.508  0.00  0.00    +0.000 C 
ENDBRANCH  11  16
ENDBRANCH   5  13
ENDBRANCH   1   8
BRANCH   2  17
ATOM     17  C   UNL     1       3.076   6.673  17.812  0.00  0.00    +0.000 C 
BRANCH  17  18
ATOM     18  S   UNL     1       4.809   7.060  17.449  0.00  0.00    +0.000 S 
BRANCH  18  19
ATOM     19  C   UNL     1       5.232   5.783  16.355  0.00  0.00    +0.000 A 
ATOM     20  N   UNL     1       5.992   5.937  15.293  0.00  0.00    +0.000 NA
ATOM     21  N   UNL     1       6.322   4.673  14.883  0.00  0.00    +0.000 NA
ATOM     22  N   UNL     1       5.790   3.756  15.680  0.00  0.00    +0.000 NA
ATOM     23  N   UNL     1       5.017   4.428  16.574  0.00  0.00    +0.000 N 
BRANCH  23  24
ATOM     24  C   UNL     1       4.210   3.743  17.516  0.00  0.00    +0.000 A 
ATOM     25  C   UNL     1       4.687   3.544  18.819  0.00  0.00    +0.000 A 
ATOM     26  C   UNL     1       3.855   2.965  19.784  0.00  0.00    +0.000 A 
ATOM     27  C   UNL     1       2.559   2.566  19.458  0.00  0.00    +0.000 A 
ATOM     28  C   UNL     1       2.120   2.675  18.140  0.00  0.00    +0.000 A 
ATOM     29  C   UNL     1       2.942   3.259  17.171  0.00  0.00    +0.000 A 
BRANCH  27  30
ATOM     30  O   UNL     1       1.817   2.048  20.483  0.00  0.00    +0.000 OA
ATOM     31  C   UNL     1       1.542   2.957  21.544  0.00  0.00    +0.000 C 
ENDBRANCH  27  30
ENDBRANCH  23  24
ENDBRANCH  18  19
ENDBRANCH  17  18
ENDBRANCH   2  17
TORSDOF 8
ENDMDL
MODEL 9
REMARK VINA RESULT:      -6.8      2.729      3.307
REMARK  Name = 
REMARK  10 active torsions:
REMARK  status: ('A' for Active; 'I' for Inactive)
REMARK    1  A    between atoms: C_1  and  C_2
REMARK    2  A    between atoms: C_2  and  C_3
REMARK    3  A    between atoms: N_5  and  C_6
REMARK    4  A    between atoms: C_9  and  N_10
REMARK    5  A    between atoms: C_11  and  C_13
REMARK    6  A    between atoms: C_13  and  S_14
REMARK    7  A    between atoms: S_14  and  C_15
REMARK    8  A    between atoms: N_19  and  C_20
REMARK    9  A    between atoms: C_23  and  O_24
REMARK   10  A    between atoms: O_24  and  C_25
REMARK                            x       y       z     vdW  Elec       q    Type
REMARK                         _______ _______ _______ _____ _____    ______ ____
ROOT
ATOM      1  N   UNL     1       1.022   7.950  20.452  0.00  0.00    +0.000 N 
ATOM      2  C   UNL     1       1.853   8.024  19.340  0.00  0.00    +0.000 C 
ATOM      3  O   UNL     1       2.142   9.036  18.702  0.00  0.00    +0.000 OA
ATOM      4  H   UNL     1       0.987   7.067  20.949  0.00  0.00    +0.000 HD
ENDROOT
BRANCH   1   8
ATOM      5  C   UNL     1      -0.952  11.185  22.366  0.00  0.00    +0.000 A 
ATOM      6  C   UNL     1      -0.889  11.112  20.976  0.00  0.00    +0.000 A 
ATOM      7  C   UNL     1      -0.259  10.047  20.332  0.00  0.00    +0.000 A 
ATOM      8  C   UNL     1       0.342   9.030  21.061  0.00  0.00    +0.000 A 
ATOM      9  C   UNL     1       0.286   9.088  22.458  0.00  0.00    +0.000 A 
ATOM     10  C   UNL     1      -0.351  10.165  23.108  0.00  0.00    +0.000 A 
BRANCH   5  13
ATOM     11  C   UNL     1      -1.012  13.515  23.224  0.00  0.00    +0.000 C 
ATOM     12  O   UNL     1       0.037  13.908  22.731  0.00  0.00    +0.000 OA
ATOM     13  N   UNL     1      -1.576  12.262  23.034  0.00  0.00    +0.000 N 
ATOM     14  H   UNL     1      -2.535  12.128  23.323  0.00  0.00    +0.000 HD
BRANCH  11  16
ATOM     15  C   UNL     1      -3.278  13.942  24.187  0.00  0.00    +0.000 C 
ATOM     16  C   UNL     1      -1.833  14.417  24.123  0.00  0.00    +0.000 C 
ENDBRANCH  11  16
ENDBRANCH   5  13
ENDBRANCH   1   8
BRANCH   2  17
ATOM     17  C   UNL     1       2.473   6.692  18.959  0.00  0.00    +0.000 C 
BRANCH  17  18
ATOM     18  S   UNL     1       2.285   5.506  20.316  0.00  0.00    +0.000 S 
BRANCH  18  19
ATOM     19  C   UNL     1       2.558   3.998  19.505  0.00  0.00    +0.000 A 
ATOM     20  N   UNL     1       1.756   2.958  19.581  0.00  0.00    +0.000 NA
ATOM     21  N   UNL     1       2.156   2.105  18.588  0.00  0.00    +0.000 NA
ATOM     22  N   UNL     1       3.175   2.608  17.904  0.00  0.00    +0.000 NA
ATOM     23  N   UNL     1       3.511   3.771  18.521  0.00  0.00    +0.000 N 
BRANCH  23  24
ATOM     24  C   UNL     1       4.640   4.525  18.112  0.00  0.00    +0.000 A 
ATOM     25  C   UNL     1       4.718   4.991  16.792  0.00  0.00    +0.000 A 
ATOM     26  C   UNL     1       5.774   5.826  16.409  0.00  0.00    +0.000 A 
ATOM     27  C   UNL     1       6.763   6.185  17.324  0.00  0.00    +0.000 A 
ATOM     28  C   UNL     1       6.738   5.643  18.607  0.00  0.00    +0.000 A 
ATOM     29  C   UNL     1       5.682   4.814  19.001  0.00  0.00    +0.000 A 
BRANCH  27  30
ATOM     30  O   UNL     1       7.728   7.035  16.859  0.00  0.00    +0.000 OA
ATOM     31  C   UNL     1       7.889   8.232  17.614  0.00  0.00    +0.000 C 
ENDBRANCH  27  30
ENDBRANCH  23  24
ENDBRANCH  18  19
ENDBRANCH  17  18
ENDBRANCH   2  17
TORSDOF 8
ENDMDL
