MODEL 1
REMARK VINA RESULT:      -8.0      0.000      0.000
REMARK  Name = 
REMARK  6 active torsions:
REMARK  status: ('A' for Active; 'I' for Inactive)
REMARK    1  A    between atoms: C_5  and  C_6
REMARK    2  A    between atoms: C_6  and  C_7
REMARK    3  A    between atoms: C_17  and  N_18
REMARK    4  A    between atoms: N_18  and  C_19
REMARK    5  A    between atoms: C_19  and  C_20
REMARK    6  A    between atoms: C_20  and  O_21
REMARK                            x       y       z     vdW  Elec       q    Type
REMARK                         _______ _______ _______ _____ _____    ______ ____
ROOT
ATOM      1  O   UNL     1       7.570   4.673  18.017  0.00  0.00    +0.000 OA
ATOM      2  S   UNL     1       7.084   5.677  17.100  0.00  0.00    +0.000 S 
ATOM      3  O   UNL     1       7.763   6.946  16.926  0.00  0.00    +0.000 OA
ATOM      4  N   UNL     1       5.497   6.065  17.466  0.00  0.00    +0.000 NA
ATOM      5  C   UNL     1       4.575   4.986  17.895  0.00  0.00    +0.000 C 
ATOM      6  C   UNL     1       4.245   4.033  16.735  0.00  0.00    +0.000 C 
ATOM      7  O   UNL     1       5.386   3.262  16.328  0.00  0.00    +0.000 OA
ATOM      8  C   UNL     1       6.061   3.869  15.306  0.00  0.00    +0.000 A 
ATOM      9  C   UNL     1       5.903   3.335  14.021  0.00  0.00    +0.000 A 
ATOM     10  C   UNL     1       6.566   3.887  12.912  0.00  0.00    +0.000 A 
ATOM     11  C   UNL     1       7.362   5.020  13.127  0.00  0.00    +0.000 A 
ATOM     12  C   UNL     1       7.551   5.541  14.411  0.00  0.00    +0.000 A 
ATOM     13  C   UNL     1       6.905   4.955  15.502  0.00  0.00    +0.000 A 
ATOM     14  H   UNL     1       5.122   6.820  16.897  0.00  0.00    +0.000 HD
ENDROOT
BRANCH  10  15
ATOM     15  N   UNL     1       6.282   3.379  11.632  0.00  0.00    +0.000 N 
ATOM     16  H   UNL     1       5.809   4.087  11.070  0.00  0.00    +0.000 HD
BRANCH  15  17
ATOM     17  C   UNL     1       5.593   2.079  11.556  0.00  0.00    +0.000 C 
BRANCH  17  18
ATOM     18  C   UNL     1       6.563   1.013  11.030  0.00  0.00    +0.000 C 
BRANCH  18  19
ATOM     19  O   UNL     1       6.137  -0.289  11.428  0.00  0.00    +0.000 OA
ATOM     20  H   UNL     1       5.164  -0.236  11.506  0.00  0.00    +0.000 HD
ENDBRANCH  18  19
ENDBRANCH  17  18
ENDBRANCH  15  17
ENDBRANCH  10  15
BRANCH   5  21
ATOM     21  C   UNL     1       3.275   5.628  18.439  0.00  0.00    +0.000 C 
BRANCH  21  22
ATOM     22  C   UNL     1       2.470   4.711  19.335  0.00  0.00    +0.000 A 
ATOM     23  C   UNL     1       2.769   4.612  20.703  0.00  0.00    +0.000 A 
ATOM     24  C   UNL     1       2.077   3.713  21.516  0.00  0.00    +0.000 A 
ATOM     25  C   UNL     1       1.075   2.910  20.975  0.00  0.00    +0.000 A 
ATOM     26  C   UNL     1       0.750   3.021  19.626  0.00  0.00    +0.000 A 
ATOM     27  C   UNL     1       1.438   3.921  18.811  0.00  0.00    +0.000 A 
ENDBRANCH  21  22
ENDBRANCH   5  21
TORSDOF 6
ENDMDL
MODEL 2
REMARK VINA RESULT:      -7.6      0.429      1.073
REMARK  Name = 
REMARK  6 active torsions:
REMARK  status: ('A' for Active; 'I' for Inactive)
REMARK    1  A    between atoms: C_5  and  C_6
REMARK    2  A    between atoms: C_6  and  C_7
REMARK    3  A    between atoms: C_17  and  N_18
REMARK    4  A    between atoms: N_18  and  C_19
REMARK    5  A    between atoms: C_19  and  C_20
REMARK    6  A    between atoms: C_20  and  O_21
REMARK                            x       y       z     vdW  Elec       q    Type
REMARK                         _______ _______ _______ _____ _____    ______ ____
ROOT
ATOM      1  O   UNL     1       7.661   4.727  18.048  0.00  0.00    +0.000 OA
ATOM      2  S   UNL     1       7.144   5.724  17.142  0.00  0.00    +0.000 S 
ATOM      3  O   UNL     1       7.789   7.012  16.975  0.00  0.00    +0.000 OA
ATOM      4  N   UNL     1       5.550   6.068  17.521  0.00  0.00    +0.000 NA
ATOM      5  C   UNL     1       4.658   4.962  17.946  0.00  0.00    +0.000 C 
ATOM      6  C   UNL     1       4.347   4.010  16.780  0.00  0.00    +0.000 C 
ATOM      7  O   UNL     1       5.505   3.272  16.360  0.00  0.00    +0.000 OA
ATOM      8  C   UNL     1       6.158   3.905  15.339  0.00  0.00    +0.000 A 
ATOM      9  C   UNL     1       6.006   3.377  14.051  0.00  0.00    +0.000 A 
ATOM     10  C   UNL     1       6.648   3.955  12.943  0.00  0.00    +0.000 A 
ATOM     11  C   UNL     1       7.415   5.106  13.162  0.00  0.00    +0.000 A 
ATOM     12  C   UNL     1       7.599   5.622  14.450  0.00  0.00    +0.000 A 
ATOM     13  C   UNL     1       6.975   5.011  15.539  0.00  0.00    +0.000 A 
ATOM     14  H   UNL     1       5.152   6.818  16.959  0.00  0.00    +0.000 HD
ENDROOT
BRANCH  10  15
ATOM     15  N   UNL     1       6.370   3.450  11.660  0.00  0.00    +0.000 N 
ATOM     16  H   UNL     1       6.255   4.217  10.998  0.00  0.00    +0.000 HD
BRANCH  15  17
ATOM     17  C   UNL     1       5.282   2.465  11.541  0.00  0.00    +0.000 C 
BRANCH  17  18
ATOM     18  C   UNL     1       5.866   1.092  11.185  0.00  0.00    +0.000 C 
BRANCH  18  19
ATOM     19  O   UNL     1       7.292   1.135  11.208  0.00  0.00    +0.000 OA
ATOM     20  H   UNL     1       7.582   0.218  11.383  0.00  0.00    +0.000 HD
ENDBRANCH  18  19
ENDBRANCH  17  18
ENDBRANCH  15  17
ENDBRANCH  10  15
BRANCH   5  21
ATOM     21  C   UNL     1       3.346   5.566  18.502  0.00  0.00    +0.000 C 
BRANCH  21  22
ATOM     22  C   UNL     1       2.551   4.607  19.363  0.00  0.00    +0.000 A 
ATOM     23  C   UNL     1       1.464   3.902  18.824  0.00  0.00    +0.000 A 
ATOM     24  C   UNL     1       0.685   3.074  19.634  0.00  0.00    +0.000 A 
ATOM     25  C   UNL     1       0.987   2.935  20.987  0.00  0.00    +0.000 A 
ATOM     26  C   UNL     1       2.081   3.607  21.526  0.00  0.00    +0.000 A 
ATOM     27  C   UNL     1       2.863   4.434  20.718  0.00  0.00    +0.000 A 
ENDBRANCH  21  22
ENDBRANCH   5  21
TORSDOF 6
ENDMDL
MODEL 3
REMARK VINA RESULT:      -7.4      1.044      1.189
REMARK  Name = 
REMARK  6 active torsions:
REMARK  status: ('A' for Active; 'I' for Inactive)
REMARK    1  A    between atoms: C_5  and  C_6
REMARK    2  A    between atoms: C_6  and  C_7
REMARK    3  A    between atoms: C_17  and  N_18
REMARK    4  A    between atoms: N_18  and  C_19
REMARK    5  A    between atoms: C_19  and  C_20
REMARK    6  A    between atoms: C_20  and  O_21
REMARK                            x       y       z     vdW  Elec       q    Type
REMARK                         _______ _______ _______ _____ _____    ______ ____
ROOT
ATOM      1  O   UNL     1       7.495   5.259  18.067  0.00  0.00    +0.000 OA
ATOM      2  S   UNL     1       6.914   6.086  17.036  0.00  0.00    +0.000 S 
ATOM      3  O   UNL     1       7.438   7.403  16.727  0.00  0.00    +0.000 OA
ATOM      4  N   UNL     1       5.283   6.313  17.336  0.00  0.00    +0.000 NA
ATOM      5  C   UNL     1       4.488   5.182  17.873  0.00  0.00    +0.000 C 
ATOM      6  C   UNL     1       4.308   4.072  16.824  0.00  0.00    +0.000 C 
ATOM      7  O   UNL     1       5.545   3.408  16.522  0.00  0.00    +0.000 OA
ATOM      8  C   UNL     1       6.167   3.977  15.446  0.00  0.00    +0.000 A 
ATOM      9  C   UNL     1       6.110   3.288  14.228  0.00  0.00    +0.000 A 
ATOM     10  C   UNL     1       6.730   3.792  13.072  0.00  0.00    +0.000 A 
ATOM     11  C   UNL     1       7.375   5.031  13.167  0.00  0.00    +0.000 A 
ATOM     12  C   UNL     1       7.465   5.711  14.386  0.00  0.00    +0.000 A 
ATOM     13  C   UNL     1       6.867   5.175  15.527  0.00  0.00    +0.000 A 
ATOM     14  H   UNL     1       4.834   6.947  16.679  0.00  0.00    +0.000 HD
ENDROOT
BRANCH  10  15
ATOM     15  N   UNL     1       6.544   3.113  11.855  0.00  0.00    +0.000 N 
ATOM     16  H   UNL     1       6.774   3.725  11.072  0.00  0.00    +0.000 HD
BRANCH  15  17
ATOM     17  C   UNL     1       5.253   2.433  11.647  0.00  0.00    +0.000 C 
BRANCH  17  18
ATOM     18  C   UNL     1       4.164   3.474  11.355  0.00  0.00    +0.000 C 
BRANCH  18  19
ATOM     19  O   UNL     1       3.178   2.932  10.479  0.00  0.00    +0.000 OA
ATOM     20  H   UNL     1       2.822   3.692   9.979  0.00  0.00    +0.000 HD
ENDBRANCH  18  19
ENDBRANCH  17  18
ENDBRANCH  15  17
ENDBRANCH  10  15
BRANCH   5  21
ATOM     21  C   UNL     1       3.106   5.714  18.324  0.00  0.00    +0.000 C 
BRANCH  21  22
ATOM     22  C   UNL     1       2.367   4.779  19.257  0.00  0.00    +0.000 A 
ATOM     23  C   UNL     1       2.698   4.727  20.620  0.00  0.00    +0.000 A 
ATOM     24  C   UNL     1       2.069   3.813  21.468  0.00  0.00    +0.000 A 
ATOM     25  C   UNL     1       1.098   2.949  20.966  0.00  0.00    +0.000 A 
ATOM     26  C   UNL     1       0.741   3.012  19.622  0.00  0.00    +0.000 A 
ATOM     27  C   UNL     1       1.366   3.926  18.773  0.00  0.00    +0.000 A 
ENDBRANCH  21  22
ENDBRANCH   5  21
TORSDOF 6
ENDMDL
MODEL 4
REMARK VINA RESULT:      -7.0      4.423      6.090
REMARK  Name = 
REMARK  6 active torsions:
REMARK  status: ('A' for Active; 'I' for Inactive)
REMARK    1  A    between atoms: C_5  and  C_6
REMARK    2  A    between atoms: C_6  and  C_7
REMARK    3  A    between atoms: C_17  and  N_18
REMARK    4  A    between atoms: N_18  and  C_19
REMARK    5  A    between atoms: C_19  and  C_20
REMARK    6  A    between atoms: C_20  and  O_21
REMARK                            x       y       z     vdW  Elec       q    Type
REMARK                         _______ _______ _______ _____ _____    ______ ____
ROOT
ATOM      1  O   UNL     1       0.460   4.291  20.168  0.00  0.00    +0.000 OA
ATOM      2  S   UNL     1       1.777   4.354  20.755  0.00  0.00    +0.000 S 
ATOM      3  O   UNL     1       2.163   3.496  21.859  0.00  0.00    +0.000 OA
ATOM      4  N   UNL     1       2.100   5.915  21.269  0.00  0.00    +0.000 NA
ATOM      5  C   UNL     1       1.635   7.053  20.441  0.00  0.00    +0.000 C 
ATOM      6  C   UNL     1       2.422   7.149  19.123  0.00  0.00    +0.000 C 
ATOM      7  O   UNL     1       2.141   6.049  18.244  0.00  0.00    +0.000 OA
ATOM      8  C   UNL     1       3.038   5.031  18.414  0.00  0.00    +0.000 A 
ATOM      9  C   UNL     1       4.027   4.875  17.436  0.00  0.00    +0.000 A 
ATOM     10  C   UNL     1       4.986   3.850  17.522  0.00  0.00    +0.000 A 
ATOM     11  C   UNL     1       4.945   3.013  18.644  0.00  0.00    +0.000 A 
ATOM     12  C   UNL     1       3.941   3.142  19.610  0.00  0.00    +0.000 A 
ATOM     13  C   UNL     1       2.982   4.149  19.485  0.00  0.00    +0.000 A 
ATOM     14  H   UNL     1       2.988   6.005  21.756  0.00  0.00    +0.000 HD
ENDROOT
BRANCH  10  15
ATOM     15  N   UNL     1       6.021   3.811  16.570  0.00  0.00    +0.000 N 
ATOM     16  H   UNL     1       6.817   4.359  16.895  0.00  0.00    +0.000 HD
BRANCH  15  17
ATOM     17  C   UNL     1       5.673   4.135  15.176  0.00  0.00    +0.000 C 
BRANCH  17  18
ATOM     18  C   UNL     1       6.863   4.825  14.496  0.00  0.00    +0.000 C 
BRANCH  18  19
ATOM     19  O   UNL     1       7.554   5.659  15.425  0.00  0.00    +0.000 OA
ATOM     20  H   UNL     1       7.438   6.572  15.097  0.00  0.00    +0.000 HD
ENDBRANCH  18  19
ENDBRANCH  17  18
ENDBRANCH  15  17
ENDBRANCH  10  15
BRANCH   5  21
ATOM     21  C   UNL     1       1.801   8.361  21.253  0.00  0.00    +0.000 C 
BRANCH  21  22
ATOM     22  C   UNL     1       0.702   9.373  21.010  0.00  0.00    +0.000 A 
ATOM     23  C   UNL     1       0.328   9.716  19.702  0.00  0.00    +0.000 A 
ATOM     24  C   UNL     1      -0.633  10.703  19.475  0.00  0.00    +0.000 A 
ATOM     25  C   UNL     1      -1.237  11.350  20.552  0.00  0.00    +0.000 A 
ATOM     26  C   UNL     1      -0.896  10.996  21.855  0.00  0.00    +0.000 A 
ATOM     27  C   UNL     1       0.063  10.008  22.084  0.00  0.00    +0.000 A 
ENDBRANCH  21  22
ENDBRANCH   5  21
TORSDOF 6
ENDMDL
MODEL 5
REMARK VINA RESULT:      -7.0      3.880      6.147
REMARK  Name = 
REMARK  6 active torsions:
REMARK  status: ('A' for Active; 'I' for Inactive)
REMARK    1  A    between atoms: C_5  and  C_6
REMARK    2  A    between atoms: C_6  and  C_7
REMARK    3  A    between atoms: C_17  and  N_18
REMARK    4  A    between atoms: N_18  and  C_19
REMARK    5  A    between atoms: C_19  and  C_20
REMARK    6  A    between atoms: C_20  and  O_21
REMARK                            x       y       z     vdW  Elec       q    Type
REMARK                         _______ _______ _______ _____ _____    ______ ____
ROOT
ATOM      1  O   UNL     1       5.955   4.127  16.659  0.00  0.00    +0.000 OA
ATOM      2  S   UNL     1       5.982   4.658  18.000  0.00  0.00    +0.000 S 
ATOM      3  O   UNL     1       6.484   3.884  19.119  0.00  0.00    +0.000 OA
ATOM      4  N   UNL     1       4.446   5.149  18.451  0.00  0.00    +0.000 NA
ATOM      5  C   UNL     1       3.577   5.804  17.443  0.00  0.00    +0.000 C 
ATOM      6  C   UNL     1       4.095   7.204  17.078  0.00  0.00    +0.000 C 
ATOM      7  O   UNL     1       5.339   7.151  16.363  0.00  0.00    +0.000 OA
ATOM      8  C   UNL     1       6.407   7.252  17.210  0.00  0.00    +0.000 A 
ATOM      9  C   UNL     1       7.088   8.475  17.248  0.00  0.00    +0.000 A 
ATOM     10  C   UNL     1       8.203   8.666  18.081  0.00  0.00    +0.000 A 
ATOM     11  C   UNL     1       8.589   7.603  18.906  0.00  0.00    +0.000 A 
ATOM     12  C   UNL     1       7.936   6.367  18.852  0.00  0.00    +0.000 A 
ATOM     13  C   UNL     1       6.849   6.193  17.993  0.00  0.00    +0.000 A 
ATOM     14  H   UNL     1       4.388   5.468  19.415  0.00  0.00    +0.000 HD
ENDROOT
BRANCH  10  15
ATOM     15  N   UNL     1       8.776   9.948  18.160  0.00  0.00    +0.000 N 
ATOM     16  H   UNL     1       9.461  10.073  17.414  0.00  0.00    +0.000 HD
BRANCH  15  17
ATOM     17  C   UNL     1       9.314  10.372  19.464  0.00  0.00    +0.000 C 
BRANCH  17  18
ATOM     18  C   UNL     1      10.024  11.723  19.313  0.00  0.00    +0.000 C 
BRANCH  18  19
ATOM     19  O   UNL     1      11.359  11.644  19.809  0.00  0.00    +0.000 OA
ATOM     20  H   UNL     1      11.704  12.558  19.788  0.00  0.00    +0.000 HD
ENDBRANCH  18  19
ENDBRANCH  17  18
ENDBRANCH  15  17
ENDBRANCH  10  15
BRANCH   5  21
ATOM     21  C   UNL     1       2.140   5.902  18.012  0.00  0.00    +0.000 C 
BRANCH  21  22
ATOM     22  C   UNL     1       1.760   4.743  18.910  0.00  0.00    +0.000 A 
ATOM     23  C   UNL     1       1.795   4.884  20.305  0.00  0.00    +0.000 A 
ATOM     24  C   UNL     1       1.516   3.796  21.135  0.00  0.00    +0.000 A 
ATOM     25  C   UNL     1       1.189   2.560  20.579  0.00  0.00    +0.000 A 
ATOM     26  C   UNL     1       1.122   2.417  19.196  0.00  0.00    +0.000 A 
ATOM     27  C   UNL     1       1.398   3.503  18.365  0.00  0.00    +0.000 A 
ENDBRANCH  21  22
ENDBRANCH   5  21
TORSDOF 6
ENDMDL
MODEL 6
REMARK VINA RESULT:      -7.0      3.868      6.316
REMARK  Name = 
REMARK  6 active torsions:
REMARK  status: ('A' for Active; 'I' for Inactive)
REMARK    1  A    between atoms: C_5  and  C_6
REMARK    2  A    between atoms: C_6  and  C_7
REMARK    3  A    between atoms: C_17  and  N_18
REMARK    4  A    between atoms: N_18  and  C_19
REMARK    5  A    between atoms: C_19  and  C_20
REMARK    6  A    between atoms: C_20  and  O_21
REMARK                            x       y       z     vdW  Elec       q    Type
REMARK                         _______ _______ _______ _____ _____    ______ ____
ROOT
ATOM      1  O   UNL     1       6.084   4.203  16.595  0.00  0.00    +0.000 OA
ATOM      2  S   UNL     1       6.086   4.704  17.949  0.00  0.00    +0.000 S 
ATOM      3  O   UNL     1       6.595   3.917  19.055  0.00  0.00    +0.000 OA
ATOM      4  N   UNL     1       4.535   5.151  18.395  0.00  0.00    +0.000 NA
ATOM      5  C   UNL     1       3.661   5.808  17.394  0.00  0.00    +0.000 C 
ATOM      6  C   UNL     1       4.151   7.228  17.065  0.00  0.00    +0.000 C 
ATOM      7  O   UNL     1       5.402   7.219  16.362  0.00  0.00    +0.000 OA
ATOM      8  C   UNL     1       6.460   7.324  17.221  0.00  0.00    +0.000 A 
ATOM      9  C   UNL     1       7.112   8.561  17.293  0.00  0.00    +0.000 A 
ATOM     10  C   UNL     1       8.215   8.759  18.142  0.00  0.00    +0.000 A 
ATOM     11  C   UNL     1       8.618   7.686  18.947  0.00  0.00    +0.000 A 
ATOM     12  C   UNL     1       7.993   6.437  18.858  0.00  0.00    +0.000 A 
ATOM     13  C   UNL     1       6.919   6.258  17.985  0.00  0.00    +0.000 A 
ATOM     14  H   UNL     1       4.461   5.446  19.366  0.00  0.00    +0.000 HD
ENDROOT
BRANCH  10  15
ATOM     15  N   UNL     1       8.758  10.051  18.255  0.00  0.00    +0.000 N 
ATOM     16  H   UNL     1       9.146  10.349  17.359  0.00  0.00    +0.000 HD
BRANCH  15  17
ATOM     17  C   UNL     1       9.700  10.296  19.360  0.00  0.00    +0.000 C 
BRANCH  17  18
ATOM     18  C   UNL     1       9.355  11.625  20.046  0.00  0.00    +0.000 C 
BRANCH  18  19
ATOM     19  O   UNL     1       9.990  11.710  21.320  0.00  0.00    +0.000 OA
ATOM     20  H   UNL     1       9.275  11.616  21.979  0.00  0.00    +0.000 HD
ENDBRANCH  18  19
ENDBRANCH  17  18
ENDBRANCH  15  17
ENDBRANCH  10  15
BRANCH   5  21
ATOM     21  C   UNL     1       2.218   5.861  17.950  0.00  0.00    +0.000 C 
BRANCH  21  22
ATOM     22  C   UNL     1       1.846   4.660  18.795  0.00  0.00    +0.000 A 
ATOM     23  C   UNL     1       1.535   3.433  18.189  0.00  0.00    +0.000 A 
ATOM     24  C   UNL     1       1.121   2.347  18.962  0.00  0.00    +0.000 A 
ATOM     25  C   UNL     1       1.021   2.471  20.346  0.00  0.00    +0.000 A 
ATOM     26  C   UNL     1       1.356   3.675  20.961  0.00  0.00    +0.000 A 
ATOM     27  C   UNL     1       1.772   4.762  20.191  0.00  0.00    +0.000 A 
ENDBRANCH  21  22
ENDBRANCH   5  21
TORSDOF 6
ENDMDL
MODEL 7
REMARK VINA RESULT:      -6.9      4.445      6.046
REMARK  Name = 
REMARK  6 active torsions:
REMARK  status: ('A' for Active; 'I' for Inactive)
REMARK    1  A    between atoms: C_5  and  C_6
REMARK    2  A    between atoms: C_6  and  C_7
REMARK    3  A    between atoms: C_17  and  N_18
REMARK    4  A    between atoms: N_18  and  C_19
REMARK    5  A    between atoms: C_19  and  C_20
REMARK    6  A    between atoms: C_20  and  O_21
REMARK                            x       y       z     vdW  Elec       q    Type
REMARK                         _______ _______ _______ _____ _____    ______ ____
ROOT
ATOM      1  O   UNL     1       0.524   4.352  20.038  0.00  0.00    +0.000 OA
ATOM      2  S   UNL     1       1.800   4.481  20.700  0.00  0.00    +0.000 S 
ATOM      3  O   UNL     1       2.172   3.631  21.815  0.00  0.00    +0.000 OA
ATOM      4  N   UNL     1       2.006   6.050  21.246  0.00  0.00    +0.000 NA
ATOM      5  C   UNL     1       1.524   7.172  20.404  0.00  0.00    +0.000 C 
ATOM      6  C   UNL     1       2.377   7.329  19.135  0.00  0.00    +0.000 C 
ATOM      7  O   UNL     1       2.209   6.226  18.231  0.00  0.00    +0.000 OA
ATOM      8  C   UNL     1       3.152   5.258  18.441  0.00  0.00    +0.000 A 
ATOM      9  C   UNL     1       4.202   5.170  17.519  0.00  0.00    +0.000 A 
ATOM     10  C   UNL     1       5.210   4.200  17.650  0.00  0.00    +0.000 A 
ATOM     11  C   UNL     1       5.153   3.347  18.759  0.00  0.00    +0.000 A 
ATOM     12  C   UNL     1       4.091   3.407  19.668  0.00  0.00    +0.000 A 
ATOM     13  C   UNL     1       3.085   4.360  19.499  0.00  0.00    +0.000 A 
ATOM     14  H   UNL     1       2.858   6.184  21.785  0.00  0.00    +0.000 HD
ENDROOT
BRANCH  10  15
ATOM     15  N   UNL     1       6.297   4.230  16.759  0.00  0.00    +0.000 N 
ATOM     16  H   UNL     1       6.720   5.159  16.752  0.00  0.00    +0.000 HD
BRANCH  15  17
ATOM     17  C   UNL     1       6.069   3.731  15.392  0.00  0.00    +0.000 C 
BRANCH  17  18
ATOM     18  C   UNL     1       6.731   4.675  14.381  0.00  0.00    +0.000 C 
BRANCH  18  19
ATOM     19  O   UNL     1       7.699   5.500  15.028  0.00  0.00    +0.000 OA
ATOM     20  H   UNL     1       7.255   5.854  15.824  0.00  0.00    +0.000 HD
ENDBRANCH  18  19
ENDBRANCH  17  18
ENDBRANCH  15  17
ENDBRANCH  10  15
BRANCH   5  21
ATOM     21  C   UNL     1       1.570   8.476  21.238  0.00  0.00    +0.000 C 
BRANCH  21  22
ATOM     22  C   UNL     1       0.597   9.536  20.765  0.00  0.00    +0.000 A 
ATOM     23  C   UNL     1       0.189  10.562  21.631  0.00  0.00    +0.000 A 
ATOM     24  C   UNL     1      -0.764  11.497  21.221  0.00  0.00    +0.000 A 
ATOM     25  C   UNL     1      -1.310  11.423  19.941  0.00  0.00    +0.000 A 
ATOM     26  C   UNL     1      -0.889  10.427  19.064  0.00  0.00    +0.000 A 
ATOM     27  C   UNL     1       0.064   9.493  19.470  0.00  0.00    +0.000 A 
ENDBRANCH  21  22
ENDBRANCH   5  21
TORSDOF 6
ENDMDL
MODEL 8
REMARK VINA RESULT:      -6.8      4.300      5.733
REMARK  Name = 
REMARK  6 active torsions:
REMARK  status: ('A' for Active; 'I' for Inactive)
REMARK    1  A    between atoms: C_5  and  C_6
REMARK    2  A    between atoms: C_6  and  C_7
REMARK    3  A    between atoms: C_17  and  N_18
REMARK    4  A    between atoms: N_18  and  C_19
REMARK    5  A    between atoms: C_19  and  C_20
REMARK    6  A    between atoms: C_20  and  O_21
REMARK                            x       y       z     vdW  Elec       q    Type
REMARK                         _______ _______ _______ _____ _____    ______ ____
ROOT
ATOM      1  O   UNL     1       0.975   4.371  19.409  0.00  0.00    +0.000 OA
ATOM      2  S   UNL     1       2.259   4.516  20.053  0.00  0.00    +0.000 S 
ATOM      3  O   UNL     1       2.799   3.488  20.922  0.00  0.00    +0.000 OA
ATOM      4  N   UNL     1       2.290   5.926  20.956  0.00  0.00    +0.000 NA
ATOM      5  C   UNL     1       1.622   7.136  20.420  0.00  0.00    +0.000 C 
ATOM      6  C   UNL     1       2.375   7.704  19.206  0.00  0.00    +0.000 C 
ATOM      7  O   UNL     1       2.300   6.832  18.067  0.00  0.00    +0.000 OA
ATOM      8  C   UNL     1       3.370   5.983  18.016  0.00  0.00    +0.000 A 
ATOM      9  C   UNL     1       4.370   6.260  17.076  0.00  0.00    +0.000 A 
ATOM     10  C   UNL     1       5.501   5.436  16.945  0.00  0.00    +0.000 A 
ATOM     11  C   UNL     1       5.617   4.347  17.818  0.00  0.00    +0.000 A 
ATOM     12  C   UNL     1       4.608   4.044  18.739  0.00  0.00    +0.000 A 
ATOM     13  C   UNL     1       3.480   4.861  18.828  0.00  0.00    +0.000 A 
ATOM     14  H   UNL     1       3.147   6.046  21.490  0.00  0.00    +0.000 HD
ENDROOT
BRANCH  10  15
ATOM     15  N   UNL     1       6.523   5.827  16.063  0.00  0.00    +0.000 N 
ATOM     16  H   UNL     1       6.258   6.683  15.574  0.00  0.00    +0.000 HD
BRANCH  15  17
ATOM     17  C   UNL     1       7.039   4.810  15.130  0.00  0.00    +0.000 C 
BRANCH  17  18
ATOM     18  C   UNL     1       5.919   4.367  14.180  0.00  0.00    +0.000 C 
BRANCH  18  19
ATOM     19  O   UNL     1       6.318   3.215  13.440  0.00  0.00    +0.000 OA
ATOM     20  H   UNL     1       6.464   2.512  14.103  0.00  0.00    +0.000 HD
ENDBRANCH  18  19
ENDBRANCH  17  18
ENDBRANCH  15  17
ENDBRANCH  10  15
BRANCH   5  21
ATOM     21  C   UNL     1       1.545   8.200  21.542  0.00  0.00    +0.000 C 
BRANCH  21  22
ATOM     22  C   UNL     1       0.551   9.308  21.264  0.00  0.00    +0.000 A 
ATOM     23  C   UNL     1       0.200   9.634  19.945  0.00  0.00    +0.000 A 
ATOM     24  C   UNL     1      -0.659  10.703  19.684  0.00  0.00    +0.000 A 
ATOM     25  C   UNL     1      -1.184  11.451  20.736  0.00  0.00    +0.000 A 
ATOM     26  C   UNL     1      -0.866  11.118  22.050  0.00  0.00    +0.000 A 
ATOM     27  C   UNL     1      -0.009  10.048  22.314  0.00  0.00    +0.000 A 
ENDBRANCH  21  22
ENDBRANCH   5  21
TORSDOF 6
ENDMDL
MODEL 9
REMARK VINA RESULT:      -6.8      4.450      6.331
REMARK  Name = 
REMARK  6 active torsions:
REMARK  status: ('A' for Active; 'I' for Inactive)
REMARK    1  A    between atoms: C_5  and  C_6
REMARK    2  A    between atoms: C_6  and  C_7
REMARK    3  A    between atoms: C_17  and  N_18
REMARK    4  A    between atoms: N_18  and  C_19
REMARK    5  A    between atoms: C_19  and  C_20
REMARK    6  A    between atoms: C_20  and  O_21
REMARK                            x       y       z     vdW  Elec       q    Type
REMARK                         _______ _______ _______ _____ _____    ______ ____
ROOT
ATOM      1  O   UNL     1       0.301   4.407  20.176  0.00  0.00    +0.000 OA
ATOM      2  S   UNL     1       1.640   4.328  20.709  0.00  0.00    +0.000 S 
ATOM      3  O   UNL     1       1.994   3.381  21.748  0.00  0.00    +0.000 OA
ATOM      4  N   UNL     1       2.113   5.826  21.288  0.00  0.00    +0.000 NA
ATOM      5  C   UNL     1       1.715   7.043  20.541  0.00  0.00    +0.000 C 
ATOM      6  C   UNL     1       2.455   7.147  19.198  0.00  0.00    +0.000 C 
ATOM      7  O   UNL     1       2.049   6.124  18.276  0.00  0.00    +0.000 OA
ATOM      8  C   UNL     1       2.863   5.028  18.354  0.00  0.00    +0.000 A 
ATOM      9  C   UNL     1       3.798   4.845  17.327  0.00  0.00    +0.000 A 
ATOM     10  C   UNL     1       4.669   3.742  17.319  0.00  0.00    +0.000 A 
ATOM     11  C   UNL     1       4.600   2.851  18.396  0.00  0.00    +0.000 A 
ATOM     12  C   UNL     1       3.649   3.008  19.410  0.00  0.00    +0.000 A 
ATOM     13  C   UNL     1       2.774   4.095  19.379  0.00  0.00    +0.000 A 
ATOM     14  H   UNL     1       3.024   5.816  21.741  0.00  0.00    +0.000 HD
ENDROOT
BRANCH  10  15
ATOM     15  N   UNL     1       5.659   3.671  16.323  0.00  0.00    +0.000 N 
ATOM     16  H   UNL     1       6.096   2.748  16.328  0.00  0.00    +0.000 HD
BRANCH  15  17
ATOM     17  C   UNL     1       6.666   4.745  16.289  0.00  0.00    +0.000 C 
BRANCH  17  18
ATOM     18  C   UNL     1       7.602   4.612  17.497  0.00  0.00    +0.000 C 
BRANCH  18  19
ATOM     19  O   UNL     1       7.697   5.853  18.195  0.00  0.00    +0.000 OA
ATOM     20  H   UNL     1       7.805   6.537  17.505  0.00  0.00    +0.000 HD
ENDBRANCH  18  19
ENDBRANCH  17  18
ENDBRANCH  15  17
ENDBRANCH  10  15
BRANCH   5  21
ATOM     21  C   UNL     1       2.021   8.286  21.412  0.00  0.00    +0.000 C 
BRANCH  21  22
ATOM     22  C   UNL     1       0.846   9.228  21.566  0.00  0.00    +0.000 A 
ATOM     23  C   UNL     1       0.393   9.983  20.473  0.00  0.00    +0.000 A 
ATOM     24  C   UNL     1      -0.642  10.906  20.631  0.00  0.00    +0.000 A 
ATOM     25  C   UNL     1      -1.241  11.078  21.877  0.00  0.00    +0.000 A 
ATOM     26  C   UNL     1      -0.819  10.313  22.961  0.00  0.00    +0.000 A 
ATOM     27  C   UNL     1       0.214   9.388  22.806  0.00  0.00    +0.000 A 
ENDBRANCH  21  22
ENDBRANCH   5  21
TORSDOF 6
ENDMDL
