MODEL 1
REMARK VINA RESULT:      -6.2      0.000      0.000
REMARK  Name = 
REMARK  7 active torsions:
REMARK  status: ('A' for Active; 'I' for Inactive)
REMARK    1  A    between atoms: C_1  and  C_2
REMARK    2  A    between atoms: C_2  and  C_3
REMARK    3  A    between atoms: C_3  and  C_4
REMARK    4  A    between atoms: C_3  and  C_5
REMARK    5  A    between atoms: C_3  and  C_12
REMARK    6  A    between atoms: C_8  and  C_9
REMARK    7  A    between atoms: C_15  and  C_16
REMARK                            x       y       z     vdW  Elec       q    Type
REMARK                         _______ _______ _______ _____ _____    ______ ____
ROOT
ATOM      1  C   UNL     1       3.601   4.231  18.360  0.00  0.00    +0.000 C 
ATOM      2  C   UNL     1       3.871   3.425  19.664  0.00  0.00    +0.000 C 
ENDROOT
BRANCH   1   3
ATOM      3  C   UNL     1       4.903   4.405  17.547  0.00  0.00    +0.000 A 
ATOM      4  C   UNL     1       6.201   4.567  18.008  0.00  0.00    +0.000 A 
ATOM      5  C   UNL     1       7.157   4.687  16.961  0.00  0.00    +0.000 A 
ATOM      6  C   UNL     1       6.573   4.622  15.716  0.00  0.00    +0.000 A 
ATOM      7  S   UNL     1       4.883   4.434  15.818  0.00  0.00    +0.000 S 
BRANCH   6   8
ATOM      8  C   UNL     1       7.227   4.699  14.430  0.00  0.00    +0.000 C 
ATOM      9  O   UNL     1       7.987   5.601  14.084  0.00  0.00    +0.000 OA
ENDBRANCH   6   8
ENDBRANCH   1   3
BRANCH   1  10
ATOM     10  C   UNL     1       3.023   5.614  18.768  0.00  0.00    +0.000 A 
ATOM     11  C   UNL     1       2.988   6.801  18.048  0.00  0.00    +0.000 A 
ATOM     12  C   UNL     1       2.351   7.863  18.752  0.00  0.00    +0.000 A 
ATOM     13  C   UNL     1       1.913   7.474  19.997  0.00  0.00    +0.000 A 
ATOM     14  S   UNL     1       2.276   5.840  20.312  0.00  0.00    +0.000 S 
BRANCH  13  15
ATOM     15  C   UNL     1       1.224   8.268  20.987  0.00  0.00    +0.000 C 
ATOM     16  O   UNL     1       0.659   9.336  20.755  0.00  0.00    +0.000 OA
ENDBRANCH  13  15
ENDBRANCH   1  10
BRANCH   1  18
ATOM     17  C   UNL     1       1.691   2.425  18.302  0.00  0.00    +0.000 C 
ATOM     18  C   UNL     1       2.540   3.430  17.526  0.00  0.00    +0.000 C 
ENDBRANCH   1  18
TORSDOF 5
ENDMDL
MODEL 2
REMARK VINA RESULT:      -6.1      1.450      1.685
REMARK  Name = 
REMARK  7 active torsions:
REMARK  status: ('A' for Active; 'I' for Inactive)
REMARK    1  A    between atoms: C_1  and  C_2
REMARK    2  A    between atoms: C_2  and  C_3
REMARK    3  A    between atoms: C_3  and  C_4
REMARK    4  A    between atoms: C_3  and  C_5
REMARK    5  A    between atoms: C_3  and  C_12
REMARK    6  A    between atoms: C_8  and  C_9
REMARK    7  A    between atoms: C_15  and  C_16
REMARK                            x       y       z     vdW  Elec       q    Type
REMARK                         _______ _______ _______ _____ _____    ______ ____
ROOT
ATOM      1  C   UNL     1       2.717   5.456  18.927  0.00  0.00    +0.000 C 
ATOM      2  C   UNL     1       2.520   4.966  20.391  0.00  0.00    +0.000 C 
ENDROOT
BRANCH   1   3
ATOM      3  C   UNL     1       4.190   5.289  18.491  0.00  0.00    +0.000 A 
ATOM      4  C   UNL     1       5.336   5.322  19.270  0.00  0.00    +0.000 A 
ATOM      5  C   UNL     1       6.529   5.118  18.521  0.00  0.00    +0.000 A 
ATOM      6  C   UNL     1       6.275   4.942  17.180  0.00  0.00    +0.000 A 
ATOM      7  S   UNL     1       4.609   5.037  16.833  0.00  0.00    +0.000 S 
BRANCH   6   8
ATOM      8  C   UNL     1       7.232   4.703  16.124  0.00  0.00    +0.000 C 
ATOM      9  O   UNL     1       7.541   5.524  15.262  0.00  0.00    +0.000 OA
ENDBRANCH   6   8
ENDBRANCH   1   3
BRANCH   1  10
ATOM     10  C   UNL     1       2.295   6.950  18.865  0.00  0.00    +0.000 A 
ATOM     11  C   UNL     1       2.343   7.835  17.797  0.00  0.00    +0.000 A 
ATOM     12  C   UNL     1       1.844   9.130  18.120  0.00  0.00    +0.000 A 
ATOM     13  C   UNL     1       1.425   9.214  19.429  0.00  0.00    +0.000 A 
ATOM     14  S   UNL     1       1.641   7.742  20.258  0.00  0.00    +0.000 S 
BRANCH  13  15
ATOM     15  C   UNL     1       0.860  10.355  20.110  0.00  0.00    +0.000 C 
ATOM     16  O   UNL     1       1.222  11.518  19.942  0.00  0.00    +0.000 OA
ENDBRANCH  13  15
ENDBRANCH   1  10
BRANCH   1  18
ATOM     17  C   UNL     1       1.720   3.099  18.326  0.00  0.00    +0.000 C 
ATOM     18  C   UNL     1       1.777   4.593  18.014  0.00  0.00    +0.000 C 
ENDBRANCH   1  18
TORSDOF 5
ENDMDL
MODEL 3
REMARK VINA RESULT:      -6.1      1.727      1.964
REMARK  Name = 
REMARK  7 active torsions:
REMARK  status: ('A' for Active; 'I' for Inactive)
REMARK    1  A    between atoms: C_1  and  C_2
REMARK    2  A    between atoms: C_2  and  C_3
REMARK    3  A    between atoms: C_3  and  C_4
REMARK    4  A    between atoms: C_3  and  C_5
REMARK    5  A    between atoms: C_3  and  C_12
REMARK    6  A    between atoms: C_8  and  C_9
REMARK    7  A    between atoms: C_15  and  C_16
REMARK                            x       y       z     vdW  Elec       q    Type
REMARK                         _______ _______ _______ _____ _____    ______ ____
ROOT
ATOM      1  C   UNL     1       2.584   4.838  19.183  0.00  0.00    +0.000 C 
ATOM      2  C   UNL     1       2.889   4.374  20.637  0.00  0.00    +0.000 C 
ENDROOT
BRANCH   1   3
ATOM      3  C   UNL     1       3.801   4.586  18.265  0.00  0.00    +0.000 A 
ATOM      4  C   UNL     1       3.832   4.028  16.995  0.00  0.00    +0.000 A 
ATOM      5  C   UNL     1       5.142   3.962  16.444  0.00  0.00    +0.000 A 
ATOM      6  C   UNL     1       6.093   4.463  17.305  0.00  0.00    +0.000 A 
ATOM      7  S   UNL     1       5.404   4.993  18.771  0.00  0.00    +0.000 S 
BRANCH   6   8
ATOM      8  C   UNL     1       7.517   4.565  17.084  0.00  0.00    +0.000 C 
ATOM      9  O   UNL     1       8.376   4.118  17.842  0.00  0.00    +0.000 OA
ENDBRANCH   6   8
ENDBRANCH   1   3
BRANCH   1  10
ATOM     10  C   UNL     1       2.240   6.352  19.230  0.00  0.00    +0.000 A 
ATOM     11  C   UNL     1       2.405   7.324  18.252  0.00  0.00    +0.000 A 
ATOM     12  C   UNL     1       1.948   8.610  18.659  0.00  0.00    +0.000 A 
ATOM     13  C   UNL     1       1.444   8.603  19.939  0.00  0.00    +0.000 A 
ATOM     14  S   UNL     1       1.530   7.054  20.644  0.00  0.00    +0.000 S 
BRANCH  13  15
ATOM     15  C   UNL     1       0.889   9.709  20.684  0.00  0.00    +0.000 C 
ATOM     16  O   UNL     1       1.313  10.103  21.769  0.00  0.00    +0.000 OA
ENDBRANCH  13  15
ENDBRANCH   1  10
BRANCH   1  18
ATOM     17  C   UNL     1       1.121   2.660  19.339  0.00  0.00    +0.000 C 
ATOM     18  C   UNL     1       1.343   4.020  18.680  0.00  0.00    +0.000 C 
ENDBRANCH   1  18
TORSDOF 5
ENDMDL
MODEL 4
REMARK VINA RESULT:      -6.1      1.620      5.994
REMARK  Name = 
REMARK  7 active torsions:
REMARK  status: ('A' for Active; 'I' for Inactive)
REMARK    1  A    between atoms: C_1  and  C_2
REMARK    2  A    between atoms: C_2  and  C_3
REMARK    3  A    between atoms: C_3  and  C_4
REMARK    4  A    between atoms: C_3  and  C_5
REMARK    5  A    between atoms: C_3  and  C_12
REMARK    6  A    between atoms: C_8  and  C_9
REMARK    7  A    between atoms: C_15  and  C_16
REMARK                            x       y       z     vdW  Elec       q    Type
REMARK                         _______ _______ _______ _____ _____    ______ ____
ROOT
ATOM      1  C   UNL     1       2.679   5.078  19.117  0.00  0.00    +0.000 C 
ATOM      2  C   UNL     1       1.789   4.406  18.032  0.00  0.00    +0.000 C 
ENDROOT
BRANCH   1   3
ATOM      3  C   UNL     1       2.218   6.529  19.378  0.00  0.00    +0.000 A 
ATOM      4  C   UNL     1       1.722   7.088  20.546  0.00  0.00    +0.000 A 
ATOM      5  C   UNL     1       1.407   8.470  20.418  0.00  0.00    +0.000 A 
ATOM      6  C   UNL     1       1.661   8.943  19.150  0.00  0.00    +0.000 A 
ATOM      7  S   UNL     1       2.259   7.720  18.125  0.00  0.00    +0.000 S 
BRANCH   6   8
ATOM      8  C   UNL     1       1.472  10.288  18.656  0.00  0.00    +0.000 C 
ATOM      9  O   UNL     1       0.380  10.838  18.525  0.00  0.00    +0.000 OA
ENDBRANCH   6   8
ENDBRANCH   1   3
BRANCH   1  10
ATOM     10  C   UNL     1       4.147   5.054  18.610  0.00  0.00    +0.000 A 
ATOM     11  C   UNL     1       5.324   5.288  19.307  0.00  0.00    +0.000 A 
ATOM     12  C   UNL     1       6.489   5.153  18.499  0.00  0.00    +0.000 A 
ATOM     13  C   UNL     1       6.185   4.821  17.199  0.00  0.00    +0.000 A 
ATOM     14  S   UNL     1       4.505   4.681  16.958  0.00  0.00    +0.000 S 
BRANCH  13  15
ATOM     15  C   UNL     1       7.097   4.597  16.101  0.00  0.00    +0.000 C 
ATOM     16  O   UNL     1       7.519   5.477  15.353  0.00  0.00    +0.000 OA
ENDBRANCH  13  15
ENDBRANCH   1  10
BRANCH   1  18
ATOM     17  C   UNL     1       1.249   3.435  20.590  0.00  0.00    +0.000 C 
ATOM     18  C   UNL     1       2.548   4.221  20.426  0.00  0.00    +0.000 C 
ENDBRANCH   1  18
TORSDOF 5
ENDMDL
MODEL 5
REMARK VINA RESULT:      -6.0      1.778      5.864
REMARK  Name = 
REMARK  7 active torsions:
REMARK  status: ('A' for Active; 'I' for Inactive)
REMARK    1  A    between atoms: C_1  and  C_2
REMARK    2  A    between atoms: C_2  and  C_3
REMARK    3  A    between atoms: C_3  and  C_4
REMARK    4  A    between atoms: C_3  and  C_5
REMARK    5  A    between atoms: C_3  and  C_12
REMARK    6  A    between atoms: C_8  and  C_9
REMARK    7  A    between atoms: C_15  and  C_16
REMARK                            x       y       z     vdW  Elec       q    Type
REMARK                         _______ _______ _______ _____ _____    ______ ____
ROOT
ATOM      1  C   UNL     1       2.464   4.745  19.527  0.00  0.00    +0.000 C 
ATOM      2  C   UNL     1       1.249   3.928  18.996  0.00  0.00    +0.000 C 
ENDROOT
BRANCH   1   3
ATOM      3  C   UNL     1       2.129   6.252  19.568  0.00  0.00    +0.000 A 
ATOM      4  C   UNL     1       1.674   7.013  20.635  0.00  0.00    +0.000 A 
ATOM      5  C   UNL     1       1.482   8.384  20.304  0.00  0.00    +0.000 A 
ATOM      6  C   UNL     1       1.788   8.647  18.988  0.00  0.00    +0.000 A 
ATOM      7  S   UNL     1       2.285   7.243  18.160  0.00  0.00    +0.000 S 
BRANCH   6   8
ATOM      8  C   UNL     1       1.722   9.918  18.304  0.00  0.00    +0.000 C 
ATOM      9  O   UNL     1       1.321  10.965  18.810  0.00  0.00    +0.000 OA
ENDBRANCH   6   8
ENDBRANCH   1   3
BRANCH   1  10
ATOM     10  C   UNL     1       3.666   4.477  18.580  0.00  0.00    +0.000 A 
ATOM     11  C   UNL     1       3.684   3.879  17.328  0.00  0.00    +0.000 A 
ATOM     12  C   UNL     1       4.986   3.830  16.751  0.00  0.00    +0.000 A 
ATOM     13  C   UNL     1       5.940   4.387  17.571  0.00  0.00    +0.000 A 
ATOM     14  S   UNL     1       5.267   4.958  19.027  0.00  0.00    +0.000 S 
BRANCH  13  15
ATOM     15  C   UNL     1       7.357   4.521  17.324  0.00  0.00    +0.000 C 
ATOM     16  O   UNL     1       7.864   4.627  16.209  0.00  0.00    +0.000 OA
ENDBRANCH  13  15
ENDBRANCH   1  10
BRANCH   1  18
ATOM     17  C   UNL     1       1.856   3.139  21.519  0.00  0.00    +0.000 C 
ATOM     18  C   UNL     1       2.788   4.218  20.969  0.00  0.00    +0.000 C 
ENDBRANCH   1  18
TORSDOF 5
ENDMDL
MODEL 6
REMARK VINA RESULT:      -6.0      0.598      6.234
REMARK  Name = 
REMARK  7 active torsions:
REMARK  status: ('A' for Active; 'I' for Inactive)
REMARK    1  A    between atoms: C_1  and  C_2
REMARK    2  A    between atoms: C_2  and  C_3
REMARK    3  A    between atoms: C_3  and  C_4
REMARK    4  A    between atoms: C_3  and  C_5
REMARK    5  A    between atoms: C_3  and  C_12
REMARK    6  A    between atoms: C_8  and  C_9
REMARK    7  A    between atoms: C_15  and  C_16
REMARK                            x       y       z     vdW  Elec       q    Type
REMARK                         _______ _______ _______ _____ _____    ______ ____
ROOT
ATOM      1  C   UNL     1       3.869   4.213  18.058  0.00  0.00    +0.000 C 
ATOM      2  C   UNL     1       2.856   3.398  17.202  0.00  0.00    +0.000 C 
ENDROOT
BRANCH   1   3
ATOM      3  C   UNL     1       3.252   5.560  18.496  0.00  0.00    +0.000 A 
ATOM      4  C   UNL     1       3.211   6.763  17.807  0.00  0.00    +0.000 A 
ATOM      5  C   UNL     1       2.545   7.797  18.523  0.00  0.00    +0.000 A 
ATOM      6  C   UNL     1       2.096   7.370  19.752  0.00  0.00    +0.000 A 
ATOM      7  S   UNL     1       2.492   5.737  20.039  0.00  0.00    +0.000 S 
BRANCH   6   8
ATOM      8  C   UNL     1       1.376   8.135  20.744  0.00  0.00    +0.000 C 
ATOM      9  O   UNL     1       0.844   9.224  20.536  0.00  0.00    +0.000 OA
ENDBRANCH   6   8
ENDBRANCH   1   3
BRANCH   1  10
ATOM     10  C   UNL     1       5.138   4.450  17.193  0.00  0.00    +0.000 A 
ATOM     11  C   UNL     1       6.455   4.630  17.593  0.00  0.00    +0.000 A 
ATOM     12  C   UNL     1       7.354   4.799  16.500  0.00  0.00    +0.000 A 
ATOM     13  C   UNL     1       6.710   4.748  15.285  0.00  0.00    +0.000 A 
ATOM     14  S   UNL     1       5.034   4.504  15.466  0.00  0.00    +0.000 S 
BRANCH  13  15
ATOM     15  C   UNL     1       7.287   4.872  13.966  0.00  0.00    +0.000 C 
ATOM     16  O   UNL     1       8.188   5.654  13.670  0.00  0.00    +0.000 OA
ENDBRANCH  13  15
ENDBRANCH   1  10
BRANCH   1  18
ATOM     17  C   UNL     1       3.568   1.968  19.392  0.00  0.00    +0.000 C 
ATOM     18  C   UNL     1       4.229   3.343  19.313  0.00  0.00    +0.000 C 
ENDBRANCH   1  18
TORSDOF 5
ENDMDL
MODEL 7
REMARK VINA RESULT:      -6.0      1.562      6.308
REMARK  Name = 
REMARK  7 active torsions:
REMARK  status: ('A' for Active; 'I' for Inactive)
REMARK    1  A    between atoms: C_1  and  C_2
REMARK    2  A    between atoms: C_2  and  C_3
REMARK    3  A    between atoms: C_3  and  C_4
REMARK    4  A    between atoms: C_3  and  C_5
REMARK    5  A    between atoms: C_3  and  C_12
REMARK    6  A    between atoms: C_8  and  C_9
REMARK    7  A    between atoms: C_15  and  C_16
REMARK                            x       y       z     vdW  Elec       q    Type
REMARK                         _______ _______ _______ _____ _____    ______ ____
ROOT
ATOM      1  C   UNL     1       2.622   5.491  19.059  0.00  0.00    +0.000 C 
ATOM      2  C   UNL     1       1.740   4.663  18.079  0.00  0.00    +0.000 C 
ENDROOT
BRANCH   1   3
ATOM      3  C   UNL     1       2.213   6.981  19.032  0.00  0.00    +0.000 A 
ATOM      4  C   UNL     1       2.233   7.869  17.966  0.00  0.00    +0.000 A 
ATOM      5  C   UNL     1       1.771   9.170  18.312  0.00  0.00    +0.000 A 
ATOM      6  C   UNL     1       1.413   9.257  19.639  0.00  0.00    +0.000 A 
ATOM      7  S   UNL     1       1.650   7.781  20.457  0.00  0.00    +0.000 S 
BRANCH   6   8
ATOM      8  C   UNL     1       0.896  10.410  20.340  0.00  0.00    +0.000 C 
ATOM      9  O   UNL     1       1.011  10.603  21.549  0.00  0.00    +0.000 OA
ENDBRANCH   6   8
ENDBRANCH   1   3
BRANCH   1  10
ATOM     10  C   UNL     1       4.103   5.324  18.622  0.00  0.00    +0.000 A 
ATOM     11  C   UNL     1       5.260   5.394  19.387  0.00  0.00    +0.000 A 
ATOM     12  C   UNL     1       6.445   5.163  18.630  0.00  0.00    +0.000 A 
ATOM     13  C   UNL     1       6.176   4.923  17.302  0.00  0.00    +0.000 A 
ATOM     14  S   UNL     1       4.506   4.983  16.974  0.00  0.00    +0.000 S 
BRANCH  13  15
ATOM     15  C   UNL     1       7.115   4.644  16.240  0.00  0.00    +0.000 C 
ATOM     16  O   UNL     1       6.821   4.115  15.170  0.00  0.00    +0.000 OA
ENDBRANCH  13  15
ENDBRANCH   1  10
BRANCH   1  18
ATOM     17  C   UNL     1       1.633   3.584  20.574  0.00  0.00    +0.000 C 
ATOM     18  C   UNL     1       2.413   4.895  20.495  0.00  0.00    +0.000 C 
ENDBRANCH   1  18
TORSDOF 5
ENDMDL
MODEL 8
REMARK VINA RESULT:      -6.0      1.478      1.853
REMARK  Name = 
REMARK  7 active torsions:
REMARK  status: ('A' for Active; 'I' for Inactive)
REMARK    1  A    between atoms: C_1  and  C_2
REMARK    2  A    between atoms: C_2  and  C_3
REMARK    3  A    between atoms: C_3  and  C_4
REMARK    4  A    between atoms: C_3  and  C_5
REMARK    5  A    between atoms: C_3  and  C_12
REMARK    6  A    between atoms: C_8  and  C_9
REMARK    7  A    between atoms: C_15  and  C_16
REMARK                            x       y       z     vdW  Elec       q    Type
REMARK                         _______ _______ _______ _____ _____    ______ ____
ROOT
ATOM      1  C   UNL     1       2.751   4.999  19.097  0.00  0.00    +0.000 C 
ATOM      2  C   UNL     1       2.684   4.235  20.451  0.00  0.00    +0.000 C 
ENDROOT
BRANCH   1   3
ATOM      3  C   UNL     1       4.192   4.993  18.540  0.00  0.00    +0.000 A 
ATOM      4  C   UNL     1       5.377   5.302  19.190  0.00  0.00    +0.000 A 
ATOM      5  C   UNL     1       6.524   5.176  18.357  0.00  0.00    +0.000 A 
ATOM      6  C   UNL     1       6.195   4.780  17.080  0.00  0.00    +0.000 A 
ATOM      7  S   UNL     1       4.513   4.580  16.892  0.00  0.00    +0.000 S 
BRANCH   6   8
ATOM      8  C   UNL     1       7.090   4.542  15.971  0.00  0.00    +0.000 C 
ATOM      9  O   UNL     1       7.636   5.425  15.311  0.00  0.00    +0.000 OA
ENDBRANCH   6   8
ENDBRANCH   1   3
BRANCH   1  10
ATOM     10  C   UNL     1       2.269   6.455  19.350  0.00  0.00    +0.000 A 
ATOM     11  C   UNL     1       1.785   7.032  20.515  0.00  0.00    +0.000 A 
ATOM     12  C   UNL     1       1.459   8.411  20.363  0.00  0.00    +0.000 A 
ATOM     13  C   UNL     1       1.696   8.863  19.085  0.00  0.00    +0.000 A 
ATOM     14  S   UNL     1       2.301   7.629  18.079  0.00  0.00    +0.000 S 
BRANCH  13  15
ATOM     15  C   UNL     1       1.494  10.194  18.560  0.00  0.00    +0.000 C 
ATOM     16  O   UNL     1       0.414  10.780  18.542  0.00  0.00    +0.000 OA
ENDBRANCH  13  15
ENDBRANCH   1  10
BRANCH   1  18
ATOM     17  C   UNL     1       1.213   2.934  18.566  0.00  0.00    +0.000 C 
ATOM     18  C   UNL     1       1.778   4.275  18.102  0.00  0.00    +0.000 C 
ENDBRANCH   1  18
TORSDOF 5
ENDMDL
MODEL 9
REMARK VINA RESULT:      -6.0      1.852      2.206
REMARK  Name = 
REMARK  7 active torsions:
REMARK  status: ('A' for Active; 'I' for Inactive)
REMARK    1  A    between atoms: C_1  and  C_2
REMARK    2  A    between atoms: C_2  and  C_3
REMARK    3  A    between atoms: C_3  and  C_4
REMARK    4  A    between atoms: C_3  and  C_5
REMARK    5  A    between atoms: C_3  and  C_12
REMARK    6  A    between atoms: C_8  and  C_9
REMARK    7  A    between atoms: C_15  and  C_16
REMARK                            x       y       z     vdW  Elec       q    Type
REMARK                         _______ _______ _______ _____ _____    ______ ____
ROOT
ATOM      1  C   UNL     1       2.671   4.111  19.042  0.00  0.00    +0.000 C 
ATOM      2  C   UNL     1       2.978   3.326  20.350  0.00  0.00    +0.000 C 
ENDROOT
BRANCH   1   3
ATOM      3  C   UNL     1       3.911   4.138  18.120  0.00  0.00    +0.000 A 
ATOM      4  C   UNL     1       3.987   3.886  16.758  0.00  0.00    +0.000 A 
ATOM      5  C   UNL     1       5.305   4.016  16.237  0.00  0.00    +0.000 A 
ATOM      6  C   UNL     1       6.216   4.357  17.211  0.00  0.00    +0.000 A 
ATOM      7  S   UNL     1       5.482   4.502  18.743  0.00  0.00    +0.000 S 
BRANCH   6   8
ATOM      8  C   UNL     1       7.635   4.580  17.054  0.00  0.00    +0.000 C 
ATOM      9  O   UNL     1       8.501   4.128  17.800  0.00  0.00    +0.000 OA
ENDBRANCH   6   8
ENDBRANCH   1   3
BRANCH   1  10
ATOM     10  C   UNL     1       2.255   5.554  19.440  0.00  0.00    +0.000 A 
ATOM     11  C   UNL     1       1.756   6.024  20.647  0.00  0.00    +0.000 A 
ATOM     12  C   UNL     1       1.509   7.427  20.641  0.00  0.00    +0.000 A 
ATOM     13  C   UNL     1       1.818   8.005  19.431  0.00  0.00    +0.000 A 
ATOM     14  S   UNL     1       2.397   6.858  18.312  0.00  0.00    +0.000 S 
BRANCH  13  15
ATOM     15  C   UNL     1       1.705   9.394  19.053  0.00  0.00    +0.000 C 
ATOM     16  O   UNL     1       1.281   9.791  17.969  0.00  0.00    +0.000 OA
ENDBRANCH  13  15
ENDBRANCH   1  10
BRANCH   1  18
ATOM     17  C   UNL     1       0.545   2.576  19.229  0.00  0.00    +0.000 C 
ATOM     18  C   UNL     1       1.477   3.384  18.329  0.00  0.00    +0.000 C 
ENDBRANCH   1  18
TORSDOF 5
ENDMDL
