MODEL 1
REMARK VINA RESULT:      -9.3      0.000      0.000
REMARK  Name = 
REMARK  11 active torsions:
REMARK  status: ('A' for Active; 'I' for Inactive)
REMARK    1  A    between atoms: C_1  and  C_2
REMARK    2  A    between atoms: C_2  and  C_3
REMARK    3  A    between atoms: C_6  and  C_7
REMARK    4  A    between atoms: C_7  and  C_8
REMARK    5  A    between atoms: C_9  and  C_10
REMARK    6  A    between atoms: C_10  and  C_11
REMARK    7  A    between atoms: C_11  and  C_12
REMARK    8  A    between atoms: C_12  and  C_13
REMARK    9  A    between atoms: C_13  and  O_15
REMARK   10  A    between atoms: C_16  and  N_17
REMARK   11  A    between atoms: C_18  and  C_20
REMARK                            x       y       z     vdW  Elec       q    Type
REMARK                         _______ _______ _______ _____ _____    ______ ____
ROOT
ATOM      1  C   UNL     1       1.705   2.483  21.932  0.00  0.00    +0.000 C 
ATOM      2  C   UNL     1       1.827   2.961  20.471  0.00  0.00    +0.000 C 
ATOM      3  C   UNL     1       0.453   3.468  20.028  0.00  0.00    +0.000 C 
ATOM      4  C   UNL     1       2.548   1.929  19.531  0.00  0.00    +0.000 C 
ATOM      5  C   UNL     1       2.428   2.180  18.030  0.00  0.00    +0.000 C 
ATOM      6  C   UNL     1       2.702   3.664  17.643  0.00  0.00    +0.000 C 
ATOM      7  C   UNL     1       3.230   4.556  18.806  0.00  0.00    +0.000 C 
ATOM      8  C   UNL     1       3.108   3.852  20.166  0.00  0.00    +0.000 C 
ATOM      9  C   UNL     1       3.891   2.509  20.055  0.00  0.00    +0.000 C 
ENDROOT
BRANCH   7  10
ATOM     10  N   UNL     1       2.498   5.819  18.917  0.00  0.00    +0.000 N 
ATOM     11  C   UNL     1       2.996   7.015  18.432  0.00  0.00    +0.000 C 
ATOM     12  O   UNL     1       4.057   7.107  17.823  0.00  0.00    +0.000 OA
ATOM     13  H   UNL     1       1.571   5.794  19.317  0.00  0.00    +0.000 HD
BRANCH  11  14
ATOM     14  C   UNL     1       2.168   8.242  18.656  0.00  0.00    +0.000 A 
ATOM     15  C   UNL     1       1.940   9.177  17.634  0.00  0.00    +0.000 A 
ATOM     16  C   UNL     1       1.140  10.309  17.848  0.00  0.00    +0.000 A 
ATOM     17  C   UNL     1       0.570  10.451  19.111  0.00  0.00    +0.000 A 
ATOM     18  O   UNL     1      -0.239  11.474  19.494  0.00  0.00    +0.000 OA
ATOM     19  C   UNL     1      -0.596  11.239  20.784  0.00  0.00    +0.000 A 
ATOM     20  C   UNL     1      -1.432  12.057  21.545  0.00  0.00    +0.000 A 
ATOM     21  C   UNL     1      -1.683  11.644  22.859  0.00  0.00    +0.000 A 
ATOM     22  C   UNL     1      -1.115  10.475  23.365  0.00  0.00    +0.000 A 
ATOM     23  C   UNL     1      -0.277   9.672  22.575  0.00  0.00    +0.000 A 
ATOM     24  C   UNL     1      -0.010  10.065  21.249  0.00  0.00    +0.000 A 
ATOM     25  C   UNL     1       0.752   9.545  20.155  0.00  0.00    +0.000 A 
ATOM     26  C   UNL     1       1.566   8.416  19.922  0.00  0.00    +0.000 A 
ENDBRANCH  11  14
ENDBRANCH   7  10
BRANCH   6  27
ATOM     27  C   UNL     1       3.686   3.728  16.456  0.00  0.00    +0.000 C 
BRANCH  27  28
ATOM     28  C   UNL     1       5.111   3.938  16.900  0.00  0.00    +0.000 C 
ATOM     29  C   UNL     1       6.031   4.711  16.304  0.00  0.00    +0.000 C 
BRANCH  29  30
ATOM     30  C   UNL     1       5.839   5.513  15.050  0.00  0.00    +0.000 C 
BRANCH  30  31
ATOM     31  C   UNL     1       6.556   4.911  13.843  0.00  0.00    +0.000 C 
BRANCH  31  32
ATOM     32  C   UNL     1       6.288   3.416  13.678  0.00  0.00    +0.000 C 
BRANCH  32  33
ATOM     33  C   UNL     1       5.893   3.078  12.261  0.00  0.00    +0.000 C 
ATOM     34  O   UNL     1       4.871   3.445  11.703  0.00  0.00    +0.000 OA
BRANCH  33  35
ATOM     35  O   UNL     1       6.818   2.306  11.645  0.00  0.00    +0.000 OA
ATOM     36  H   UNL     1       6.544   2.004  10.759  0.00  0.00    +0.000 HD
ENDBRANCH  33  35
ENDBRANCH  32  33
ENDBRANCH  31  32
ENDBRANCH  30  31
ENDBRANCH  29  30
ENDBRANCH  27  28
ENDBRANCH   6  27
TORSDOF 9
ENDMDL
MODEL 2
REMARK VINA RESULT:      -8.7      2.721      4.090
REMARK  Name = 
REMARK  11 active torsions:
REMARK  status: ('A' for Active; 'I' for Inactive)
REMARK    1  A    between atoms: C_1  and  C_2
REMARK    2  A    between atoms: C_2  and  C_3
REMARK    3  A    between atoms: C_6  and  C_7
REMARK    4  A    between atoms: C_7  and  C_8
REMARK    5  A    between atoms: C_9  and  C_10
REMARK    6  A    between atoms: C_10  and  C_11
REMARK    7  A    between atoms: C_11  and  C_12
REMARK    8  A    between atoms: C_12  and  C_13
REMARK    9  A    between atoms: C_13  and  O_15
REMARK   10  A    between atoms: C_16  and  N_17
REMARK   11  A    between atoms: C_18  and  C_20
REMARK                            x       y       z     vdW  Elec       q    Type
REMARK                         _______ _______ _______ _____ _____    ______ ____
ROOT
ATOM      1  C   UNL     1       0.819   2.263  18.943  0.00  0.00    +0.000 C 
ATOM      2  C   UNL     1       1.939   3.295  18.702  0.00  0.00    +0.000 C 
ATOM      3  C   UNL     1       1.467   4.251  17.604  0.00  0.00    +0.000 C 
ATOM      4  C   UNL     1       3.361   2.650  18.529  0.00  0.00    +0.000 C 
ATOM      5  C   UNL     1       4.456   3.560  17.978  0.00  0.00    +0.000 C 
ATOM      6  C   UNL     1       4.490   4.952  18.676  0.00  0.00    +0.000 C 
ATOM      7  C   UNL     1       3.553   5.087  19.914  0.00  0.00    +0.000 C 
ATOM      8  C   UNL     1       2.579   3.903  20.023  0.00  0.00    +0.000 C 
ATOM      9  C   UNL     1       3.443   2.608  20.080  0.00  0.00    +0.000 C 
ENDROOT
BRANCH   7  10
ATOM     10  N   UNL     1       2.738   6.301  19.866  0.00  0.00    +0.000 N 
ATOM     11  C   UNL     1       2.770   7.181  18.799  0.00  0.00    +0.000 C 
ATOM     12  O   UNL     1       3.436   6.989  17.787  0.00  0.00    +0.000 OA
ATOM     13  H   UNL     1       2.089   6.466  20.623  0.00  0.00    +0.000 HD
BRANCH  11  14
ATOM     14  C   UNL     1       1.923   8.411  18.900  0.00  0.00    +0.000 A 
ATOM     15  C   UNL     1       1.700   9.248  17.795  0.00  0.00    +0.000 A 
ATOM     16  C   UNL     1       0.882  10.383  17.894  0.00  0.00    +0.000 A 
ATOM     17  C   UNL     1       0.290  10.629  19.131  0.00  0.00    +0.000 A 
ATOM     18  O   UNL     1      -0.538  11.671  19.409  0.00  0.00    +0.000 OA
ATOM     19  C   UNL     1      -0.913  11.547  20.709  0.00  0.00    +0.000 A 
ATOM     20  C   UNL     1      -1.772  12.417  21.381  0.00  0.00    +0.000 A 
ATOM     21  C   UNL     1      -2.039  12.120  22.723  0.00  0.00    +0.000 A 
ATOM     22  C   UNL     1      -1.466  11.008  23.340  0.00  0.00    +0.000 A 
ATOM     23  C   UNL     1      -0.604  10.150  22.638  0.00  0.00    +0.000 A 
ATOM     24  C   UNL     1      -0.320  10.427  21.286  0.00  0.00    +0.000 A 
ATOM     25  C   UNL     1       0.466   9.823  20.255  0.00  0.00    +0.000 A 
ATOM     26  C   UNL     1       1.298   8.689  20.136  0.00  0.00    +0.000 A 
ENDBRANCH  11  14
ENDBRANCH   7  10
BRANCH   6  27
ATOM     27  C   UNL     1       5.937   5.305  19.084  0.00  0.00    +0.000 C 
BRANCH  27  28
ATOM     28  C   UNL     1       6.900   5.208  17.929  0.00  0.00    +0.000 C 
ATOM     29  C   UNL     1       7.448   6.230  17.255  0.00  0.00    +0.000 C 
BRANCH  29  30
ATOM     30  C   UNL     1       7.196   7.690  17.496  0.00  0.00    +0.000 C 
BRANCH  30  31
ATOM     31  C   UNL     1       8.349   8.382  18.219  0.00  0.00    +0.000 C 
BRANCH  31  32
ATOM     32  C   UNL     1       8.423   9.879  17.924  0.00  0.00    +0.000 C 
BRANCH  32  33
ATOM     33  C   UNL     1       9.318  10.594  18.907  0.00  0.00    +0.000 C 
ATOM     34  O   UNL     1       9.957  11.608  18.676  0.00  0.00    +0.000 OA
BRANCH  33  35
ATOM     35  O   UNL     1       9.339   9.983  20.114  0.00  0.00    +0.000 OA
ATOM     36  H   UNL     1       8.540   9.455  20.296  0.00  0.00    +0.000 HD
ENDBRANCH  33  35
ENDBRANCH  32  33
ENDBRANCH  31  32
ENDBRANCH  30  31
ENDBRANCH  29  30
ENDBRANCH  27  28
ENDBRANCH   6  27
TORSDOF 9
ENDMDL
MODEL 3
REMARK VINA RESULT:      -8.6      2.079      2.642
REMARK  Name = 
REMARK  11 active torsions:
REMARK  status: ('A' for Active; 'I' for Inactive)
REMARK    1  A    between atoms: C_1  and  C_2
REMARK    2  A    between atoms: C_2  and  C_3
REMARK    3  A    between atoms: C_6  and  C_7
REMARK    4  A    between atoms: C_7  and  C_8
REMARK    5  A    between atoms: C_9  and  C_10
REMARK    6  A    between atoms: C_10  and  C_11
REMARK    7  A    between atoms: C_11  and  C_12
REMARK    8  A    between atoms: C_12  and  C_13
REMARK    9  A    between atoms: C_13  and  O_15
REMARK   10  A    between atoms: C_16  and  N_17
REMARK   11  A    between atoms: C_18  and  C_20
REMARK                            x       y       z     vdW  Elec       q    Type
REMARK                         _______ _______ _______ _____ _____    ______ ____
ROOT
ATOM      1  C   UNL     1       2.051   2.730  22.031  0.00  0.00    +0.000 C 
ATOM      2  C   UNL     1       1.941   3.190  20.564  0.00  0.00    +0.000 C 
ATOM      3  C   UNL     1       0.540   3.769  20.358  0.00  0.00    +0.000 C 
ATOM      4  C   UNL     1       2.431   2.114  19.530  0.00  0.00    +0.000 C 
ATOM      5  C   UNL     1       2.064   2.361  18.068  0.00  0.00    +0.000 C 
ATOM      6  C   UNL     1       2.345   3.825  17.616  0.00  0.00    +0.000 C 
ATOM      7  C   UNL     1       3.114   4.695  18.654  0.00  0.00    +0.000 C 
ATOM      8  C   UNL     1       3.194   4.007  20.027  0.00  0.00    +0.000 C 
ATOM      9  C   UNL     1       3.873   2.623  19.802  0.00  0.00    +0.000 C 
ENDROOT
BRANCH   7  10
ATOM     10  N   UNL     1       2.481   5.996  18.871  0.00  0.00    +0.000 N 
ATOM     11  C   UNL     1       2.915   7.151  18.243  0.00  0.00    +0.000 C 
ATOM     12  O   UNL     1       3.821   7.170  17.417  0.00  0.00    +0.000 OA
ATOM     13  H   UNL     1       1.662   6.032  19.461  0.00  0.00    +0.000 HD
BRANCH  11  14
ATOM     14  C   UNL     1       2.211   8.425  18.592  0.00  0.00    +0.000 A 
ATOM     15  C   UNL     1       2.161   9.509  17.702  0.00  0.00    +0.000 A 
ATOM     16  C   UNL     1       1.474  10.688  18.028  0.00  0.00    +0.000 A 
ATOM     17  C   UNL     1       0.833  10.724  19.265  0.00  0.00    +0.000 A 
ATOM     18  O   UNL     1       0.114  11.775  19.742  0.00  0.00    +0.000 OA
ATOM     19  C   UNL     1      -0.359  11.412  20.964  0.00  0.00    +0.000 A 
ATOM     20  C   UNL     1      -1.155  12.212  21.784  0.00  0.00    +0.000 A 
ATOM     21  C   UNL     1      -1.545  11.658  23.009  0.00  0.00    +0.000 A 
ATOM     22  C   UNL     1      -1.146  10.372  23.376  0.00  0.00    +0.000 A 
ATOM     23  C   UNL     1      -0.344   9.591  22.529  0.00  0.00    +0.000 A 
ATOM     24  C   UNL     1       0.060  10.125  21.289  0.00  0.00    +0.000 A 
ATOM     25  C   UNL     1       0.839   9.672  20.178  0.00  0.00    +0.000 A 
ATOM     26  C   UNL     1       1.540   8.496  19.834  0.00  0.00    +0.000 A 
ENDBRANCH  11  14
ENDBRANCH   7  10
BRANCH   6  27
ATOM     27  C   UNL     1       3.108   3.827  16.274  0.00  0.00    +0.000 C 
BRANCH  27  28
ATOM     28  C   UNL     1       4.367   3.001  16.328  0.00  0.00    +0.000 C 
ATOM     29  C   UNL     1       5.627   3.451  16.228  0.00  0.00    +0.000 C 
BRANCH  29  30
ATOM     30  C   UNL     1       6.046   4.877  16.015  0.00  0.00    +0.000 C 
BRANCH  30  31
ATOM     31  C   UNL     1       7.503   5.132  16.396  0.00  0.00    +0.000 C 
BRANCH  31  32
ATOM     32  C   UNL     1       7.845   4.637  17.800  0.00  0.00    +0.000 C 
BRANCH  32  33
ATOM     33  C   UNL     1       7.581   5.698  18.841  0.00  0.00    +0.000 C 
ATOM     34  O   UNL     1       8.146   6.778  18.911  0.00  0.00    +0.000 OA
BRANCH  33  35
ATOM     35  O   UNL     1       6.619   5.326  19.716  0.00  0.00    +0.000 OA
ATOM     36  H   UNL     1       5.881   4.843  19.299  0.00  0.00    +0.000 HD
ENDBRANCH  33  35
ENDBRANCH  32  33
ENDBRANCH  31  32
ENDBRANCH  30  31
ENDBRANCH  29  30
ENDBRANCH  27  28
ENDBRANCH   6  27
TORSDOF 9
ENDMDL
MODEL 4
REMARK VINA RESULT:      -8.6      1.440      1.959
REMARK  Name = 
REMARK  11 active torsions:
REMARK  status: ('A' for Active; 'I' for Inactive)
REMARK    1  A    between atoms: C_1  and  C_2
REMARK    2  A    between atoms: C_2  and  C_3
REMARK    3  A    between atoms: C_6  and  C_7
REMARK    4  A    between atoms: C_7  and  C_8
REMARK    5  A    between atoms: C_9  and  C_10
REMARK    6  A    between atoms: C_10  and  C_11
REMARK    7  A    between atoms: C_11  and  C_12
REMARK    8  A    between atoms: C_12  and  C_13
REMARK    9  A    between atoms: C_13  and  O_15
REMARK   10  A    between atoms: C_16  and  N_17
REMARK   11  A    between atoms: C_18  and  C_20
REMARK                            x       y       z     vdW  Elec       q    Type
REMARK                         _______ _______ _______ _____ _____    ______ ____
ROOT
ATOM      1  C   UNL     1       0.676   2.653  18.977  0.00  0.00    +0.000 C 
ATOM      2  C   UNL     1       1.917   3.517  18.673  0.00  0.00    +0.000 C 
ATOM      3  C   UNL     1       1.595   4.388  17.457  0.00  0.00    +0.000 C 
ATOM      4  C   UNL     1       3.257   2.699  18.634  0.00  0.00    +0.000 C 
ATOM      5  C   UNL     1       4.469   3.410  18.035  0.00  0.00    +0.000 C 
ATOM      6  C   UNL     1       4.645   4.860  18.576  0.00  0.00    +0.000 C 
ATOM      7  C   UNL     1       3.693   5.241  19.749  0.00  0.00    +0.000 C 
ATOM      8  C   UNL     1       2.584   4.196  19.946  0.00  0.00    +0.000 C 
ATOM      9  C   UNL     1       3.287   2.826  20.183  0.00  0.00    +0.000 C 
ENDROOT
BRANCH   7  10
ATOM     10  N   UNL     1       3.028   6.527  19.533  0.00  0.00    +0.000 N 
ATOM     11  C   UNL     1       2.036   7.004  20.370  0.00  0.00    +0.000 C 
ATOM     12  O   UNL     1       1.673   6.421  21.386  0.00  0.00    +0.000 OA
ATOM     13  H   UNL     1       3.353   7.105  18.770  0.00  0.00    +0.000 HD
BRANCH  11  14
ATOM     14  C   UNL     1       1.403   8.311  20.007  0.00  0.00    +0.000 A 
ATOM     15  C   UNL     1       1.472   8.828  18.704  0.00  0.00    +0.000 A 
ATOM     16  C   UNL     1       0.851  10.041  18.368  0.00  0.00    +0.000 A 
ATOM     17  C   UNL     1       0.152  10.694  19.381  0.00  0.00    +0.000 A 
ATOM     18  O   UNL     1      -0.517  11.869  19.237  0.00  0.00    +0.000 OA
ATOM     19  C   UNL     1      -1.075  12.161  20.441  0.00  0.00    +0.000 A 
ATOM     20  C   UNL     1      -1.856  13.285  20.711  0.00  0.00    +0.000 A 
ATOM     21  C   UNL     1      -2.343  13.409  22.017  0.00  0.00    +0.000 A 
ATOM     22  C   UNL     1      -2.052  12.450  22.987  0.00  0.00    +0.000 A 
ATOM     23  C   UNL     1      -1.263  11.328  22.685  0.00  0.00    +0.000 A 
ATOM     24  C   UNL     1      -0.761  11.180  21.377  0.00  0.00    +0.000 A 
ATOM     25  C   UNL     1       0.040  10.217  20.685  0.00  0.00    +0.000 A 
ATOM     26  C   UNL     1       0.677   8.998  21.005  0.00  0.00    +0.000 A 
ENDBRANCH  11  14
ENDBRANCH   7  10
BRANCH   6  27
ATOM     27  C   UNL     1       6.110   5.090  19.005  0.00  0.00    +0.000 C 
BRANCH  27  28
ATOM     28  C   UNL     1       6.803   6.124  18.155  0.00  0.00    +0.000 C 
ATOM     29  C   UNL     1       7.268   5.955  16.908  0.00  0.00    +0.000 C 
BRANCH  29  30
ATOM     30  C   UNL     1       7.219   4.687  16.106  0.00  0.00    +0.000 C 
BRANCH  30  31
ATOM     31  C   UNL     1       6.820   4.919  14.650  0.00  0.00    +0.000 C 
BRANCH  31  32
ATOM     32  C   UNL     1       6.085   3.728  14.038  0.00  0.00    +0.000 C 
BRANCH  32  33
ATOM     33  C   UNL     1       6.336   3.624  12.554  0.00  0.00    +0.000 C 
ATOM     34  O   UNL     1       7.255   4.156  11.952  0.00  0.00    +0.000 OA
BRANCH  33  35
ATOM     35  O   UNL     1       5.415   2.852  11.933  0.00  0.00    +0.000 OA
ATOM     36  H   UNL     1       4.506   2.992  12.260  0.00  0.00    +0.000 HD
ENDBRANCH  33  35
ENDBRANCH  32  33
ENDBRANCH  31  32
ENDBRANCH  30  31
ENDBRANCH  29  30
ENDBRANCH  27  28
ENDBRANCH   6  27
TORSDOF 9
ENDMDL
MODEL 5
REMARK VINA RESULT:      -8.5      2.930      3.956
REMARK  Name = 
REMARK  11 active torsions:
REMARK  status: ('A' for Active; 'I' for Inactive)
REMARK    1  A    between atoms: C_1  and  C_2
REMARK    2  A    between atoms: C_2  and  C_3
REMARK    3  A    between atoms: C_6  and  C_7
REMARK    4  A    between atoms: C_7  and  C_8
REMARK    5  A    between atoms: C_9  and  C_10
REMARK    6  A    between atoms: C_10  and  C_11
REMARK    7  A    between atoms: C_11  and  C_12
REMARK    8  A    between atoms: C_12  and  C_13
REMARK    9  A    between atoms: C_13  and  O_15
REMARK   10  A    between atoms: C_16  and  N_17
REMARK   11  A    between atoms: C_18  and  C_20
REMARK                            x       y       z     vdW  Elec       q    Type
REMARK                         _______ _______ _______ _____ _____    ______ ____
ROOT
ATOM      1  C   UNL     1       1.088   2.307  19.481  0.00  0.00    +0.000 C 
ATOM      2  C   UNL     1       2.082   3.097  18.606  0.00  0.00    +0.000 C 
ATOM      3  C   UNL     1       1.271   3.902  17.587  0.00  0.00    +0.000 C 
ATOM      4  C   UNL     1       3.263   2.223  18.052  0.00  0.00    +0.000 C 
ATOM      5  C   UNL     1       4.100   2.844  16.935  0.00  0.00    +0.000 C 
ATOM      6  C   UNL     1       4.509   4.317  17.235  0.00  0.00    +0.000 C 
ATOM      7  C   UNL     1       4.166   4.811  18.672  0.00  0.00    +0.000 C 
ATOM      8  C   UNL     1       3.242   3.827  19.409  0.00  0.00    +0.000 C 
ATOM      9  C   UNL     1       3.965   2.447  19.420  0.00  0.00    +0.000 C 
ENDROOT
BRANCH   7  10
ATOM     10  N   UNL     1       3.486   6.107  18.670  0.00  0.00    +0.000 N 
ATOM     11  C   UNL     1       2.624   6.500  19.679  0.00  0.00    +0.000 C 
ATOM     12  O   UNL     1       2.405   5.825  20.679  0.00  0.00    +0.000 OA
ATOM     13  H   UNL     1       3.703   6.754  17.925  0.00  0.00    +0.000 HD
BRANCH  11  14
ATOM     14  C   UNL     1       1.955   7.830  19.528  0.00  0.00    +0.000 A 
ATOM     15  C   UNL     1       1.967   8.530  18.311  0.00  0.00    +0.000 A 
ATOM     16  C   UNL     1       1.313   9.764  18.174  0.00  0.00    +0.000 A 
ATOM     17  C   UNL     1       0.640  10.250  19.293  0.00  0.00    +0.000 A 
ATOM     18  O   UNL     1      -0.055  11.417  19.342  0.00  0.00    +0.000 OA
ATOM     19  C   UNL     1      -0.573  11.521  20.594  0.00  0.00    +0.000 A 
ATOM     20  C   UNL     1      -1.363  12.578  21.048  0.00  0.00    +0.000 A 
ATOM     21  C   UNL     1      -1.804  12.503  22.374  0.00  0.00    +0.000 A 
ATOM     22  C   UNL     1      -1.459  11.422  23.187  0.00  0.00    +0.000 A 
ATOM     23  C   UNL     1      -0.662  10.373  22.701  0.00  0.00    +0.000 A 
ATOM     24  C   UNL     1      -0.207  10.424  21.369  0.00  0.00    +0.000 A 
ATOM     25  C   UNL     1       0.585   9.589  20.519  0.00  0.00    +0.000 A 
ATOM     26  C   UNL     1       1.255   8.352  20.639  0.00  0.00    +0.000 A 
ENDBRANCH  11  14
ENDBRANCH   7  10
BRANCH   6  27
ATOM     27  C   UNL     1       6.017   4.513  16.969  0.00  0.00    +0.000 C 
BRANCH  27  28
ATOM     28  C   UNL     1       6.333   5.889  16.441  0.00  0.00    +0.000 C 
ATOM     29  C   UNL     1       7.073   6.829  17.049  0.00  0.00    +0.000 C 
BRANCH  29  30
ATOM     30  C   UNL     1       7.719   6.716  18.399  0.00  0.00    +0.000 C 
BRANCH  30  31
ATOM     31  C   UNL     1       8.542   7.948  18.770  0.00  0.00    +0.000 C 
BRANCH  31  32
ATOM     32  C   UNL     1       8.205   9.167  17.913  0.00  0.00    +0.000 C 
BRANCH  32  33
ATOM     33  C   UNL     1       8.878  10.413  18.434  0.00  0.00    +0.000 C 
ATOM     34  O   UNL     1       8.991  11.465  17.825  0.00  0.00    +0.000 OA
BRANCH  33  35
ATOM     35  O   UNL     1       9.357  10.247  19.688  0.00  0.00    +0.000 OA
ATOM     36  H   UNL     1       8.890  10.783  20.357  0.00  0.00    +0.000 HD
ENDBRANCH  33  35
ENDBRANCH  32  33
ENDBRANCH  31  32
ENDBRANCH  30  31
ENDBRANCH  29  30
ENDBRANCH  27  28
ENDBRANCH   6  27
TORSDOF 9
ENDMDL
MODEL 6
REMARK VINA RESULT:      -8.4      1.124      1.367
REMARK  Name = 
REMARK  11 active torsions:
REMARK  status: ('A' for Active; 'I' for Inactive)
REMARK    1  A    between atoms: C_1  and  C_2
REMARK    2  A    between atoms: C_2  and  C_3
REMARK    3  A    between atoms: C_6  and  C_7
REMARK    4  A    between atoms: C_7  and  C_8
REMARK    5  A    between atoms: C_9  and  C_10
REMARK    6  A    between atoms: C_10  and  C_11
REMARK    7  A    between atoms: C_11  and  C_12
REMARK    8  A    between atoms: C_12  and  C_13
REMARK    9  A    between atoms: C_13  and  O_15
REMARK   10  A    between atoms: C_16  and  N_17
REMARK   11  A    between atoms: C_18  and  C_20
REMARK                            x       y       z     vdW  Elec       q    Type
REMARK                         _______ _______ _______ _____ _____    ______ ____
ROOT
ATOM      1  C   UNL     1       1.069   2.333  20.270  0.00  0.00    +0.000 C 
ATOM      2  C   UNL     1       2.010   3.037  19.272  0.00  0.00    +0.000 C 
ATOM      3  C   UNL     1       1.141   3.743  18.228  0.00  0.00    +0.000 C 
ATOM      4  C   UNL     1       3.164   2.115  18.739  0.00  0.00    +0.000 C 
ATOM      5  C   UNL     1       3.937   2.628  17.526  0.00  0.00    +0.000 C 
ATOM      6  C   UNL     1       4.354   4.123  17.665  0.00  0.00    +0.000 C 
ATOM      7  C   UNL     1       4.086   4.750  19.065  0.00  0.00    +0.000 C 
ATOM      8  C   UNL     1       3.208   3.839  19.939  0.00  0.00    +0.000 C 
ATOM      9  C   UNL     1       3.938   2.466  20.040  0.00  0.00    +0.000 C 
ENDROOT
BRANCH   7  10
ATOM     10  N   UNL     1       3.400   6.039  18.978  0.00  0.00    +0.000 N 
ATOM     11  C   UNL     1       2.571   6.513  19.979  0.00  0.00    +0.000 C 
ATOM     12  O   UNL     1       2.388   5.923  21.039  0.00  0.00    +0.000 OA
ATOM     13  H   UNL     1       3.590   6.623  18.175  0.00  0.00    +0.000 HD
BRANCH  11  14
ATOM     14  C   UNL     1       1.891   7.826  19.741  0.00  0.00    +0.000 A 
ATOM     15  C   UNL     1       1.917   8.454  18.487  0.00  0.00    +0.000 A 
ATOM     16  C   UNL     1       1.253   9.671  18.268  0.00  0.00    +0.000 A 
ATOM     17  C   UNL     1       0.556  10.213  19.346  0.00  0.00    +0.000 A 
ATOM     18  O   UNL     1      -0.151  11.373  19.316  0.00  0.00    +0.000 OA
ATOM     19  C   UNL     1      -0.692  11.543  20.551  0.00  0.00    +0.000 A 
ATOM     20  C   UNL     1      -1.500  12.615  20.931  0.00  0.00    +0.000 A 
ATOM     21  C   UNL     1      -1.963  12.612  22.252  0.00  0.00    +0.000 A 
ATOM     22  C   UNL     1      -1.621  11.583  23.131  0.00  0.00    +0.000 A 
ATOM     23  C   UNL     1      -0.805  10.517  22.719  0.00  0.00    +0.000 A 
ATOM     24  C   UNL     1      -0.328  10.497  21.394  0.00  0.00    +0.000 A 
ATOM     25  C   UNL     1       0.487   9.623  20.607  0.00  0.00    +0.000 A 
ATOM     26  C   UNL     1       1.167   8.402  20.808  0.00  0.00    +0.000 A 
ENDBRANCH  11  14
ENDBRANCH   7  10
BRANCH   6  27
ATOM     27  C   UNL     1       5.844   4.292  17.300  0.00  0.00    +0.000 C 
BRANCH  27  28
ATOM     28  C   UNL     1       6.102   5.547  16.506  0.00  0.00    +0.000 C 
ATOM     29  C   UNL     1       5.931   5.709  15.185  0.00  0.00    +0.000 C 
BRANCH  29  30
ATOM     30  C   UNL     1       5.468   4.662  14.214  0.00  0.00    +0.000 C 
BRANCH  30  31
ATOM     31  C   UNL     1       6.607   3.787  13.695  0.00  0.00    +0.000 C 
BRANCH  31  32
ATOM     32  C   UNL     1       6.694   3.769  12.169  0.00  0.00    +0.000 C 
BRANCH  32  33
ATOM     33  C   UNL     1       5.978   2.575  11.587  0.00  0.00    +0.000 C 
ATOM     34  O   UNL     1       4.790   2.528  11.308  0.00  0.00    +0.000 OA
BRANCH  33  35
ATOM     35  O   UNL     1       6.810   1.526  11.393  0.00  0.00    +0.000 OA
ATOM     36  H   UNL     1       6.698   0.814  12.050  0.00  0.00    +0.000 HD
ENDBRANCH  33  35
ENDBRANCH  32  33
ENDBRANCH  31  32
ENDBRANCH  30  31
ENDBRANCH  29  30
ENDBRANCH  27  28
ENDBRANCH   6  27
TORSDOF 9
ENDMDL
MODEL 7
REMARK VINA RESULT:      -8.3      2.188      2.698
REMARK  Name = 
REMARK  11 active torsions:
REMARK  status: ('A' for Active; 'I' for Inactive)
REMARK    1  A    between atoms: C_1  and  C_2
REMARK    2  A    between atoms: C_2  and  C_3
REMARK    3  A    between atoms: C_6  and  C_7
REMARK    4  A    between atoms: C_7  and  C_8
REMARK    5  A    between atoms: C_9  and  C_10
REMARK    6  A    between atoms: C_10  and  C_11
REMARK    7  A    between atoms: C_11  and  C_12
REMARK    8  A    between atoms: C_12  and  C_13
REMARK    9  A    between atoms: C_13  and  O_15
REMARK   10  A    between atoms: C_16  and  N_17
REMARK   11  A    between atoms: C_18  and  C_20
REMARK                            x       y       z     vdW  Elec       q    Type
REMARK                         _______ _______ _______ _____ _____    ______ ____
ROOT
ATOM      1  C   UNL     1       1.739   2.766  21.469  0.00  0.00    +0.000 C 
ATOM      2  C   UNL     1       1.987   3.429  20.099  0.00  0.00    +0.000 C 
ATOM      3  C   UNL     1       0.626   3.673  19.444  0.00  0.00    +0.000 C 
ATOM      4  C   UNL     1       3.078   2.700  19.237  0.00  0.00    +0.000 C 
ATOM      5  C   UNL     1       3.155   3.095  17.764  0.00  0.00    +0.000 C 
ATOM      6  C   UNL     1       3.130   4.639  17.553  0.00  0.00    +0.000 C 
ATOM      7  C   UNL     1       3.229   5.480  18.860  0.00  0.00    +0.000 C 
ATOM      8  C   UNL     1       3.052   4.609  20.114  0.00  0.00    +0.000 C 
ATOM      9  C   UNL     1       4.138   3.493  20.050  0.00  0.00    +0.000 C 
ENDROOT
BRANCH   7  10
ATOM     10  N   UNL     1       2.211   6.529  18.928  0.00  0.00    +0.000 N 
ATOM     11  C   UNL     1       2.422   7.806  18.439  0.00  0.00    +0.000 C 
ATOM     12  O   UNL     1       3.450   8.147  17.863  0.00  0.00    +0.000 OA
ATOM     13  H   UNL     1       1.304   6.285  19.298  0.00  0.00    +0.000 HD
BRANCH  11  14
ATOM     14  C   UNL     1       1.315   8.799  18.616  0.00  0.00    +0.000 A 
ATOM     15  C   UNL     1       0.580   9.288  17.526  0.00  0.00    +0.000 A 
ATOM     16  C   UNL     1      -0.474  10.197  17.707  0.00  0.00    +0.000 A 
ATOM     17  C   UNL     1      -0.764  10.574  19.016  0.00  0.00    +0.000 A 
ATOM     18  O   UNL     1      -1.753  11.433  19.382  0.00  0.00    +0.000 OA
ATOM     19  C   UNL     1      -1.721  11.525  20.737  0.00  0.00    +0.000 A 
ATOM     20  C   UNL     1      -2.585  12.304  21.507  0.00  0.00    +0.000 A 
ATOM     21  C   UNL     1      -2.393  12.266  22.893  0.00  0.00    +0.000 A 
ATOM     22  C   UNL     1      -1.383  11.486  23.458  0.00  0.00    +0.000 A 
ATOM     23  C   UNL     1      -0.528  10.713  22.656  0.00  0.00    +0.000 A 
ATOM     24  C   UNL     1      -0.701  10.733  21.258  0.00  0.00    +0.000 A 
ATOM     25  C   UNL     1      -0.075  10.108  20.134  0.00  0.00    +0.000 A 
ATOM     26  C   UNL     1       0.985   9.199  19.931  0.00  0.00    +0.000 A 
ENDBRANCH  11  14
ENDBRANCH   7  10
BRANCH   6  27
ATOM     27  C   UNL     1       4.255   5.058  16.583  0.00  0.00    +0.000 C 
BRANCH  27  28
ATOM     28  C   UNL     1       4.967   3.874  15.982  0.00  0.00    +0.000 C 
ATOM     29  C   UNL     1       6.294   3.691  15.905  0.00  0.00    +0.000 C 
BRANCH  29  30
ATOM     30  C   UNL     1       7.352   4.645  16.380  0.00  0.00    +0.000 C 
BRANCH  30  31
ATOM     31  C   UNL     1       7.551   4.606  17.894  0.00  0.00    +0.000 C 
BRANCH  31  32
ATOM     32  C   UNL     1       7.676   5.998  18.512  0.00  0.00    +0.000 C 
BRANCH  32  33
ATOM     33  C   UNL     1       7.344   7.079  17.513  0.00  0.00    +0.000 C 
ATOM     34  O   UNL     1       8.142   7.626  16.769  0.00  0.00    +0.000 OA
BRANCH  33  35
ATOM     35  O   UNL     1       6.027   7.391  17.518  0.00  0.00    +0.000 OA
ATOM     36  H   UNL     1       5.677   7.615  16.636  0.00  0.00    +0.000 HD
ENDBRANCH  33  35
ENDBRANCH  32  33
ENDBRANCH  31  32
ENDBRANCH  30  31
ENDBRANCH  29  30
ENDBRANCH  27  28
ENDBRANCH   6  27
TORSDOF 9
ENDMDL
MODEL 8
REMARK VINA RESULT:      -8.3      2.437      2.921
REMARK  Name = 
REMARK  11 active torsions:
REMARK  status: ('A' for Active; 'I' for Inactive)
REMARK    1  A    between atoms: C_1  and  C_2
REMARK    2  A    between atoms: C_2  and  C_3
REMARK    3  A    between atoms: C_6  and  C_7
REMARK    4  A    between atoms: C_7  and  C_8
REMARK    5  A    between atoms: C_9  and  C_10
REMARK    6  A    between atoms: C_10  and  C_11
REMARK    7  A    between atoms: C_11  and  C_12
REMARK    8  A    between atoms: C_12  and  C_13
REMARK    9  A    between atoms: C_13  and  O_15
REMARK   10  A    between atoms: C_16  and  N_17
REMARK   11  A    between atoms: C_18  and  C_20
REMARK                            x       y       z     vdW  Elec       q    Type
REMARK                         _______ _______ _______ _____ _____    ______ ____
ROOT
ATOM      1  C   UNL     1       1.713   2.387  21.929  0.00  0.00    +0.000 C 
ATOM      2  C   UNL     1       1.901   2.748  20.442  0.00  0.00    +0.000 C 
ATOM      3  C   UNL     1       0.538   3.167  19.886  0.00  0.00    +0.000 C 
ATOM      4  C   UNL     1       2.705   1.671  19.631  0.00  0.00    +0.000 C 
ATOM      5  C   UNL     1       2.661   1.794  18.109  0.00  0.00    +0.000 C 
ATOM      6  C   UNL     1       2.908   3.252  17.616  0.00  0.00    +0.000 C 
ATOM      7  C   UNL     1       3.341   4.254  18.727  0.00  0.00    +0.000 C 
ATOM      8  C   UNL     1       3.166   3.658  20.133  0.00  0.00    +0.000 C 
ATOM      9  C   UNL     1       3.998   2.341  20.175  0.00  0.00    +0.000 C 
ENDROOT
BRANCH   7  10
ATOM     10  N   UNL     1       2.564   5.493  18.694  0.00  0.00    +0.000 N 
ATOM     11  C   UNL     1       3.104   6.723  19.030  0.00  0.00    +0.000 C 
ATOM     12  O   UNL     1       4.283   6.883  19.326  0.00  0.00    +0.000 OA
ATOM     13  H   UNL     1       1.612   5.446  18.359  0.00  0.00    +0.000 HD
BRANCH  11  14
ATOM     14  C   UNL     1       2.185   7.904  19.002  0.00  0.00    +0.000 A 
ATOM     15  C   UNL     1       1.868   8.566  17.806  0.00  0.00    +0.000 A 
ATOM     16  C   UNL     1       0.984   9.656  17.788  0.00  0.00    +0.000 A 
ATOM     17  C   UNL     1       0.426  10.036  19.007  0.00  0.00    +0.000 A 
ATOM     18  O   UNL     1      -0.455  11.057  19.179  0.00  0.00    +0.000 OA
ATOM     19  C   UNL     1      -0.772  11.093  20.500  0.00  0.00    +0.000 A 
ATOM     20  C   UNL     1      -1.657  11.997  21.087  0.00  0.00    +0.000 A 
ATOM     21  C   UNL     1      -1.854  11.873  22.467  0.00  0.00    +0.000 A 
ATOM     22  C   UNL     1      -1.188  10.892  23.203  0.00  0.00    +0.000 A 
ATOM     23  C   UNL     1      -0.302   9.996  22.584  0.00  0.00    +0.000 A 
ATOM     24  C   UNL     1      -0.088  10.099  21.195  0.00  0.00    +0.000 A 
ATOM     25  C   UNL     1       0.695   9.404  20.220  0.00  0.00    +0.000 A 
ATOM     26  C   UNL     1       1.592   8.314  20.218  0.00  0.00    +0.000 A 
ENDBRANCH  11  14
ENDBRANCH   7  10
BRANCH   6  27
ATOM     27  C   UNL     1       3.955   3.256  16.481  0.00  0.00    +0.000 C 
BRANCH  27  28
ATOM     28  C   UNL     1       4.358   4.650  16.076  0.00  0.00    +0.000 C 
ATOM     29  C   UNL     1       5.552   5.229  16.275  0.00  0.00    +0.000 C 
BRANCH  29  30
ATOM     30  C   UNL     1       6.732   4.614  16.970  0.00  0.00    +0.000 C 
BRANCH  30  31
ATOM     31  C   UNL     1       7.610   5.645  17.676  0.00  0.00    +0.000 C 
BRANCH  31  32
ATOM     32  C   UNL     1       7.053   7.065  17.581  0.00  0.00    +0.000 C 
BRANCH  32  33
ATOM     33  C   UNL     1       8.060   8.087  18.049  0.00  0.00    +0.000 C 
ATOM     34  O   UNL     1       8.265   9.171  17.526  0.00  0.00    +0.000 OA
BRANCH  33  35
ATOM     35  O   UNL     1       8.734   7.673  19.147  0.00  0.00    +0.000 OA
ATOM     36  H   UNL     1       9.006   6.737  19.106  0.00  0.00    +0.000 HD
ENDBRANCH  33  35
ENDBRANCH  32  33
ENDBRANCH  31  32
ENDBRANCH  30  31
ENDBRANCH  29  30
ENDBRANCH  27  28
ENDBRANCH   6  27
TORSDOF 9
ENDMDL
MODEL 9
REMARK VINA RESULT:      -8.3      1.166      1.543
REMARK  Name = 
REMARK  11 active torsions:
REMARK  status: ('A' for Active; 'I' for Inactive)
REMARK    1  A    between atoms: C_1  and  C_2
REMARK    2  A    between atoms: C_2  and  C_3
REMARK    3  A    between atoms: C_6  and  C_7
REMARK    4  A    between atoms: C_7  and  C_8
REMARK    5  A    between atoms: C_9  and  C_10
REMARK    6  A    between atoms: C_10  and  C_11
REMARK    7  A    between atoms: C_11  and  C_12
REMARK    8  A    between atoms: C_12  and  C_13
REMARK    9  A    between atoms: C_13  and  O_15
REMARK   10  A    between atoms: C_16  and  N_17
REMARK   11  A    between atoms: C_18  and  C_20
REMARK                            x       y       z     vdW  Elec       q    Type
REMARK                         _______ _______ _______ _____ _____    ______ ____
ROOT
ATOM      1  C   UNL     1       0.789   2.363  18.835  0.00  0.00    +0.000 C 
ATOM      2  C   UNL     1       1.886   3.421  18.605  0.00  0.00    +0.000 C 
ATOM      3  C   UNL     1       1.399   4.371  17.510  0.00  0.00    +0.000 C 
ATOM      4  C   UNL     1       3.323   2.809  18.436  0.00  0.00    +0.000 C 
ATOM      5  C   UNL     1       4.400   3.746  17.896  0.00  0.00    +0.000 C 
ATOM      6  C   UNL     1       4.399   5.135  18.601  0.00  0.00    +0.000 C 
ATOM      7  C   UNL     1       3.454   5.243  19.834  0.00  0.00    +0.000 C 
ATOM      8  C   UNL     1       2.506   4.037  19.933  0.00  0.00    +0.000 C 
ATOM      9  C   UNL     1       3.399   2.761  19.987  0.00  0.00    +0.000 C 
ENDROOT
BRANCH   7  10
ATOM     10  N   UNL     1       2.611   6.438  19.789  0.00  0.00    +0.000 N 
ATOM     11  C   UNL     1       2.679   7.361  18.760  0.00  0.00    +0.000 C 
ATOM     12  O   UNL     1       3.404   7.226  17.780  0.00  0.00    +0.000 OA
ATOM     13  H   UNL     1       1.918   6.557  20.514  0.00  0.00    +0.000 HD
BRANCH  11  14
ATOM     14  C   UNL     1       1.797   8.566  18.861  0.00  0.00    +0.000 A 
ATOM     15  C   UNL     1       1.501   9.361  17.743  0.00  0.00    +0.000 A 
ATOM     16  C   UNL     1       0.650  10.473  17.845  0.00  0.00    +0.000 A 
ATOM     17  C   UNL     1       0.103  10.737  19.099  0.00  0.00    +0.000 A 
ATOM     18  O   UNL     1      -0.747  11.760  19.381  0.00  0.00    +0.000 OA
ATOM     19  C   UNL     1      -1.063  11.663  20.700  0.00  0.00    +0.000 A 
ATOM     20  C   UNL     1      -1.921  12.525  21.382  0.00  0.00    +0.000 A 
ATOM     21  C   UNL     1      -2.122  12.260  22.742  0.00  0.00    +0.000 A 
ATOM     22  C   UNL     1      -1.486  11.187  23.367  0.00  0.00    +0.000 A 
ATOM     23  C   UNL     1      -0.627  10.336  22.653  0.00  0.00    +0.000 A 
ATOM     24  C   UNL     1      -0.409  10.581  21.283  0.00  0.00    +0.000 A 
ATOM     25  C   UNL     1       0.352   9.971  20.236  0.00  0.00    +0.000 A 
ATOM     26  C   UNL     1       1.216   8.861  20.115  0.00  0.00    +0.000 A 
ENDBRANCH  11  14
ENDBRANCH   7  10
BRANCH   6  27
ATOM     27  C   UNL     1       5.836   5.518  19.017  0.00  0.00    +0.000 C 
BRANCH  27  28
ATOM     28  C   UNL     1       6.867   4.564  18.471  0.00  0.00    +0.000 C 
ATOM     29  C   UNL     1       7.349   4.536  17.220  0.00  0.00    +0.000 C 
BRANCH  29  30
ATOM     30  C   UNL     1       6.942   5.437  16.090  0.00  0.00    +0.000 C 
BRANCH  30  31
ATOM     31  C   UNL     1       7.205   4.826  14.716  0.00  0.00    +0.000 C 
BRANCH  31  32
ATOM     32  C   UNL     1       5.930   4.343  14.027  0.00  0.00    +0.000 C 
BRANCH  32  33
ATOM     33  C   UNL     1       6.235   3.650  12.721  0.00  0.00    +0.000 C 
ATOM     34  O   UNL     1       5.733   2.605  12.339  0.00  0.00    +0.000 OA
BRANCH  33  35
ATOM     35  O   UNL     1       7.147   4.327  11.986  0.00  0.00    +0.000 OA
ATOM     36  H   UNL     1       7.290   5.242  12.290  0.00  0.00    +0.000 HD
ENDBRANCH  33  35
ENDBRANCH  32  33
ENDBRANCH  31  32
ENDBRANCH  30  31
ENDBRANCH  29  30
ENDBRANCH  27  28
ENDBRANCH   6  27
TORSDOF 9
ENDMDL
