MODEL 1
REMARK VINA RESULT:      -8.1      0.000      0.000
REMARK  Name = 
REMARK  8 active torsions:
REMARK  status: ('A' for Active; 'I' for Inactive)
REMARK    1  A    between atoms: C_2  and  C_3
REMARK    2  A    between atoms: C_8  and  S_9
REMARK    3  A    between atoms: S_9  and  N_12
REMARK    4  A    between atoms: C_15  and  C_16
REMARK    5  A    between atoms: N_18  and  C_19
REMARK    6  A    between atoms: C_19  and  C_20
REMARK    7  A    between atoms: C_25  and  C_26
REMARK    8  A    between atoms: C_26  and  N_27
REMARK                            x       y       z     vdW  Elec       q    Type
REMARK                         _______ _______ _______ _____ _____    ______ ____
ROOT
ATOM      1  N   UNL     1       1.397  12.371  19.305  0.00  0.00    +0.000 NA
ATOM      2  C   UNL     1       1.811  11.189  18.508  0.00  0.00    +0.000 C 
ATOM      3  C   UNL     1       0.760  10.087  18.534  0.00  0.00    +0.000 C 
ATOM      4  C   UNL     1       0.429   9.588  19.939  0.00  0.00    +0.000 C 
ATOM      5  C   UNL     1       0.083  10.797  20.831  0.00  0.00    +0.000 C 
ATOM      6  C   UNL     1       0.964  12.043  20.700  0.00  0.00    +0.000 C 
ENDROOT
BRANCH   4   7
ATOM      7  C   UNL     1       1.378   8.529  20.578  0.00  0.00    +0.000 C 
ATOM      8  O   UNL     1       1.422   8.352  21.793  0.00  0.00    +0.000 OA
ATOM      9  N   UNL     1       2.036   7.683  19.694  0.00  0.00    +0.000 N 
ATOM     10  H   UNL     1       2.114   7.938  18.721  0.00  0.00    +0.000 HD
BRANCH   9  11
ATOM     11  C   UNL     1       2.797   6.488  20.108  0.00  0.00    +0.000 C 
BRANCH  11  12
ATOM     12  C   UNL     1       2.239   5.202  19.497  0.00  0.00    +0.000 A 
ATOM     13  C   UNL     1       1.295   4.507  20.293  0.00  0.00    +0.000 A 
ATOM     14  C   UNL     1       0.697   3.315  19.871  0.00  0.00    +0.000 A 
ATOM     15  C   UNL     1       1.012   2.790  18.629  0.00  0.00    +0.000 A 
ATOM     16  C   UNL     1       1.967   3.426  17.844  0.00  0.00    +0.000 A 
ATOM     17  C   UNL     1       2.623   4.614  18.258  0.00  0.00    +0.000 A 
BRANCH  17  18
ATOM     18  C   UNL     1       3.810   5.041  17.398  0.00  0.00    +0.000 C 
BRANCH  18  19
ATOM     19  N   UNL     1       5.026   4.225  17.331  0.00  0.00    +0.000 NA
ATOM     20  C   UNL     1       6.115   4.655  18.194  0.00  0.00    +0.000 C 
ATOM     21  C   UNL     1       7.001   5.470  17.279  0.00  0.00    +0.000 C 
ATOM     22  C   UNL     1       6.950   4.686  15.980  0.00  0.00    +0.000 C 
ATOM     23  C   UNL     1       5.603   3.965  16.011  0.00  0.00    +0.000 C 
ENDBRANCH  18  19
ENDBRANCH  17  18
ENDBRANCH  11  12
ENDBRANCH   9  11
ENDBRANCH   4   7
BRANCH   1  24
ATOM     24  S   UNL     1       2.578  13.652  19.301  0.00  0.00    +0.000 S 
ATOM     25  O   UNL     1       3.436  13.437  18.157  0.00  0.00    +0.000 OA
ATOM     26  O   UNL     1       3.137  13.789  20.628  0.00  0.00    +0.000 OA
BRANCH  24  32
ATOM     27  C   UNL     1       2.313  16.338  18.695  0.00  0.00    +0.000 A 
ATOM     28  C   UNL     1       1.561  17.458  18.304  0.00  0.00    +0.000 A 
ATOM     29  C   UNL     1       0.167  17.389  18.225  0.00  0.00    +0.000 A 
ATOM     30  C   UNL     1      -0.488  16.200  18.540  0.00  0.00    +0.000 A 
ATOM     31  C   UNL     1       0.250  15.077  18.923  0.00  0.00    +0.000 A 
ATOM     32  C   UNL     1       1.651  15.144  19.008  0.00  0.00    +0.000 A 
BRANCH  27  34
ATOM     33  N   UNL     1       4.889  16.600  18.758  0.00  0.00    +0.000 NA
ATOM     34  C   UNL     1       3.745  16.476  18.763  0.00  0.00    +0.000 C 
ENDBRANCH  27  34
ENDBRANCH  24  32
ENDBRANCH   1  24
TORSDOF 8
ENDMDL
MODEL 2
REMARK VINA RESULT:      -8.1      0.931      1.194
REMARK  Name = 
REMARK  8 active torsions:
REMARK  status: ('A' for Active; 'I' for Inactive)
REMARK    1  A    between atoms: C_2  and  C_3
REMARK    2  A    between atoms: C_8  and  S_9
REMARK    3  A    between atoms: S_9  and  N_12
REMARK    4  A    between atoms: C_15  and  C_16
REMARK    5  A    between atoms: N_18  and  C_19
REMARK    6  A    between atoms: C_19  and  C_20
REMARK    7  A    between atoms: C_25  and  C_26
REMARK    8  A    between atoms: C_26  and  N_27
REMARK                            x       y       z     vdW  Elec       q    Type
REMARK                         _______ _______ _______ _____ _____    ______ ____
ROOT
ATOM      1  N   UNL     1       1.011  12.646  19.551  0.00  0.00    +0.000 NA
ATOM      2  C   UNL     1       1.191  11.345  18.860  0.00  0.00    +0.000 C 
ATOM      3  C   UNL     1       0.059  10.373  19.168  0.00  0.00    +0.000 C 
ATOM      4  C   UNL     1      -0.104  10.072  20.656  0.00  0.00    +0.000 C 
ATOM      5  C   UNL     1      -0.201  11.404  21.427  0.00  0.00    +0.000 C 
ATOM      6  C   UNL     1       0.760  12.524  21.022  0.00  0.00    +0.000 C 
ENDROOT
BRANCH   4   7
ATOM      7  C   UNL     1       0.828   8.995  21.288  0.00  0.00    +0.000 C 
ATOM      8  O   UNL     1       1.015   8.934  22.501  0.00  0.00    +0.000 OA
ATOM      9  N   UNL     1       1.293   8.007  20.429  0.00  0.00    +0.000 N 
ATOM     10  H   UNL     1       1.264   8.156  19.431  0.00  0.00    +0.000 HD
BRANCH   9  11
ATOM     11  C   UNL     1       1.998   6.790  20.876  0.00  0.00    +0.000 C 
BRANCH  11  12
ATOM     12  C   UNL     1       1.802   5.617  19.915  0.00  0.00    +0.000 A 
ATOM     13  C   UNL     1       1.241   4.447  20.485  0.00  0.00    +0.000 A 
ATOM     14  C   UNL     1       1.003   3.291  19.734  0.00  0.00    +0.000 A 
ATOM     15  C   UNL     1       1.303   3.277  18.382  0.00  0.00    +0.000 A 
ATOM     16  C   UNL     1       1.895   4.394  17.804  0.00  0.00    +0.000 A 
ATOM     17  C   UNL     1       2.188   5.568  18.545  0.00  0.00    +0.000 A 
BRANCH  17  18
ATOM     18  C   UNL     1       3.054   6.598  17.825  0.00  0.00    +0.000 C 
BRANCH  18  19
ATOM     19  N   UNL     1       4.510   6.444  17.756  0.00  0.00    +0.000 NA
ATOM     20  C   UNL     1       5.056   6.261  16.420  0.00  0.00    +0.000 C 
ATOM     21  C   UNL     1       5.216   4.763  16.296  0.00  0.00    +0.000 C 
ATOM     22  C   UNL     1       5.696   4.363  17.680  0.00  0.00    +0.000 C 
ATOM     23  C   UNL     1       5.132   5.433  18.614  0.00  0.00    +0.000 C 
ENDBRANCH  18  19
ENDBRANCH  17  18
ENDBRANCH  11  12
ENDBRANCH   9  11
ENDBRANCH   4   7
BRANCH   1  24
ATOM     24  S   UNL     1       2.289  13.783  19.225  0.00  0.00    +0.000 S 
ATOM     25  O   UNL     1       2.965  13.333  18.028  0.00  0.00    +0.000 OA
ATOM     26  O   UNL     1       3.032  14.027  20.442  0.00  0.00    +0.000 OA
BRANCH  24  32
ATOM     27  C   UNL     1       2.205  16.417  18.384  0.00  0.00    +0.000 A 
ATOM     28  C   UNL     1       1.523  17.556  17.928  0.00  0.00    +0.000 A 
ATOM     29  C   UNL     1       0.126  17.600  17.926  0.00  0.00    +0.000 A 
ATOM     30  C   UNL     1      -0.602  16.503  18.383  0.00  0.00    +0.000 A 
ATOM     31  C   UNL     1       0.064  15.360  18.833  0.00  0.00    +0.000 A 
ATOM     32  C   UNL     1       1.469  15.316  18.840  0.00  0.00    +0.000 A 
BRANCH  27  34
ATOM     33  N   UNL     1       4.795  16.447  18.412  0.00  0.00    +0.000 NA
ATOM     34  C   UNL     1       3.645  16.439  18.366  0.00  0.00    +0.000 C 
ENDBRANCH  27  34
ENDBRANCH  24  32
ENDBRANCH   1  24
TORSDOF 8
ENDMDL
MODEL 3
REMARK VINA RESULT:      -8.0      1.042      2.816
REMARK  Name = 
REMARK  8 active torsions:
REMARK  status: ('A' for Active; 'I' for Inactive)
REMARK    1  A    between atoms: C_2  and  C_3
REMARK    2  A    between atoms: C_8  and  S_9
REMARK    3  A    between atoms: S_9  and  N_12
REMARK    4  A    between atoms: C_15  and  C_16
REMARK    5  A    between atoms: N_18  and  C_19
REMARK    6  A    between atoms: C_19  and  C_20
REMARK    7  A    between atoms: C_25  and  C_26
REMARK    8  A    between atoms: C_26  and  N_27
REMARK                            x       y       z     vdW  Elec       q    Type
REMARK                         _______ _______ _______ _____ _____    ______ ____
ROOT
ATOM      1  N   UNL     1       1.396  12.380  19.296  0.00  0.00    +0.000 NA
ATOM      2  C   UNL     1       1.750  11.231  18.426  0.00  0.00    +0.000 C 
ATOM      3  C   UNL     1       0.690  10.138  18.465  0.00  0.00    +0.000 C 
ATOM      4  C   UNL     1       0.435   9.580  19.864  0.00  0.00    +0.000 C 
ATOM      5  C   UNL     1       0.155  10.753  20.826  0.00  0.00    +0.000 C 
ATOM      6  C   UNL     1       1.040  11.995  20.698  0.00  0.00    +0.000 C 
ENDROOT
BRANCH   4   7
ATOM      7  C   UNL     1       1.407   8.487  20.400  0.00  0.00    +0.000 C 
ATOM      8  O   UNL     1       1.522   8.259  21.602  0.00  0.00    +0.000 OA
ATOM      9  N   UNL     1       2.000   7.672  19.444  0.00  0.00    +0.000 N 
ATOM     10  H   UNL     1       2.022   7.966  18.480  0.00  0.00    +0.000 HD
BRANCH   9  11
ATOM     11  C   UNL     1       2.769   6.453  19.763  0.00  0.00    +0.000 C 
BRANCH  11  12
ATOM     12  C   UNL     1       3.728   6.059  18.638  0.00  0.00    +0.000 A 
ATOM     13  C   UNL     1       3.820   6.979  17.564  0.00  0.00    +0.000 A 
ATOM     14  C   UNL     1       4.653   6.759  16.462  0.00  0.00    +0.000 A 
ATOM     15  C   UNL     1       5.435   5.617  16.409  0.00  0.00    +0.000 A 
ATOM     16  C   UNL     1       5.333   4.675  17.427  0.00  0.00    +0.000 A 
ATOM     17  C   UNL     1       4.469   4.847  18.538  0.00  0.00    +0.000 A 
BRANCH  17  18
ATOM     18  C   UNL     1       4.294   3.619  19.429  0.00  0.00    +0.000 C 
BRANCH  18  19
ATOM     19  N   UNL     1       3.230   2.645  19.171  0.00  0.00    +0.000 NA
ATOM     20  C   UNL     1       2.642   2.700  17.841  0.00  0.00    +0.000 C 
ATOM     21  C   UNL     1       1.393   3.529  18.033  0.00  0.00    +0.000 C 
ATOM     22  C   UNL     1       0.878   3.052  19.379  0.00  0.00    +0.000 C 
ATOM     23  C   UNL     1       2.123   2.573  20.126  0.00  0.00    +0.000 C 
ENDBRANCH  18  19
ENDBRANCH  17  18
ENDBRANCH  11  12
ENDBRANCH   9  11
ENDBRANCH   4   7
BRANCH   1  24
ATOM     24  S   UNL     1       2.588  13.650  19.279  0.00  0.00    +0.000 S 
ATOM     25  O   UNL     1       3.453  13.409  18.145  0.00  0.00    +0.000 OA
ATOM     26  O   UNL     1       3.140  13.804  20.607  0.00  0.00    +0.000 OA
BRANCH  24  32
ATOM     27  C   UNL     1       2.350  16.318  18.588  0.00  0.00    +0.000 A 
ATOM     28  C   UNL     1       1.606  17.436  18.176  0.00  0.00    +0.000 A 
ATOM     29  C   UNL     1       0.211  17.387  18.130  0.00  0.00    +0.000 A 
ATOM     30  C   UNL     1      -0.455  16.219  18.499  0.00  0.00    +0.000 A 
ATOM     31  C   UNL     1       0.274  15.098  18.904  0.00  0.00    +0.000 A 
ATOM     32  C   UNL     1       1.678  15.146  18.956  0.00  0.00    +0.000 A 
BRANCH  27  34
ATOM     33  N   UNL     1       4.934  16.485  18.686  0.00  0.00    +0.000 NA
ATOM     34  C   UNL     1       3.786  16.436  18.620  0.00  0.00    +0.000 C 
ENDBRANCH  27  34
ENDBRANCH  24  32
ENDBRANCH   1  24
TORSDOF 8
ENDMDL
MODEL 4
REMARK VINA RESULT:      -7.9      5.344     10.505
REMARK  Name = 
REMARK  8 active torsions:
REMARK  status: ('A' for Active; 'I' for Inactive)
REMARK    1  A    between atoms: C_2  and  C_3
REMARK    2  A    between atoms: C_8  and  S_9
REMARK    3  A    between atoms: S_9  and  N_12
REMARK    4  A    between atoms: C_15  and  C_16
REMARK    5  A    between atoms: N_18  and  C_19
REMARK    6  A    between atoms: C_19  and  C_20
REMARK    7  A    between atoms: C_25  and  C_26
REMARK    8  A    between atoms: C_26  and  N_27
REMARK                            x       y       z     vdW  Elec       q    Type
REMARK                         _______ _______ _______ _____ _____    ______ ____
ROOT
ATOM      1  N   UNL     1       5.575   4.242  17.939  0.00  0.00    +0.000 NA
ATOM      2  C   UNL     1       6.168   4.818  16.707  0.00  0.00    +0.000 C 
ATOM      3  C   UNL     1       7.628   5.206  16.902  0.00  0.00    +0.000 C 
ATOM      4  C   UNL     1       7.849   6.219  18.023  0.00  0.00    +0.000 C 
ATOM      5  C   UNL     1       7.165   5.704  19.305  0.00  0.00    +0.000 C 
ATOM      6  C   UNL     1       5.773   5.085  19.161  0.00  0.00    +0.000 C 
ENDROOT
BRANCH   4   7
ATOM      7  C   UNL     1       7.620   7.726  17.697  0.00  0.00    +0.000 C 
ATOM      8  O   UNL     1       6.638   8.108  17.064  0.00  0.00    +0.000 OA
ATOM      9  N   UNL     1       8.486   8.624  18.307  0.00  0.00    +0.000 N 
ATOM     10  H   UNL     1       9.363   8.296  18.684  0.00  0.00    +0.000 HD
BRANCH   9  11
ATOM     11  C   UNL     1       8.297  10.088  18.300  0.00  0.00    +0.000 C 
BRANCH  11  12
ATOM     12  C   UNL     1       9.530  10.836  18.809  0.00  0.00    +0.000 A 
ATOM     13  C   UNL     1      10.589  10.976  17.877  0.00  0.00    +0.000 A 
ATOM     14  C   UNL     1      11.781  11.634  18.195  0.00  0.00    +0.000 A 
ATOM     15  C   UNL     1      11.944  12.191  19.453  0.00  0.00    +0.000 A 
ATOM     16  C   UNL     1      10.941  12.032  20.403  0.00  0.00    +0.000 A 
ATOM     17  C   UNL     1       9.736  11.335  20.127  0.00  0.00    +0.000 A 
BRANCH  17  18
ATOM     18  C   UNL     1       8.857  11.041  21.340  0.00  0.00    +0.000 C 
BRANCH  18  19
ATOM     19  N   UNL     1       8.674  12.037  22.399  0.00  0.00    +0.000 NA
ATOM     20  C   UNL     1       8.041  11.548  23.614  0.00  0.00    +0.000 C 
ATOM     21  C   UNL     1       6.589  11.934  23.445  0.00  0.00    +0.000 C 
ATOM     22  C   UNL     1       6.680  13.305  22.799  0.00  0.00    +0.000 C 
ATOM     23  C   UNL     1       8.011  13.294  22.047  0.00  0.00    +0.000 C 
ENDBRANCH  18  19
ENDBRANCH  17  18
ENDBRANCH  11  12
ENDBRANCH   9  11
ENDBRANCH   4   7
BRANCH   1  24
ATOM     24  S   UNL     1       3.904   3.789  17.754  0.00  0.00    +0.000 S 
ATOM     25  O   UNL     1       3.882   2.439  17.235  0.00  0.00    +0.000 OA
ATOM     26  O   UNL     1       3.195   4.852  17.074  0.00  0.00    +0.000 OA
BRANCH  24  32
ATOM     27  C   UNL     1       2.578   4.859  19.934  0.00  0.00    +0.000 A 
ATOM     28  C   UNL     1       1.920   4.745  21.169  0.00  0.00    +0.000 A 
ATOM     29  C   UNL     1       1.925   3.537  21.871  0.00  0.00    +0.000 A 
ATOM     30  C   UNL     1       2.589   2.431  21.345  0.00  0.00    +0.000 A 
ATOM     31  C   UNL     1       3.241   2.529  20.113  0.00  0.00    +0.000 A 
ATOM     32  C   UNL     1       3.243   3.744  19.407  0.00  0.00    +0.000 A 
BRANCH  27  34
ATOM     33  N   UNL     1       2.573   7.147  18.719  0.00  0.00    +0.000 NA
ATOM     34  C   UNL     1       2.542   6.134  19.263  0.00  0.00    +0.000 C 
ENDBRANCH  27  34
ENDBRANCH  24  32
ENDBRANCH   1  24
TORSDOF 8
ENDMDL
MODEL 5
REMARK VINA RESULT:      -7.9      2.087      3.692
REMARK  Name = 
REMARK  8 active torsions:
REMARK  status: ('A' for Active; 'I' for Inactive)
REMARK    1  A    between atoms: C_2  and  C_3
REMARK    2  A    between atoms: C_8  and  S_9
REMARK    3  A    between atoms: S_9  and  N_12
REMARK    4  A    between atoms: C_15  and  C_16
REMARK    5  A    between atoms: N_18  and  C_19
REMARK    6  A    between atoms: C_19  and  C_20
REMARK    7  A    between atoms: C_25  and  C_26
REMARK    8  A    between atoms: C_26  and  N_27
REMARK                            x       y       z     vdW  Elec       q    Type
REMARK                         _______ _______ _______ _____ _____    ______ ____
ROOT
ATOM      1  N   UNL     1       0.472  12.584  19.764  0.00  0.00    +0.000 NA
ATOM      2  C   UNL     1       1.832  12.132  19.380  0.00  0.00    +0.000 C 
ATOM      3  C   UNL     1       1.805  11.200  18.175  0.00  0.00    +0.000 C 
ATOM      4  C   UNL     1       0.958   9.947  18.386  0.00  0.00    +0.000 C 
ATOM      5  C   UNL     1      -0.442  10.368  18.879  0.00  0.00    +0.000 C 
ATOM      6  C   UNL     1      -0.513  11.471  19.938  0.00  0.00    +0.000 C 
ENDROOT
BRANCH   4   7
ATOM      7  C   UNL     1       1.607   8.749  19.143  0.00  0.00    +0.000 C 
ATOM      8  O   UNL     1       1.408   8.559  20.341  0.00  0.00    +0.000 OA
ATOM      9  N   UNL     1       2.275   7.818  18.359  0.00  0.00    +0.000 N 
ATOM     10  H   UNL     1       2.561   8.065  17.423  0.00  0.00    +0.000 HD
BRANCH   9  11
ATOM     11  C   UNL     1       2.759   6.516  18.857  0.00  0.00    +0.000 C 
BRANCH  11  12
ATOM     12  C   UNL     1       3.699   5.826  17.866  0.00  0.00    +0.000 A 
ATOM     13  C   UNL     1       4.756   6.627  17.368  0.00  0.00    +0.000 A 
ATOM     14  C   UNL     1       5.696   6.140  16.454  0.00  0.00    +0.000 A 
ATOM     15  C   UNL     1       5.617   4.826  16.023  0.00  0.00    +0.000 A 
ATOM     16  C   UNL     1       4.565   4.028  16.460  0.00  0.00    +0.000 A 
ATOM     17  C   UNL     1       3.572   4.504  17.355  0.00  0.00    +0.000 A 
BRANCH  17  18
ATOM     18  C   UNL     1       2.363   3.589  17.537  0.00  0.00    +0.000 C 
BRANCH  18  19
ATOM     19  N   UNL     1       2.254   2.705  18.702  0.00  0.00    +0.000 NA
ATOM     20  C   UNL     1       0.929   2.615  19.296  0.00  0.00    +0.000 C 
ATOM     21  C   UNL     1       0.983   3.593  20.448  0.00  0.00    +0.000 C 
ATOM     22  C   UNL     1       2.384   3.388  20.995  0.00  0.00    +0.000 C 
ATOM     23  C   UNL     1       3.203   2.901  19.799  0.00  0.00    +0.000 C 
ENDBRANCH  18  19
ENDBRANCH  17  18
ENDBRANCH  11  12
ENDBRANCH   9  11
ENDBRANCH   4   7
BRANCH   1  24
ATOM     24  S   UNL     1       0.463  13.649  21.142  0.00  0.00    +0.000 S 
ATOM     25  O   UNL     1       1.830  13.764  21.601  0.00  0.00    +0.000 OA
ATOM     26  O   UNL     1      -0.588  13.246  22.050  0.00  0.00    +0.000 OA
BRANCH  24  32
ATOM     27  C   UNL     1       0.012  16.373  21.326  0.00  0.00    +0.000 A 
ATOM     28  C   UNL     1      -0.217  17.637  20.761  0.00  0.00    +0.000 A 
ATOM     29  C   UNL     1      -0.482  17.771  19.395  0.00  0.00    +0.000 A 
ATOM     30  C   UNL     1      -0.523  16.640  18.582  0.00  0.00    +0.000 A 
ATOM     31  C   UNL     1      -0.289  15.376  19.131  0.00  0.00    +0.000 A 
ATOM     32  C   UNL     1      -0.028  15.238  20.505  0.00  0.00    +0.000 A 
BRANCH  27  34
ATOM     33  N   UNL     1       0.433  16.208  23.877  0.00  0.00    +0.000 NA
ATOM     34  C   UNL     1       0.272  16.302  22.742  0.00  0.00    +0.000 C 
ENDBRANCH  27  34
ENDBRANCH  24  32
ENDBRANCH   1  24
TORSDOF 8
ENDMDL
MODEL 6
REMARK VINA RESULT:      -7.7      2.471      3.448
REMARK  Name = 
REMARK  8 active torsions:
REMARK  status: ('A' for Active; 'I' for Inactive)
REMARK    1  A    between atoms: C_2  and  C_3
REMARK    2  A    between atoms: C_8  and  S_9
REMARK    3  A    between atoms: S_9  and  N_12
REMARK    4  A    between atoms: C_15  and  C_16
REMARK    5  A    between atoms: N_18  and  C_19
REMARK    6  A    between atoms: C_19  and  C_20
REMARK    7  A    between atoms: C_25  and  C_26
REMARK    8  A    between atoms: C_26  and  N_27
REMARK                            x       y       z     vdW  Elec       q    Type
REMARK                         _______ _______ _______ _____ _____    ______ ____
ROOT
ATOM      1  N   UNL     1       0.133  11.708  20.118  0.00  0.00    +0.000 NA
ATOM      2  C   UNL     1       1.549  11.700  19.674  0.00  0.00    +0.000 C 
ATOM      3  C   UNL     1       1.692  11.237  18.230  0.00  0.00    +0.000 C 
ATOM      4  C   UNL     1       1.134   9.839  17.976  0.00  0.00    +0.000 C 
ATOM      5  C   UNL     1      -0.311   9.773  18.510  0.00  0.00    +0.000 C 
ATOM      6  C   UNL     1      -0.591  10.422  19.868  0.00  0.00    +0.000 C 
ENDROOT
BRANCH   4   7
ATOM      7  C   UNL     1       2.038   8.619  18.328  0.00  0.00    +0.000 C 
ATOM      8  O   UNL     1       3.113   8.429  17.764  0.00  0.00    +0.000 OA
ATOM      9  N   UNL     1       1.649   7.864  19.427  0.00  0.00    +0.000 N 
ATOM     10  H   UNL     1       0.703   7.933  19.772  0.00  0.00    +0.000 HD
BRANCH   9  11
ATOM     11  C   UNL     1       2.484   6.815  20.045  0.00  0.00    +0.000 C 
BRANCH  11  12
ATOM     12  C   UNL     1       2.083   5.411  19.592  0.00  0.00    +0.000 A 
ATOM     13  C   UNL     1       1.233   4.702  20.477  0.00  0.00    +0.000 A 
ATOM     14  C   UNL     1       0.783   3.406  20.203  0.00  0.00    +0.000 A 
ATOM     15  C   UNL     1       1.155   2.786  19.022  0.00  0.00    +0.000 A 
ATOM     16  C   UNL     1       2.024   3.438  18.154  0.00  0.00    +0.000 A 
ATOM     17  C   UNL     1       2.532   4.736  18.421  0.00  0.00    +0.000 A 
BRANCH  17  18
ATOM     18  C   UNL     1       3.656   5.201  17.498  0.00  0.00    +0.000 C 
BRANCH  18  19
ATOM     19  N   UNL     1       5.027   4.714  17.673  0.00  0.00    +0.000 NA
ATOM     20  C   UNL     1       5.913   5.597  18.417  0.00  0.00    +0.000 C 
ATOM     21  C   UNL     1       6.662   6.348  17.339  0.00  0.00    +0.000 C 
ATOM     22  C   UNL     1       6.901   5.277  16.289  0.00  0.00    +0.000 C 
ATOM     23  C   UNL     1       5.756   4.282  16.480  0.00  0.00    +0.000 C 
ENDBRANCH  18  19
ENDBRANCH  17  18
ENDBRANCH  11  12
ENDBRANCH   9  11
ENDBRANCH   4   7
BRANCH   1  24
ATOM     24  S   UNL     1      -0.070  12.230  21.768  0.00  0.00    +0.000 S 
ATOM     25  O   UNL     1       0.842  13.332  21.982  0.00  0.00    +0.000 OA
ATOM     26  O   UNL     1      -0.047  11.075  22.639  0.00  0.00    +0.000 OA
BRANCH  24  32
ATOM     27  C   UNL     1      -2.150  13.867  20.964  0.00  0.00    +0.000 A 
ATOM     28  C   UNL     1      -3.503  14.239  20.942  0.00  0.00    +0.000 A 
ATOM     29  C   UNL     1      -4.425  13.631  21.798  0.00  0.00    +0.000 A 
ATOM     30  C   UNL     1      -4.001  12.645  22.687  0.00  0.00    +0.000 A 
ATOM     31  C   UNL     1      -2.657  12.260  22.713  0.00  0.00    +0.000 A 
ATOM     32  C   UNL     1      -1.727  12.874  21.857  0.00  0.00    +0.000 A 
BRANCH  27  34
ATOM     33  N   UNL     1      -0.549  15.126  19.363  0.00  0.00    +0.000 NA
ATOM     34  C   UNL     1      -1.249  14.538  20.061  0.00  0.00    +0.000 C 
ENDBRANCH  27  34
ENDBRANCH  24  32
ENDBRANCH   1  24
TORSDOF 8
ENDMDL
MODEL 7
REMARK VINA RESULT:      -7.7      3.121      4.686
REMARK  Name = 
REMARK  8 active torsions:
REMARK  status: ('A' for Active; 'I' for Inactive)
REMARK    1  A    between atoms: C_2  and  C_3
REMARK    2  A    between atoms: C_8  and  S_9
REMARK    3  A    between atoms: S_9  and  N_12
REMARK    4  A    between atoms: C_15  and  C_16
REMARK    5  A    between atoms: N_18  and  C_19
REMARK    6  A    between atoms: C_19  and  C_20
REMARK    7  A    between atoms: C_25  and  C_26
REMARK    8  A    between atoms: C_26  and  N_27
REMARK                            x       y       z     vdW  Elec       q    Type
REMARK                         _______ _______ _______ _____ _____    ______ ____
ROOT
ATOM      1  N   UNL     1      -0.277  11.526  20.434  0.00  0.00    +0.000 NA
ATOM      2  C   UNL     1      -0.291  11.529  18.950  0.00  0.00    +0.000 C 
ATOM      3  C   UNL     1      -0.462  10.127  18.377  0.00  0.00    +0.000 C 
ATOM      4  C   UNL     1       0.626   9.149  18.815  0.00  0.00    +0.000 C 
ATOM      5  C   UNL     1       0.740   9.183  20.352  0.00  0.00    +0.000 C 
ATOM      6  C   UNL     1       0.692  10.554  21.032  0.00  0.00    +0.000 C 
ENDROOT
BRANCH   4   7
ATOM      7  C   UNL     1       1.977   9.168  18.039  0.00  0.00    +0.000 C 
ATOM      8  O   UNL     1       2.449  10.210  17.590  0.00  0.00    +0.000 OA
ATOM      9  N   UNL     1       2.698   7.981  18.034  0.00  0.00    +0.000 N 
ATOM     10  H   UNL     1       2.236   7.113  18.261  0.00  0.00    +0.000 HD
BRANCH   9  11
ATOM     11  C   UNL     1       4.087   7.861  17.548  0.00  0.00    +0.000 C 
BRANCH  11  12
ATOM     12  C   UNL     1       4.467   6.416  17.222  0.00  0.00    +0.000 A 
ATOM     13  C   UNL     1       5.021   6.204  15.935  0.00  0.00    +0.000 A 
ATOM     14  C   UNL     1       5.415   4.938  15.491  0.00  0.00    +0.000 A 
ATOM     15  C   UNL     1       5.285   3.844  16.330  0.00  0.00    +0.000 A 
ATOM     16  C   UNL     1       4.705   4.012  17.583  0.00  0.00    +0.000 A 
ATOM     17  C   UNL     1       4.256   5.275  18.048  0.00  0.00    +0.000 A 
BRANCH  17  18
ATOM     18  C   UNL     1       3.426   5.243  19.330  0.00  0.00    +0.000 C 
BRANCH  18  19
ATOM     19  N   UNL     1       1.983   4.989  19.288  0.00  0.00    +0.000 NA
ATOM     20  C   UNL     1       1.399   4.501  20.529  0.00  0.00    +0.000 C 
ATOM     21  C   UNL     1       1.342   3.003  20.336  0.00  0.00    +0.000 C 
ATOM     22  C   UNL     1       0.946   2.868  18.876  0.00  0.00    +0.000 C 
ATOM     23  C   UNL     1       1.469   4.141  18.211  0.00  0.00    +0.000 C 
ENDBRANCH  18  19
ENDBRANCH  17  18
ENDBRANCH  11  12
ENDBRANCH   9  11
ENDBRANCH   4   7
BRANCH   1  24
ATOM     24  S   UNL     1      -0.079  13.113  21.124  0.00  0.00    +0.000 S 
ATOM     25  O   UNL     1      -0.468  14.070  20.113  0.00  0.00    +0.000 OA
ATOM     26  O   UNL     1       1.217  13.198  21.760  0.00  0.00    +0.000 OA
BRANCH  24  32
ATOM     27  C   UNL     1      -1.310  14.320  23.288  0.00  0.00    +0.000 A 
ATOM     28  C   UNL     1      -2.362  14.449  24.209  0.00  0.00    +0.000 A 
ATOM     29  C   UNL     1      -3.364  13.479  24.288  0.00  0.00    +0.000 A 
ATOM     30  C   UNL     1      -3.323  12.369  23.447  0.00  0.00    +0.000 A 
ATOM     31  C   UNL     1      -2.286  12.233  22.520  0.00  0.00    +0.000 A 
ATOM     32  C   UNL     1      -1.274  13.204  22.442  0.00  0.00    +0.000 A 
BRANCH  27  34
ATOM     33  N   UNL     1       0.476  16.197  23.292  0.00  0.00    +0.000 NA
ATOM     34  C   UNL     1      -0.304  15.351  23.262  0.00  0.00    +0.000 C 
ENDBRANCH  27  34
ENDBRANCH  24  32
ENDBRANCH   1  24
TORSDOF 8
ENDMDL
MODEL 8
REMARK VINA RESULT:      -7.7      2.630      4.325
REMARK  Name = 
REMARK  8 active torsions:
REMARK  status: ('A' for Active; 'I' for Inactive)
REMARK    1  A    between atoms: C_2  and  C_3
REMARK    2  A    between atoms: C_8  and  S_9
REMARK    3  A    between atoms: S_9  and  N_12
REMARK    4  A    between atoms: C_15  and  C_16
REMARK    5  A    between atoms: N_18  and  C_19
REMARK    6  A    between atoms: C_19  and  C_20
REMARK    7  A    between atoms: C_25  and  C_26
REMARK    8  A    between atoms: C_26  and  N_27
REMARK                            x       y       z     vdW  Elec       q    Type
REMARK                         _______ _______ _______ _____ _____    ______ ____
ROOT
ATOM      1  N   UNL     1      -0.117  12.280  20.585  0.00  0.00    +0.000 NA
ATOM      2  C   UNL     1       1.323  12.038  20.324  0.00  0.00    +0.000 C 
ATOM      3  C   UNL     1       1.557  11.381  18.970  0.00  0.00    +0.000 C 
ATOM      4  C   UNL     1       0.840  10.043  18.805  0.00  0.00    +0.000 C 
ATOM      5  C   UNL     1      -0.650  10.227  19.158  0.00  0.00    +0.000 C 
ATOM      6  C   UNL     1      -0.982  11.073  20.390  0.00  0.00    +0.000 C 
ENDROOT
BRANCH   4   7
ATOM      7  C   UNL     1       1.521   8.773  19.400  0.00  0.00    +0.000 C 
ATOM      8  O   UNL     1       1.483   8.525  20.603  0.00  0.00    +0.000 OA
ATOM      9  N   UNL     1       2.017   7.857  18.482  0.00  0.00    +0.000 N 
ATOM     10  H   UNL     1       2.181   8.142  17.528  0.00  0.00    +0.000 HD
BRANCH   9  11
ATOM     11  C   UNL     1       2.493   6.506  18.840  0.00  0.00    +0.000 C 
BRANCH  11  12
ATOM     12  C   UNL     1       3.508   5.961  17.834  0.00  0.00    +0.000 A 
ATOM     13  C   UNL     1       4.446   6.902  17.341  0.00  0.00    +0.000 A 
ATOM     14  C   UNL     1       5.435   6.555  16.415  0.00  0.00    +0.000 A 
ATOM     15  C   UNL     1       5.526   5.248  15.965  0.00  0.00    +0.000 A 
ATOM     16  C   UNL     1       4.593   4.313  16.396  0.00  0.00    +0.000 A 
ATOM     17  C   UNL     1       3.552   4.640  17.304  0.00  0.00    +0.000 A 
BRANCH  17  18
ATOM     18  C   UNL     1       2.476   3.571  17.480  0.00  0.00    +0.000 C 
BRANCH  18  19
ATOM     19  N   UNL     1       2.485   2.675  18.640  0.00  0.00    +0.000 NA
ATOM     20  C   UNL     1       1.183   2.399  19.226  0.00  0.00    +0.000 C 
ATOM     21  C   UNL     1       1.094   3.369  20.382  0.00  0.00    +0.000 C 
ATOM     22  C   UNL     1       2.508   3.357  20.937  0.00  0.00    +0.000 C 
ATOM     23  C   UNL     1       3.392   2.995  19.744  0.00  0.00    +0.000 C 
ENDBRANCH  18  19
ENDBRANCH  17  18
ENDBRANCH  11  12
ENDBRANCH   9  11
ENDBRANCH   4   7
BRANCH   1  24
ATOM     24  S   UNL     1      -0.423  13.027  22.128  0.00  0.00    +0.000 S 
ATOM     25  O   UNL     1       0.588  14.044  22.317  0.00  0.00    +0.000 OA
ATOM     26  O   UNL     1      -0.629  11.998  23.124  0.00  0.00    +0.000 OA
BRANCH  24  32
ATOM     27  C   UNL     1      -2.178  14.806  20.941  0.00  0.00    +0.000 A 
ATOM     28  C   UNL     1      -3.465  15.318  20.712  0.00  0.00    +0.000 A 
ATOM     29  C   UNL     1      -4.553  14.885  21.475  0.00  0.00    +0.000 A 
ATOM     30  C   UNL     1      -4.363  13.936  22.478  0.00  0.00    +0.000 A 
ATOM     31  C   UNL     1      -3.088  13.413  22.712  0.00  0.00    +0.000 A 
ATOM     32  C   UNL     1      -1.992  13.851  21.949  0.00  0.00    +0.000 A 
BRANCH  27  34
ATOM     33  N   UNL     1      -0.273  15.690  19.425  0.00  0.00    +0.000 NA
ATOM     34  C   UNL     1      -1.099  15.299  20.125  0.00  0.00    +0.000 C 
ENDBRANCH  27  34
ENDBRANCH  24  32
ENDBRANCH   1  24
TORSDOF 8
ENDMDL
MODEL 9
REMARK VINA RESULT:      -7.6      1.691      2.742
REMARK  Name = 
REMARK  8 active torsions:
REMARK  status: ('A' for Active; 'I' for Inactive)
REMARK    1  A    between atoms: C_2  and  C_3
REMARK    2  A    between atoms: C_8  and  S_9
REMARK    3  A    between atoms: S_9  and  N_12
REMARK    4  A    between atoms: C_15  and  C_16
REMARK    5  A    between atoms: N_18  and  C_19
REMARK    6  A    between atoms: C_19  and  C_20
REMARK    7  A    between atoms: C_25  and  C_26
REMARK    8  A    between atoms: C_26  and  N_27
REMARK                            x       y       z     vdW  Elec       q    Type
REMARK                         _______ _______ _______ _____ _____    ______ ____
ROOT
ATOM      1  N   UNL     1       0.759  12.714  19.713  0.00  0.00    +0.000 NA
ATOM      2  C   UNL     1       0.453  11.479  18.950  0.00  0.00    +0.000 C 
ATOM      3  C   UNL     1      -0.860  10.845  19.392  0.00  0.00    +0.000 C 
ATOM      4  C   UNL     1      -0.896  10.479  20.874  0.00  0.00    +0.000 C 
ATOM      5  C   UNL     1      -0.491  11.714  21.704  0.00  0.00    +0.000 C 
ATOM      6  C   UNL     1       0.690  12.545  21.198  0.00  0.00    +0.000 C 
ENDROOT
BRANCH   4   7
ATOM      7  C   UNL     1      -0.243   9.132  21.307  0.00  0.00    +0.000 C 
ATOM      8  O   UNL     1      -0.740   8.425  22.180  0.00  0.00    +0.000 OA
ATOM      9  N   UNL     1       0.827   8.694  20.537  0.00  0.00    +0.000 N 
ATOM     10  H   UNL     1       1.314   9.346  19.941  0.00  0.00    +0.000 HD
BRANCH   9  11
ATOM     11  C   UNL     1       1.431   7.352  20.651  0.00  0.00    +0.000 C 
BRANCH  11  12
ATOM     12  C   UNL     1       2.434   7.068  19.532  0.00  0.00    +0.000 A 
ATOM     13  C   UNL     1       2.459   8.016  18.479  0.00  0.00    +0.000 A 
ATOM     14  C   UNL     1       3.321   7.893  17.384  0.00  0.00    +0.000 A 
ATOM     15  C   UNL     1       4.199   6.824  17.319  0.00  0.00    +0.000 A 
ATOM     16  C   UNL     1       4.168   5.854  18.315  0.00  0.00    +0.000 A 
ATOM     17  C   UNL     1       3.278   5.927  19.418  0.00  0.00    +0.000 A 
BRANCH  17  18
ATOM     18  C   UNL     1       3.200   4.669  20.280  0.00  0.00    +0.000 C 
BRANCH  18  19
ATOM     19  N   UNL     1       2.440   3.497  19.838  0.00  0.00    +0.000 NA
ATOM     20  C   UNL     1       3.214   2.276  19.675  0.00  0.00    +0.000 C 
ATOM     21  C   UNL     1       3.518   2.235  18.195  0.00  0.00    +0.000 C 
ATOM     22  C   UNL     1       2.227   2.738  17.574  0.00  0.00    +0.000 C 
ATOM     23  C   UNL     1       1.603   3.635  18.644  0.00  0.00    +0.000 C 
ENDBRANCH  18  19
ENDBRANCH  17  18
ENDBRANCH  11  12
ENDBRANCH   9  11
ENDBRANCH   4   7
BRANCH   1  24
ATOM     24  S   UNL     1       2.257  13.465  19.236  0.00  0.00    +0.000 S 
ATOM     25  O   UNL     1       2.728  12.768  18.060  0.00  0.00    +0.000 OA
ATOM     26  O   UNL     1       3.107  13.611  20.397  0.00  0.00    +0.000 OA
BRANCH  24  32
ATOM     27  C   UNL     1       2.735  15.918  18.048  0.00  0.00    +0.000 A 
ATOM     28  C   UNL     1       2.312  17.150  17.525  0.00  0.00    +0.000 A 
ATOM     29  C   UNL     1       0.995  17.584  17.694  0.00  0.00    +0.000 A 
ATOM     30  C   UNL     1       0.086  16.788  18.390  0.00  0.00    +0.000 A 
ATOM     31  C   UNL     1       0.492  15.555  18.908  0.00  0.00    +0.000 A 
ATOM     32  C   UNL     1       1.818  15.120  18.745  0.00  0.00    +0.000 A 
BRANCH  27  34
ATOM     33  N   UNL     1       5.213  15.229  17.745  0.00  0.00    +0.000 NA
ATOM     34  C   UNL     1       4.108  15.532  17.846  0.00  0.00    +0.000 C 
ENDBRANCH  27  34
ENDBRANCH  24  32
ENDBRANCH   1  24
TORSDOF 8
ENDMDL
