MODEL 1
REMARK VINA RESULT:      -7.5      0.000      0.000
REMARK  Name = 
REMARK  4 active torsions:
REMARK  status: ('A' for Active; 'I' for Inactive)
REMARK    1  A    between atoms: C_2  and  C_4
REMARK    2  A    between atoms: C_4  and  C_5
REMARK    3  A    between atoms: C_5  and  N_6
REMARK    4  A    between atoms: C_5  and  C_19
REMARK                            x       y       z     vdW  Elec       q    Type
REMARK                         _______ _______ _______ _____ _____    ______ ____
ROOT
ATOM      1  N   UNL     1       1.794   8.165  19.010  0.00  0.00    +0.000 N 
ATOM      2  C   UNL     1       2.499   7.007  19.148  0.00  0.00    +0.000 C 
ATOM      3  N   UNL     1       3.550   6.817  18.433  0.00  0.00    +0.000 NA
ATOM      4  S   UNL     1       4.441   5.488  18.589  0.00  0.00    +0.000 S 
ATOM      5  O   UNL     1       4.930   5.093  17.282  0.00  0.00    +0.000 OA
ATOM      6  O   UNL     1       5.371   5.667  19.684  0.00  0.00    +0.000 OA
ATOM      7  C   UNL     1       3.247   4.293  19.100  0.00  0.00    +0.000 C 
ATOM      8  C   UNL     1       2.249   3.939  18.002  0.00  0.00    +0.000 C 
ATOM      9  C   UNL     1       1.237   2.920  18.518  0.00  0.00    +0.000 C 
ATOM     10  C   UNL     1       0.535   3.418  19.778  0.00  0.00    +0.000 C 
ATOM     11  C   UNL     1       1.512   3.902  20.853  0.00  0.00    +0.000 C 
ATOM     12  C   UNL     1       2.576   4.874  20.325  0.00  0.00    +0.000 C 
ATOM     13  O   UNL     1       1.956   6.149  20.043  0.00  0.00    +0.000 OA
ATOM     14  H   UNL     1       1.911   8.647  18.128  0.00  0.00    +0.000 HD
ENDROOT
BRANCH   1  15
ATOM     15  C   UNL     1       0.875   8.737  19.977  0.00  0.00    +0.000 C 
BRANCH  15  16
ATOM     16  C   UNL     1       0.360  10.066  19.445  0.00  0.00    +0.000 A 
ATOM     17  C   UNL     1      -0.983  10.191  19.062  0.00  0.00    +0.000 A 
ATOM     18  C   UNL     1      -1.474  11.404  18.577  0.00  0.00    +0.000 A 
ATOM     19  C   UNL     1      -0.629  12.506  18.467  0.00  0.00    +0.000 A 
ATOM     20  C   UNL     1       0.709  12.397  18.839  0.00  0.00    +0.000 A 
ATOM     21  C   UNL     1       1.203  11.185  19.321  0.00  0.00    +0.000 A 
ENDBRANCH  15  16
BRANCH  15  22
ATOM     22  C   UNL     1       1.547   8.933  21.344  0.00  0.00    +0.000 C 
BRANCH  22  24
ATOM     23  N   UNL     1      -0.628   8.735  22.519  0.00  0.00    +0.000 N 
ATOM     24  C   UNL     1       0.661   9.159  22.551  0.00  0.00    +0.000 C 
ATOM     25  O   UNL     1       1.098   9.681  23.574  0.00  0.00    +0.000 OA
ATOM     26  H   UNL     1      -1.144   8.812  23.388  0.00  0.00    +0.000 HD
ATOM     27  H   UNL     1      -0.950   8.036  21.860  0.00  0.00    +0.000 HD
ENDBRANCH  22  24
ENDBRANCH  15  22
ENDBRANCH   1  15
TORSDOF 4
ENDMDL
MODEL 2
REMARK VINA RESULT:      -7.4      4.481      7.558
REMARK  Name = 
REMARK  4 active torsions:
REMARK  status: ('A' for Active; 'I' for Inactive)
REMARK    1  A    between atoms: C_2  and  C_4
REMARK    2  A    between atoms: C_4  and  C_5
REMARK    3  A    between atoms: C_5  and  N_6
REMARK    4  A    between atoms: C_5  and  C_19
REMARK                            x       y       z     vdW  Elec       q    Type
REMARK                         _______ _______ _______ _____ _____    ______ ____
ROOT
ATOM      1  N   UNL     1       5.066   3.812  16.148  0.00  0.00    +0.000 N 
ATOM      2  C   UNL     1       4.571   3.658  17.408  0.00  0.00    +0.000 C 
ATOM      3  N   UNL     1       4.127   2.510  17.778  0.00  0.00    +0.000 NA
ATOM      4  S   UNL     1       3.573   2.265  19.266  0.00  0.00    +0.000 S 
ATOM      5  O   UNL     1       2.447   1.352  19.206  0.00  0.00    +0.000 OA
ATOM      6  O   UNL     1       4.687   1.978  20.146  0.00  0.00    +0.000 OA
ATOM      7  C   UNL     1       2.952   3.857  19.703  0.00  0.00    +0.000 C 
ATOM      8  C   UNL     1       1.710   4.252  18.910  0.00  0.00    +0.000 C 
ATOM      9  C   UNL     1       1.241   5.644  19.322  0.00  0.00    +0.000 C 
ATOM     10  C   UNL     1       2.355   6.676  19.174  0.00  0.00    +0.000 C 
ATOM     11  C   UNL     1       3.658   6.248  19.854  0.00  0.00    +0.000 C 
ATOM     12  C   UNL     1       4.099   4.822  19.497  0.00  0.00    +0.000 C 
ATOM     13  O   UNL     1       4.579   4.801  18.134  0.00  0.00    +0.000 OA
ATOM     14  H   UNL     1       4.742   3.141  15.464  0.00  0.00    +0.000 HD
ENDROOT
BRANCH   1  15
ATOM     15  C   UNL     1       5.966   4.858  15.697  0.00  0.00    +0.000 C 
BRANCH  15  16
ATOM     16  C   UNL     1       6.370   4.575  14.257  0.00  0.00    +0.000 A 
ATOM     17  C   UNL     1       5.658   3.630  13.505  0.00  0.00    +0.000 A 
ATOM     18  C   UNL     1       6.011   3.362  12.182  0.00  0.00    +0.000 A 
ATOM     19  C   UNL     1       7.080   4.035  11.593  0.00  0.00    +0.000 A 
ATOM     20  C   UNL     1       7.800   4.974  12.328  0.00  0.00    +0.000 A 
ATOM     21  C   UNL     1       7.452   5.240  13.652  0.00  0.00    +0.000 A 
ENDBRANCH  15  16
BRANCH  15  22
ATOM     22  C   UNL     1       7.211   4.954  16.592  0.00  0.00    +0.000 C 
BRANCH  22  24
ATOM     23  N   UNL     1       7.459   6.125  18.764  0.00  0.00    +0.000 N 
ATOM     24  C   UNL     1       7.409   6.213  17.409  0.00  0.00    +0.000 C 
ATOM     25  O   UNL     1       7.568   7.305  16.871  0.00  0.00    +0.000 OA
ATOM     26  H   UNL     1       7.701   6.977  19.256  0.00  0.00    +0.000 HD
ATOM     27  H   UNL     1       7.653   5.253  19.242  0.00  0.00    +0.000 HD
ENDBRANCH  22  24
ENDBRANCH  15  22
ENDBRANCH   1  15
TORSDOF 4
ENDMDL
MODEL 3
REMARK VINA RESULT:      -7.3      2.553      3.986
REMARK  Name = 
REMARK  4 active torsions:
REMARK  status: ('A' for Active; 'I' for Inactive)
REMARK    1  A    between atoms: C_2  and  C_4
REMARK    2  A    between atoms: C_4  and  C_5
REMARK    3  A    between atoms: C_5  and  N_6
REMARK    4  A    between atoms: C_5  and  C_19
REMARK                            x       y       z     vdW  Elec       q    Type
REMARK                         _______ _______ _______ _____ _____    ______ ____
ROOT
ATOM      1  N   UNL     1       1.806   7.223  20.678  0.00  0.00    +0.000 N 
ATOM      2  C   UNL     1       2.160   6.166  19.894  0.00  0.00    +0.000 C 
ATOM      3  N   UNL     1       1.847   4.974  20.259  0.00  0.00    +0.000 NA
ATOM      4  S   UNL     1       2.202   3.698  19.348  0.00  0.00    +0.000 S 
ATOM      5  O   UNL     1       2.560   2.589  20.211  0.00  0.00    +0.000 OA
ATOM      6  O   UNL     1       1.170   3.529  18.346  0.00  0.00    +0.000 OA
ATOM      7  C   UNL     1       3.665   4.226  18.516  0.00  0.00    +0.000 C 
ATOM      8  C   UNL     1       4.866   4.359  19.446  0.00  0.00    +0.000 C 
ATOM      9  C   UNL     1       6.087   4.838  18.667  0.00  0.00    +0.000 C 
ATOM     10  C   UNL     1       5.802   6.142  17.927  0.00  0.00    +0.000 C 
ATOM     11  C   UNL     1       4.527   6.080  17.081  0.00  0.00    +0.000 C 
ATOM     12  C   UNL     1       3.310   5.533  17.841  0.00  0.00    +0.000 C 
ATOM     13  O   UNL     1       2.861   6.523  18.792  0.00  0.00    +0.000 OA
ATOM     14  H   UNL     1       1.640   7.009  21.654  0.00  0.00    +0.000 HD
ENDROOT
BRANCH   1  15
ATOM     15  C   UNL     1       1.689   8.608  20.260  0.00  0.00    +0.000 C 
BRANCH  15  16
ATOM     16  C   UNL     1       0.771   9.341  21.226  0.00  0.00    +0.000 A 
ATOM     17  C   UNL     1       0.700   8.933  22.566  0.00  0.00    +0.000 A 
ATOM     18  C   UNL     1      -0.132   9.598  23.468  0.00  0.00    +0.000 A 
ATOM     19  C   UNL     1      -0.904  10.677  23.043  0.00  0.00    +0.000 A 
ATOM     20  C   UNL     1      -0.849  11.091  21.714  0.00  0.00    +0.000 A 
ATOM     21  C   UNL     1      -0.020  10.426  20.810  0.00  0.00    +0.000 A 
ENDBRANCH  15  16
BRANCH  15  22
ATOM     22  C   UNL     1       1.151   8.718  18.825  0.00  0.00    +0.000 C 
BRANCH  22  24
ATOM     23  N   UNL     1       1.833  10.905  17.874  0.00  0.00    +0.000 N 
ATOM     24  C   UNL     1       1.932   9.551  17.830  0.00  0.00    +0.000 C 
ATOM     25  O   UNL     1       2.685   9.029  17.013  0.00  0.00    +0.000 OA
ATOM     26  H   UNL     1       2.457  11.416  17.262  0.00  0.00    +0.000 HD
ATOM     27  H   UNL     1       1.498  11.395  18.695  0.00  0.00    +0.000 HD
ENDBRANCH  22  24
ENDBRANCH  15  22
ENDBRANCH   1  15
TORSDOF 4
ENDMDL
MODEL 4
REMARK VINA RESULT:      -7.1      1.997      2.728
REMARK  Name = 
REMARK  4 active torsions:
REMARK  status: ('A' for Active; 'I' for Inactive)
REMARK    1  A    between atoms: C_2  and  C_4
REMARK    2  A    between atoms: C_4  and  C_5
REMARK    3  A    between atoms: C_5  and  N_6
REMARK    4  A    between atoms: C_5  and  C_19
REMARK                            x       y       z     vdW  Elec       q    Type
REMARK                         _______ _______ _______ _____ _____    ______ ____
ROOT
ATOM      1  N   UNL     1       1.544   9.010  18.055  0.00  0.00    +0.000 N 
ATOM      2  C   UNL     1       2.368   7.942  18.247  0.00  0.00    +0.000 C 
ATOM      3  N   UNL     1       3.239   7.646  17.349  0.00  0.00    +0.000 NA
ATOM      4  S   UNL     1       4.265   6.424  17.547  0.00  0.00    +0.000 S 
ATOM      5  O   UNL     1       4.476   5.775  16.267  0.00  0.00    +0.000 OA
ATOM      6  O   UNL     1       5.400   6.879  18.322  0.00  0.00    +0.000 OA
ATOM      7  C   UNL     1       3.339   5.319  18.564  0.00  0.00    +0.000 C 
ATOM      8  C   UNL     1       2.154   4.690  17.838  0.00  0.00    +0.000 C 
ATOM      9  C   UNL     1       1.389   3.765  18.780  0.00  0.00    +0.000 C 
ATOM     10  C   UNL     1       0.951   4.494  20.046  0.00  0.00    +0.000 C 
ATOM     11  C   UNL     1       2.099   5.243  20.730  0.00  0.00    +0.000 C 
ATOM     12  C   UNL     1       2.915   6.123  19.773  0.00  0.00    +0.000 C 
ATOM     13  O   UNL     1       2.129   7.276  19.401  0.00  0.00    +0.000 OA
ATOM     14  H   UNL     1       1.409   9.293  17.093  0.00  0.00    +0.000 HD
ENDROOT
BRANCH   1  15
ATOM     15  C   UNL     1       0.821   9.738  19.082  0.00  0.00    +0.000 C 
BRANCH  15  16
ATOM     16  C   UNL     1      -0.538  10.148  18.535  0.00  0.00    +0.000 A 
ATOM     17  C   UNL     1      -0.968   9.657  17.294  0.00  0.00    +0.000 A 
ATOM     18  C   UNL     1      -2.213  10.018  16.780  0.00  0.00    +0.000 A 
ATOM     19  C   UNL     1      -3.045  10.876  17.497  0.00  0.00    +0.000 A 
ATOM     20  C   UNL     1      -2.630  11.377  18.729  0.00  0.00    +0.000 A 
ATOM     21  C   UNL     1      -1.384  11.020  19.244  0.00  0.00    +0.000 A 
ENDBRANCH  15  16
BRANCH  15  22
ATOM     22  C   UNL     1       1.604  10.973  19.552  0.00  0.00    +0.000 C 
BRANCH  22  24
ATOM     23  N   UNL     1       2.640  11.939  17.516  0.00  0.00    +0.000 N 
ATOM     24  C   UNL     1       1.802  12.110  18.571  0.00  0.00    +0.000 C 
ATOM     25  O   UNL     1       1.189  13.167  18.687  0.00  0.00    +0.000 OA
ATOM     26  H   UNL     1       2.652  12.687  16.833  0.00  0.00    +0.000 HD
ATOM     27  H   UNL     1       2.917  11.021  17.189  0.00  0.00    +0.000 HD
ENDBRANCH  22  24
ENDBRANCH  15  22
ENDBRANCH   1  15
TORSDOF 4
ENDMDL
MODEL 5
REMARK VINA RESULT:      -7.0      4.917      7.422
REMARK  Name = 
REMARK  4 active torsions:
REMARK  status: ('A' for Active; 'I' for Inactive)
REMARK    1  A    between atoms: C_2  and  C_4
REMARK    2  A    between atoms: C_4  and  C_5
REMARK    3  A    between atoms: C_5  and  N_6
REMARK    4  A    between atoms: C_5  and  C_19
REMARK                            x       y       z     vdW  Elec       q    Type
REMARK                         _______ _______ _______ _____ _____    ______ ____
ROOT
ATOM      1  N   UNL     1      -2.891  10.614  18.081  0.00  0.00    +0.000 N 
ATOM      2  C   UNL     1      -1.727  10.860  18.745  0.00  0.00    +0.000 C 
ATOM      3  N   UNL     1      -0.751  10.029  18.641  0.00  0.00    +0.000 NA
ATOM      4  S   UNL     1       0.657  10.296  19.368  0.00  0.00    +0.000 S 
ATOM      5  O   UNL     1       1.193   9.032  19.834  0.00  0.00    +0.000 OA
ATOM      6  O   UNL     1       1.466  11.158  18.532  0.00  0.00    +0.000 OA
ATOM      7  C   UNL     1       0.178  11.232  20.784  0.00  0.00    +0.000 C 
ATOM      8  C   UNL     1      -0.611  10.415  21.802  0.00  0.00    +0.000 C 
ATOM      9  C   UNL     1      -1.010  11.289  22.987  0.00  0.00    +0.000 C 
ATOM     10  C   UNL     1      -1.784  12.524  22.535  0.00  0.00    +0.000 C 
ATOM     11  C   UNL     1      -1.074  13.297  21.420  0.00  0.00    +0.000 C 
ATOM     12  C   UNL     1      -0.609  12.412  20.256  0.00  0.00    +0.000 C 
ATOM     13  O   UNL     1      -1.760  11.988  19.492  0.00  0.00    +0.000 OA
ATOM     14  H   UNL     1      -3.062   9.646  17.839  0.00  0.00    +0.000 HD
ENDROOT
BRANCH   1  15
ATOM     15  C   UNL     1      -3.910  11.588  17.734  0.00  0.00    +0.000 C 
BRANCH  15  16
ATOM     16  C   UNL     1      -5.007  11.554  18.787  0.00  0.00    +0.000 A 
ATOM     17  C   UNL     1      -4.960  12.438  19.874  0.00  0.00    +0.000 A 
ATOM     18  C   UNL     1      -5.960  12.424  20.846  0.00  0.00    +0.000 A 
ATOM     19  C   UNL     1      -7.021  11.526  20.745  0.00  0.00    +0.000 A 
ATOM     20  C   UNL     1      -7.080  10.638  19.674  0.00  0.00    +0.000 A 
ATOM     21  C   UNL     1      -6.079  10.647  18.703  0.00  0.00    +0.000 A 
ENDBRANCH  15  16
BRANCH  15  22
ATOM     22  C   UNL     1      -4.496  11.316  16.341  0.00  0.00    +0.000 C 
BRANCH  22  24
ATOM     23  N   UNL     1      -4.149   9.986  14.276  0.00  0.00    +0.000 N 
ATOM     24  C   UNL     1      -3.596  10.695  15.294  0.00  0.00    +0.000 C 
ATOM     25  O   UNL     1      -2.378  10.854  15.324  0.00  0.00    +0.000 OA
ATOM     26  H   UNL     1      -3.514   9.686  13.546  0.00  0.00    +0.000 HD
ATOM     27  H   UNL     1      -5.124  10.083  14.018  0.00  0.00    +0.000 HD
ENDBRANCH  22  24
ENDBRANCH  15  22
ENDBRANCH   1  15
TORSDOF 4
ENDMDL
MODEL 6
REMARK VINA RESULT:      -6.9      1.301      1.585
REMARK  Name = 
REMARK  4 active torsions:
REMARK  status: ('A' for Active; 'I' for Inactive)
REMARK    1  A    between atoms: C_2  and  C_4
REMARK    2  A    between atoms: C_4  and  C_5
REMARK    3  A    between atoms: C_5  and  N_6
REMARK    4  A    between atoms: C_5  and  C_19
REMARK                            x       y       z     vdW  Elec       q    Type
REMARK                         _______ _______ _______ _____ _____    ______ ____
ROOT
ATOM      1  N   UNL     1       1.368   8.662  18.117  0.00  0.00    +0.000 N 
ATOM      2  C   UNL     1       2.281   7.664  18.281  0.00  0.00    +0.000 C 
ATOM      3  N   UNL     1       3.230   7.528  17.423  0.00  0.00    +0.000 NA
ATOM      4  S   UNL     1       4.358   6.396  17.595  0.00  0.00    +0.000 S 
ATOM      5  O   UNL     1       4.708   5.878  16.286  0.00  0.00    +0.000 OA
ATOM      6  O   UNL     1       5.395   6.890  18.477  0.00  0.00    +0.000 OA
ATOM      7  C   UNL     1       3.489   5.127  18.460  0.00  0.00    +0.000 C 
ATOM      8  C   UNL     1       2.417   4.451  17.610  0.00  0.00    +0.000 C 
ATOM      9  C   UNL     1       1.694   3.383  18.425  0.00  0.00    +0.000 C 
ATOM     10  C   UNL     1       1.110   3.960  19.711  0.00  0.00    +0.000 C 
ATOM     11  C   UNL     1       2.136   4.755  20.525  0.00  0.00    +0.000 C 
ATOM     12  C   UNL     1       2.916   5.784  19.696  0.00  0.00    +0.000 C 
ATOM     13  O   UNL     1       2.042   6.886  19.362  0.00  0.00    +0.000 OA
ATOM     14  H   UNL     1       1.263   9.010  17.173  0.00  0.00    +0.000 HD
ENDROOT
BRANCH   1  15
ATOM     15  C   UNL     1       0.517   9.230  19.146  0.00  0.00    +0.000 C 
BRANCH  15  16
ATOM     16  C   UNL     1      -0.578  10.053  18.484  0.00  0.00    +0.000 A 
ATOM     17  C   UNL     1      -1.176   9.597  17.301  0.00  0.00    +0.000 A 
ATOM     18  C   UNL     1      -2.185  10.336  16.683  0.00  0.00    +0.000 A 
ATOM     19  C   UNL     1      -2.609  11.541  17.239  0.00  0.00    +0.000 A 
ATOM     20  C   UNL     1      -2.023  12.011  18.412  0.00  0.00    +0.000 A 
ATOM     21  C   UNL     1      -1.011  11.275  19.029  0.00  0.00    +0.000 A 
ENDBRANCH  15  16
BRANCH  15  22
ATOM     22  C   UNL     1       1.321  10.099  20.125  0.00  0.00    +0.000 C 
BRANCH  22  24
ATOM     23  N   UNL     1       1.759   8.623  22.069  0.00  0.00    +0.000 N 
ATOM     24  C   UNL     1       1.230   9.784  21.603  0.00  0.00    +0.000 C 
ATOM     25  O   UNL     1       0.726  10.576  22.394  0.00  0.00    +0.000 OA
ATOM     26  H   UNL     1       1.768   8.512  23.076  0.00  0.00    +0.000 HD
ATOM     27  H   UNL     1       2.448   8.095  21.547  0.00  0.00    +0.000 HD
ENDBRANCH  22  24
ENDBRANCH  15  22
ENDBRANCH   1  15
TORSDOF 4
ENDMDL
MODEL 7
REMARK VINA RESULT:      -6.9      6.399      9.849
REMARK  Name = 
REMARK  4 active torsions:
REMARK  status: ('A' for Active; 'I' for Inactive)
REMARK    1  A    between atoms: C_2  and  C_4
REMARK    2  A    between atoms: C_4  and  C_5
REMARK    3  A    between atoms: C_5  and  N_6
REMARK    4  A    between atoms: C_5  and  C_19
REMARK                            x       y       z     vdW  Elec       q    Type
REMARK                         _______ _______ _______ _____ _____    ______ ____
ROOT
ATOM      1  N   UNL     1      -3.294  12.174  23.033  0.00  0.00    +0.000 N 
ATOM      2  C   UNL     1      -4.531  12.700  22.816  0.00  0.00    +0.000 C 
ATOM      3  N   UNL     1      -5.451  12.541  23.700  0.00  0.00    +0.000 NA
ATOM      4  S   UNL     1      -6.914  13.180  23.512  0.00  0.00    +0.000 S 
ATOM      5  O   UNL     1      -7.901  12.260  24.044  0.00  0.00    +0.000 OA
ATOM      6  O   UNL     1      -6.892  14.556  23.964  0.00  0.00    +0.000 OA
ATOM      7  C   UNL     1      -7.091  13.203  21.757  0.00  0.00    +0.000 C 
ATOM      8  C   UNL     1      -7.219  11.809  21.151  0.00  0.00    +0.000 C 
ATOM      9  C   UNL     1      -7.348  11.902  19.634  0.00  0.00    +0.000 C 
ATOM     10  C   UNL     1      -6.185  12.677  19.021  0.00  0.00    +0.000 C 
ATOM     11  C   UNL     1      -5.951  14.032  19.696  0.00  0.00    +0.000 C 
ATOM     12  C   UNL     1      -5.889  13.954  21.227  0.00  0.00    +0.000 C 
ATOM     13  O   UNL     1      -4.649  13.327  21.622  0.00  0.00    +0.000 OA
ATOM     14  H   UNL     1      -3.254  11.399  23.684  0.00  0.00    +0.000 HD
ENDROOT
BRANCH   1  15
ATOM     15  C   UNL     1      -2.056  12.585  22.396  0.00  0.00    +0.000 C 
BRANCH  15  16
ATOM     16  C   UNL     1      -1.202  11.354  22.131  0.00  0.00    +0.000 A 
ATOM     17  C   UNL     1      -0.923  10.461  23.174  0.00  0.00    +0.000 A 
ATOM     18  C   UNL     1      -0.146   9.324  22.948  0.00  0.00    +0.000 A 
ATOM     19  C   UNL     1       0.362   9.066  21.676  0.00  0.00    +0.000 A 
ATOM     20  C   UNL     1       0.097   9.946  20.630  0.00  0.00    +0.000 A 
ATOM     21  C   UNL     1      -0.676  11.085  20.855  0.00  0.00    +0.000 A 
ENDBRANCH  15  16
BRANCH  15  22
ATOM     22  C   UNL     1      -1.286  13.594  23.262  0.00  0.00    +0.000 C 
BRANCH  22  24
ATOM     23  N   UNL     1      -0.833  15.760  22.144  0.00  0.00    +0.000 N 
ATOM     24  C   UNL     1      -0.352  14.564  22.571  0.00  0.00    +0.000 C 
ATOM     25  O   UNL     1       0.840  14.309  22.427  0.00  0.00    +0.000 OA
ATOM     26  H   UNL     1      -0.146  16.415  21.788  0.00  0.00    +0.000 HD
ATOM     27  H   UNL     1      -1.694  16.156  22.504  0.00  0.00    +0.000 HD
ENDBRANCH  22  24
ENDBRANCH  15  22
ENDBRANCH   1  15
TORSDOF 4
ENDMDL
MODEL 8
REMARK VINA RESULT:      -6.9      2.599      3.923
REMARK  Name = 
REMARK  4 active torsions:
REMARK  status: ('A' for Active; 'I' for Inactive)
REMARK    1  A    between atoms: C_2  and  C_4
REMARK    2  A    between atoms: C_4  and  C_5
REMARK    3  A    between atoms: C_5  and  N_6
REMARK    4  A    between atoms: C_5  and  C_19
REMARK                            x       y       z     vdW  Elec       q    Type
REMARK                         _______ _______ _______ _____ _____    ______ ____
ROOT
ATOM      1  N   UNL     1       2.010   7.280  20.706  0.00  0.00    +0.000 N 
ATOM      2  C   UNL     1       2.382   6.188  19.982  0.00  0.00    +0.000 C 
ATOM      3  N   UNL     1       2.220   5.013  20.481  0.00  0.00    +0.000 NA
ATOM      4  S   UNL     1       2.601   3.691  19.650  0.00  0.00    +0.000 S 
ATOM      5  O   UNL     1       3.146   2.704  20.562  0.00  0.00    +0.000 OA
ATOM      6  O   UNL     1       1.495   3.340  18.784  0.00  0.00    +0.000 OA
ATOM      7  C   UNL     1       3.918   4.259  18.623  0.00  0.00    +0.000 C 
ATOM      8  C   UNL     1       5.188   4.581  19.403  0.00  0.00    +0.000 C 
ATOM      9  C   UNL     1       6.275   5.086  18.458  0.00  0.00    +0.000 C 
ATOM     10  C   UNL     1       5.796   6.284  17.643  0.00  0.00    +0.000 C 
ATOM     11  C   UNL     1       4.454   6.033  16.948  0.00  0.00    +0.000 C 
ATOM     12  C   UNL     1       3.376   5.461  17.879  0.00  0.00    +0.000 C 
ATOM     13  O   UNL     1       2.932   6.496  18.785  0.00  0.00    +0.000 OA
ATOM     14  H   UNL     1       1.963   7.148  21.708  0.00  0.00    +0.000 HD
ENDROOT
BRANCH   1  15
ATOM     15  C   UNL     1       1.721   8.604  20.185  0.00  0.00    +0.000 C 
BRANCH  15  16
ATOM     16  C   UNL     1       0.827   9.341  21.171  0.00  0.00    +0.000 A 
ATOM     17  C   UNL     1       0.631  10.722  21.038  0.00  0.00    +0.000 A 
ATOM     18  C   UNL     1      -0.189  11.413  21.930  0.00  0.00    +0.000 A 
ATOM     19  C   UNL     1      -0.824  10.733  22.967  0.00  0.00    +0.000 A 
ATOM     20  C   UNL     1      -0.636   9.361  23.116  0.00  0.00    +0.000 A 
ATOM     21  C   UNL     1       0.187   8.669  22.227  0.00  0.00    +0.000 A 
ENDBRANCH  15  16
BRANCH  15  22
ATOM     22  C   UNL     1       1.049   8.531  18.805  0.00  0.00    +0.000 C 
BRANCH  22  24
ATOM     23  N   UNL     1      -0.111  10.407  17.673  0.00  0.00    +0.000 N 
ATOM     24  C   UNL     1       1.059   9.771  17.937  0.00  0.00    +0.000 C 
ATOM     25  O   UNL     1       2.109  10.238  17.504  0.00  0.00    +0.000 OA
ATOM     26  H   UNL     1      -0.036  11.290  17.181  0.00  0.00    +0.000 HD
ATOM     27  H   UNL     1      -0.940  10.272  18.240  0.00  0.00    +0.000 HD
ENDBRANCH  22  24
ENDBRANCH  15  22
ENDBRANCH   1  15
TORSDOF 4
ENDMDL
MODEL 9
REMARK VINA RESULT:      -6.9      0.993      1.396
REMARK  Name = 
REMARK  4 active torsions:
REMARK  status: ('A' for Active; 'I' for Inactive)
REMARK    1  A    between atoms: C_2  and  C_4
REMARK    2  A    between atoms: C_4  and  C_5
REMARK    3  A    between atoms: C_5  and  N_6
REMARK    4  A    between atoms: C_5  and  C_19
REMARK                            x       y       z     vdW  Elec       q    Type
REMARK                         _______ _______ _______ _____ _____    ______ ____
ROOT
ATOM      1  N   UNL     1       2.086   8.058  18.532  0.00  0.00    +0.000 N 
ATOM      2  C   UNL     1       2.736   6.895  18.818  0.00  0.00    +0.000 C 
ATOM      3  N   UNL     1       3.807   6.594  18.174  0.00  0.00    +0.000 NA
ATOM      4  S   UNL     1       4.635   5.257  18.505  0.00  0.00    +0.000 S 
ATOM      5  O   UNL     1       5.163   4.712  17.268  0.00  0.00    +0.000 OA
ATOM      6  O   UNL     1       5.525   5.513  19.618  0.00  0.00    +0.000 OA
ATOM      7  C   UNL     1       3.373   4.165  19.077  0.00  0.00    +0.000 C 
ATOM      8  C   UNL     1       2.408   3.737  17.975  0.00  0.00    +0.000 C 
ATOM      9  C   UNL     1       1.334   2.814  18.543  0.00  0.00    +0.000 C 
ATOM     10  C   UNL     1       0.600   3.464  19.712  0.00  0.00    +0.000 C 
ATOM     11  C   UNL     1       1.550   4.019  20.778  0.00  0.00    +0.000 C 
ATOM     12  C   UNL     1       2.674   4.893  20.205  0.00  0.00    +0.000 C 
ATOM     13  O   UNL     1       2.120   6.153  19.768  0.00  0.00    +0.000 OA
ATOM     14  H   UNL     1       2.260   8.443  17.612  0.00  0.00    +0.000 HD
ENDROOT
BRANCH   1  15
ATOM     15  C   UNL     1       1.151   8.759  19.393  0.00  0.00    +0.000 C 
BRANCH  15  16
ATOM     16  C   UNL     1       1.184  10.242  19.055  0.00  0.00    +0.000 A 
ATOM     17  C   UNL     1       2.244  10.763  18.299  0.00  0.00    +0.000 A 
ATOM     18  C   UNL     1       2.287  12.119  17.976  0.00  0.00    +0.000 A 
ATOM     19  C   UNL     1       1.274  12.974  18.405  0.00  0.00    +0.000 A 
ATOM     20  C   UNL     1       0.216  12.473  19.162  0.00  0.00    +0.000 A 
ATOM     21  C   UNL     1       0.173  11.118  19.489  0.00  0.00    +0.000 A 
ENDBRANCH  15  16
BRANCH  15  22
ATOM     22  C   UNL     1       1.481   8.541  20.877  0.00  0.00    +0.000 C 
BRANCH  22  24
ATOM     23  N   UNL     1       0.502   9.438  22.971  0.00  0.00    +0.000 N 
ATOM     24  C   UNL     1       0.353   8.640  21.883  0.00  0.00    +0.000 C 
ATOM     25  O   UNL     1      -0.708   8.047  21.712  0.00  0.00    +0.000 OA
ATOM     26  H   UNL     1      -0.320   9.555  23.553  0.00  0.00    +0.000 HD
ATOM     27  H   UNL     1       1.193  10.178  23.008  0.00  0.00    +0.000 HD
ENDBRANCH  22  24
ENDBRANCH  15  22
ENDBRANCH   1  15
TORSDOF 4
ENDMDL
