MODEL 1
REMARK VINA RESULT:      -6.5      0.000      0.000
REMARK  Name = 
REMARK  2 active torsions:
REMARK  status: ('A' for Active; 'I' for Inactive)
REMARK    1  A    between atoms: C_1  and  C_2
REMARK    2  A    between atoms: C_5  and  O_6
REMARK                            x       y       z     vdW  Elec       q    Type
REMARK                         _______ _______ _______ _____ _____    ______ ____
ROOT
ATOM      1  C   UNL     1       6.388   3.972  14.275  0.00  0.00    +0.000 C 
ATOM      2  C   UNL     1       6.326   4.322  15.735  0.00  0.00    +0.000 C 
ATOM      3  N   UNL     1       7.408   4.579  16.381  0.00  0.00    +0.000 NA
ATOM      4  C   UNL     1       7.474   4.905  17.694  0.00  0.00    +0.000 C 
ATOM      5  C   UNL     1       6.566   5.061  18.667  0.00  0.00    +0.000 C 
ATOM      6  C   UNL     1       5.104   4.903  18.567  0.00  0.00    +0.000 A 
ATOM      7  C   UNL     1       4.316   5.115  19.722  0.00  0.00    +0.000 A 
ATOM      8  C   UNL     1       2.922   4.988  19.714  0.00  0.00    +0.000 A 
ATOM      9  C   UNL     1       2.269   4.642  18.541  0.00  0.00    +0.000 A 
ATOM     10  C   UNL     1       3.014   4.426  17.389  0.00  0.00    +0.000 A 
ATOM     11  C   UNL     1       4.415   4.558  17.409  0.00  0.00    +0.000 A 
ATOM     12  O   UNL     1       5.005   4.303  16.151  0.00  0.00    +0.000 OA
ENDROOT
BRANCH   5  13
ATOM     13  O   UNL     1       7.003   5.412  19.945  0.00  0.00    +0.000 OA
ATOM     14  H   UNL     1       6.236   5.652  20.491  0.00  0.00    +0.000 HD
ENDBRANCH   5  13
TORSDOF 1
ENDMDL
MODEL 2
REMARK VINA RESULT:      -6.4      1.726      2.905
REMARK  Name = 
REMARK  2 active torsions:
REMARK  status: ('A' for Active; 'I' for Inactive)
REMARK    1  A    between atoms: C_1  and  C_2
REMARK    2  A    between atoms: C_5  and  O_6
REMARK                            x       y       z     vdW  Elec       q    Type
REMARK                         _______ _______ _______ _____ _____    ______ ____
ROOT
ATOM      1  C   UNL     1       7.560   8.174  17.527  0.00  0.00    +0.000 C 
ATOM      2  C   UNL     1       6.922   6.865  17.156  0.00  0.00    +0.000 C 
ATOM      3  N   UNL     1       7.588   5.992  16.487  0.00  0.00    +0.000 NA
ATOM      4  C   UNL     1       7.117   4.782  16.098  0.00  0.00    +0.000 C 
ATOM      5  C   UNL     1       5.952   4.139  16.247  0.00  0.00    +0.000 C 
ATOM      6  C   UNL     1       4.742   4.617  16.941  0.00  0.00    +0.000 A 
ATOM      7  C   UNL     1       3.606   3.777  16.986  0.00  0.00    +0.000 A 
ATOM      8  C   UNL     1       2.418   4.152  17.625  0.00  0.00    +0.000 A 
ATOM      9  C   UNL     1       2.330   5.390  18.242  0.00  0.00    +0.000 A 
ATOM     10  C   UNL     1       3.429   6.240  18.216  0.00  0.00    +0.000 A 
ATOM     11  C   UNL     1       4.617   5.851  17.571  0.00  0.00    +0.000 A 
ATOM     12  O   UNL     1       5.626   6.837  17.645  0.00  0.00    +0.000 OA
ENDROOT
BRANCH   5  13
ATOM     13  O   UNL     1       5.812   2.863  15.699  0.00  0.00    +0.000 OA
ATOM     14  H   UNL     1       5.530   2.941  14.773  0.00  0.00    +0.000 HD
ENDBRANCH   5  13
TORSDOF 1
ENDMDL
MODEL 3
REMARK VINA RESULT:      -6.3      2.616      3.685
REMARK  Name = 
REMARK  2 active torsions:
REMARK  status: ('A' for Active; 'I' for Inactive)
REMARK    1  A    between atoms: C_1  and  C_2
REMARK    2  A    between atoms: C_5  and  O_6
REMARK                            x       y       z     vdW  Elec       q    Type
REMARK                         _______ _______ _______ _____ _____    ______ ____
ROOT
ATOM      1  C   UNL     1       2.216   8.169  17.834  0.00  0.00    +0.000 C 
ATOM      2  C   UNL     1       2.950   6.916  18.218  0.00  0.00    +0.000 C 
ATOM      3  N   UNL     1       4.130   6.695  17.756  0.00  0.00    +0.000 NA
ATOM      4  C   UNL     1       4.884   5.603  18.032  0.00  0.00    +0.000 C 
ATOM      5  C   UNL     1       4.707   4.509  18.783  0.00  0.00    +0.000 C 
ATOM      6  C   UNL     1       3.527   4.154  19.593  0.00  0.00    +0.000 A 
ATOM      7  C   UNL     1       3.540   2.941  20.320  0.00  0.00    +0.000 A 
ATOM      8  C   UNL     1       2.464   2.530  21.114  0.00  0.00    +0.000 A 
ATOM      9  C   UNL     1       1.332   3.325  21.206  0.00  0.00    +0.000 A 
ATOM     10  C   UNL     1       1.288   4.523  20.503  0.00  0.00    +0.000 A 
ATOM     11  C   UNL     1       2.376   4.927  19.709  0.00  0.00    +0.000 A 
ATOM     12  O   UNL     1       2.156   6.167  19.071  0.00  0.00    +0.000 OA
ENDROOT
BRANCH   5  13
ATOM     13  O   UNL     1       5.728   3.559  18.840  0.00  0.00    +0.000 OA
ATOM     14  H   UNL     1       5.990   3.316  17.937  0.00  0.00    +0.000 HD
ENDBRANCH   5  13
TORSDOF 1
ENDMDL
MODEL 4
REMARK VINA RESULT:      -6.1      2.105      2.747
REMARK  Name = 
REMARK  2 active torsions:
REMARK  status: ('A' for Active; 'I' for Inactive)
REMARK    1  A    between atoms: C_1  and  C_2
REMARK    2  A    between atoms: C_5  and  O_6
REMARK                            x       y       z     vdW  Elec       q    Type
REMARK                         _______ _______ _______ _____ _____    ______ ____
ROOT
ATOM      1  C   UNL     1       5.697   4.008  15.564  0.00  0.00    +0.000 C 
ATOM      2  C   UNL     1       4.837   4.515  16.686  0.00  0.00    +0.000 C 
ATOM      3  N   UNL     1       5.037   5.689  17.170  0.00  0.00    +0.000 NA
ATOM      4  C   UNL     1       4.327   6.249  18.179  0.00  0.00    +0.000 C 
ATOM      5  C   UNL     1       3.298   5.846  18.935  0.00  0.00    +0.000 C 
ATOM      6  C   UNL     1       2.587   4.555  18.875  0.00  0.00    +0.000 A 
ATOM      7  C   UNL     1       1.517   4.325  19.770  0.00  0.00    +0.000 A 
ATOM      8  C   UNL     1       0.789   3.129  19.779  0.00  0.00    +0.000 A 
ATOM      9  C   UNL     1       1.112   2.120  18.885  0.00  0.00    +0.000 A 
ATOM     10  C   UNL     1       2.159   2.315  17.992  0.00  0.00    +0.000 A 
ATOM     11  C   UNL     1       2.883   3.521  17.993  0.00  0.00    +0.000 A 
ATOM     12  O   UNL     1       3.907   3.543  17.020  0.00  0.00    +0.000 OA
ENDROOT
BRANCH   5  13
ATOM     13  O   UNL     1       2.802   6.710  19.913  0.00  0.00    +0.000 OA
ATOM     14  H   UNL     1       3.544   7.144  20.364  0.00  0.00    +0.000 HD
ENDBRANCH   5  13
TORSDOF 1
ENDMDL
MODEL 5
REMARK VINA RESULT:      -6.1      2.853      4.263
REMARK  Name = 
REMARK  2 active torsions:
REMARK  status: ('A' for Active; 'I' for Inactive)
REMARK    1  A    between atoms: C_1  and  C_2
REMARK    2  A    between atoms: C_5  and  O_6
REMARK                            x       y       z     vdW  Elec       q    Type
REMARK                         _______ _______ _______ _____ _____    ______ ____
ROOT
ATOM      1  C   UNL     1       1.208   2.979  21.172  0.00  0.00    +0.000 C 
ATOM      2  C   UNL     1       2.410   3.390  20.370  0.00  0.00    +0.000 C 
ATOM      3  N   UNL     1       3.434   2.614  20.303  0.00  0.00    +0.000 NA
ATOM      4  C   UNL     1       4.569   2.879  19.613  0.00  0.00    +0.000 C 
ATOM      5  C   UNL     1       4.985   3.900  18.852  0.00  0.00    +0.000 C 
ATOM      6  C   UNL     1       4.252   5.136  18.525  0.00  0.00    +0.000 A 
ATOM      7  C   UNL     1       4.875   6.098  17.696  0.00  0.00    +0.000 A 
ATOM      8  C   UNL     1       4.250   7.298  17.336  0.00  0.00    +0.000 A 
ATOM      9  C   UNL     1       2.972   7.574  17.798  0.00  0.00    +0.000 A 
ATOM     10  C   UNL     1       2.333   6.650  18.615  0.00  0.00    +0.000 A 
ATOM     11  C   UNL     1       2.971   5.447  18.970  0.00  0.00    +0.000 A 
ATOM     12  O   UNL     1       2.174   4.631  19.802  0.00  0.00    +0.000 OA
ENDROOT
BRANCH   5  13
ATOM     13  O   UNL     1       6.255   3.837  18.277  0.00  0.00    +0.000 OA
ATOM     14  H   UNL     1       6.715   3.045  18.600  0.00  0.00    +0.000 HD
ENDBRANCH   5  13
TORSDOF 1
ENDMDL
MODEL 6
REMARK VINA RESULT:      -6.0      2.389      3.586
REMARK  Name = 
REMARK  2 active torsions:
REMARK  status: ('A' for Active; 'I' for Inactive)
REMARK    1  A    between atoms: C_1  and  C_2
REMARK    2  A    between atoms: C_5  and  O_6
REMARK                            x       y       z     vdW  Elec       q    Type
REMARK                         _______ _______ _______ _____ _____    ______ ____
ROOT
ATOM      1  C   UNL     1       2.528   8.390  17.973  0.00  0.00    +0.000 C 
ATOM      2  C   UNL     1       3.209   7.074  17.722  0.00  0.00    +0.000 C 
ATOM      3  N   UNL     1       4.393   7.049  17.222  0.00  0.00    +0.000 NA
ATOM      4  C   UNL     1       5.103   5.926  16.954  0.00  0.00    +0.000 C 
ATOM      5  C   UNL     1       4.868   4.614  17.095  0.00  0.00    +0.000 C 
ATOM      6  C   UNL     1       3.654   3.969  17.629  0.00  0.00    +0.000 A 
ATOM      7  C   UNL     1       3.606   2.557  17.693  0.00  0.00    +0.000 A 
ATOM      8  C   UNL     1       2.494   1.865  18.187  0.00  0.00    +0.000 A 
ATOM      9  C   UNL     1       1.388   2.570  18.635  0.00  0.00    +0.000 A 
ATOM     10  C   UNL     1       1.403   3.958  18.584  0.00  0.00    +0.000 A 
ATOM     11  C   UNL     1       2.526   4.643  18.086  0.00  0.00    +0.000 A 
ATOM     12  O   UNL     1       2.366   6.046  18.111  0.00  0.00    +0.000 OA
ENDROOT
BRANCH   5  13
ATOM     13  O   UNL     1       5.854   3.708  16.703  0.00  0.00    +0.000 OA
ATOM     14  H   UNL     1       5.707   2.860  17.151  0.00  0.00    +0.000 HD
ENDBRANCH   5  13
TORSDOF 1
ENDMDL
MODEL 7
REMARK VINA RESULT:      -5.9      1.741      3.870
REMARK  Name = 
REMARK  2 active torsions:
REMARK  status: ('A' for Active; 'I' for Inactive)
REMARK    1  A    between atoms: C_1  and  C_2
REMARK    2  A    between atoms: C_5  and  O_6
REMARK                            x       y       z     vdW  Elec       q    Type
REMARK                         _______ _______ _______ _____ _____    ______ ____
ROOT
ATOM      1  C   UNL     1       1.364   3.787  17.979  0.00  0.00    +0.000 C 
ATOM      2  C   UNL     1       2.801   4.150  18.222  0.00  0.00    +0.000 C 
ATOM      3  N   UNL     1       3.200   4.434  19.411  0.00  0.00    +0.000 NA
ATOM      4  C   UNL     1       4.468   4.775  19.749  0.00  0.00    +0.000 C 
ATOM      5  C   UNL     1       5.612   4.917  19.066  0.00  0.00    +0.000 C 
ATOM      6  C   UNL     1       5.827   4.728  17.620  0.00  0.00    +0.000 A 
ATOM      7  C   UNL     1       7.123   4.930  17.092  0.00  0.00    +0.000 A 
ATOM      8  C   UNL     1       7.415   4.770  15.733  0.00  0.00    +0.000 A 
ATOM      9  C   UNL     1       6.410   4.401  14.852  0.00  0.00    +0.000 A 
ATOM     10  C   UNL     1       5.125   4.195  15.339  0.00  0.00    +0.000 A 
ATOM     11  C   UNL     1       4.844   4.358  16.707  0.00  0.00    +0.000 A 
ATOM     12  O   UNL     1       3.490   4.107  17.021  0.00  0.00    +0.000 OA
ENDROOT
BRANCH   5  13
ATOM     13  O   UNL     1       6.765   5.290  19.757  0.00  0.00    +0.000 OA
ATOM     14  H   UNL     1       6.996   4.596  20.395  0.00  0.00    +0.000 HD
ENDBRANCH   5  13
TORSDOF 1
ENDMDL
MODEL 8
REMARK VINA RESULT:      -5.8      2.718      4.683
REMARK  Name = 
REMARK  2 active torsions:
REMARK  status: ('A' for Active; 'I' for Inactive)
REMARK    1  A    between atoms: C_1  and  C_2
REMARK    2  A    between atoms: C_5  and  O_6
REMARK                            x       y       z     vdW  Elec       q    Type
REMARK                         _______ _______ _______ _____ _____    ______ ____
ROOT
ATOM      1  C   UNL     1       1.714   6.094  20.718  0.00  0.00    +0.000 C 
ATOM      2  C   UNL     1       2.437   5.128  19.822  0.00  0.00    +0.000 C 
ATOM      3  N   UNL     1       2.359   3.864  20.044  0.00  0.00    +0.000 NA
ATOM      4  C   UNL     1       2.966   2.904  19.306  0.00  0.00    +0.000 C 
ATOM      5  C   UNL     1       3.756   2.914  18.224  0.00  0.00    +0.000 C 
ATOM      6  C   UNL     1       4.230   4.087  17.466  0.00  0.00    +0.000 A 
ATOM      7  C   UNL     1       5.064   3.880  16.343  0.00  0.00    +0.000 A 
ATOM      8  C   UNL     1       5.557   4.936  15.568  0.00  0.00    +0.000 A 
ATOM      9  C   UNL     1       5.228   6.242  15.896  0.00  0.00    +0.000 A 
ATOM     10  C   UNL     1       4.410   6.480  16.995  0.00  0.00    +0.000 A 
ATOM     11  C   UNL     1       3.921   5.410  17.765  0.00  0.00    +0.000 A 
ATOM     12  O   UNL     1       3.108   5.837  18.838  0.00  0.00    +0.000 OA
ENDROOT
BRANCH   5  13
ATOM     13  O   UNL     1       4.213   1.699  17.713  0.00  0.00    +0.000 OA
ATOM     14  H   UNL     1       3.780   1.524  16.862  0.00  0.00    +0.000 HD
ENDBRANCH   5  13
TORSDOF 1
ENDMDL
MODEL 9
REMARK VINA RESULT:      -5.8      2.458      3.404
REMARK  Name = 
REMARK  2 active torsions:
REMARK  status: ('A' for Active; 'I' for Inactive)
REMARK    1  A    between atoms: C_1  and  C_2
REMARK    2  A    between atoms: C_5  and  O_6
REMARK                            x       y       z     vdW  Elec       q    Type
REMARK                         _______ _______ _______ _____ _____    ______ ____
ROOT
ATOM      1  C   UNL     1       4.445   7.244  17.064  0.00  0.00    +0.000 C 
ATOM      2  C   UNL     1       4.194   5.801  17.401  0.00  0.00    +0.000 C 
ATOM      3  N   UNL     1       4.821   4.875  16.766  0.00  0.00    +0.000 NA
ATOM      4  C   UNL     1       4.675   3.545  16.984  0.00  0.00    +0.000 C 
ATOM      5  C   UNL     1       3.934   2.809  17.822  0.00  0.00    +0.000 C 
ATOM      6  C   UNL     1       2.978   3.290  18.837  0.00  0.00    +0.000 A 
ATOM      7  C   UNL     1       2.290   2.340  19.627  0.00  0.00    +0.000 A 
ATOM      8  C   UNL     1       1.368   2.710  20.613  0.00  0.00    +0.000 A 
ATOM      9  C   UNL     1       1.102   4.051  20.839  0.00  0.00    +0.000 A 
ATOM     10  C   UNL     1       1.761   5.010  20.078  0.00  0.00    +0.000 A 
ATOM     11  C   UNL     1       2.686   4.626  19.091  0.00  0.00    +0.000 A 
ATOM     12  O   UNL     1       3.258   5.729  18.420  0.00  0.00    +0.000 OA
ENDROOT
BRANCH   5  13
ATOM     13  O   UNL     1       4.040   1.419  17.771  0.00  0.00    +0.000 OA
ATOM     14  H   UNL     1       3.872   1.117  16.863  0.00  0.00    +0.000 HD
ENDBRANCH   5  13
TORSDOF 1
ENDMDL
