MODEL 1
REMARK VINA RESULT:      -6.7      0.000      0.000
REMARK  Name = 
REMARK  6 active torsions:
REMARK  status: ('A' for Active; 'I' for Inactive)
REMARK    1  A    between atoms: C_2  and  C_3
REMARK    2  A    between atoms: C_7  and  C_8
REMARK    3  A    between atoms: N_10  and  C_11
REMARK    4  A    between atoms: C_11  and  C_12
REMARK    5  A    between atoms: C_12  and  C_13
REMARK    6  A    between atoms: C_13  and  N_14
REMARK                            x       y       z     vdW  Elec       q    Type
REMARK                         _______ _______ _______ _____ _____    ______ ____
ROOT
ATOM      1  C   UNL     1       3.372   5.626  18.669  0.00  0.00    +0.000 C 
ATOM      2  O   UNL     1       2.456   6.046  17.969  0.00  0.00    +0.000 OA
ATOM      3  N   UNL     1       3.244   5.408  20.027  0.00  0.00    +0.000 N 
ATOM      4  H   UNL     1       3.963   4.903  20.525  0.00  0.00    +0.000 HD
ENDROOT
BRANCH   1   9
ATOM      5  C   UNL     1       6.068   4.564  16.188  0.00  0.00    +0.000 A 
ATOM      6  C   UNL     1       7.205   4.640  17.000  0.00  0.00    +0.000 A 
ATOM      7  C   UNL     1       7.085   5.026  18.335  0.00  0.00    +0.000 A 
ATOM      8  C   UNL     1       5.829   5.343  18.857  0.00  0.00    +0.000 A 
ATOM      9  C   UNL     1       4.685   5.290  18.047  0.00  0.00    +0.000 A 
ATOM     10  C   UNL     1       4.807   4.891  16.709  0.00  0.00    +0.000 A 
BRANCH   5  12
ATOM     11  N   UNL     1       6.292   3.785  13.723  0.00  0.00    +0.000 NA
ATOM     12  C   UNL     1       6.193   4.137  14.823  0.00  0.00    +0.000 C 
ENDBRANCH   5  12
ENDBRANCH   1   9
BRANCH   3  13
ATOM     13  C   UNL     1       1.977   5.623  20.707  0.00  0.00    +0.000 C 
BRANCH  13  14
ATOM     14  C   UNL     1       1.011   4.462  20.488  0.00  0.00    +0.000 C 
BRANCH  14  15
ATOM     15  C   UNL     1       1.576   3.154  21.038  0.00  0.00    +0.000 C 
BRANCH  15  16
ATOM     16  N   UNL     1       2.535   2.551  20.129  0.00  0.00    +0.000 N 
ATOM     17  C   UNL     1       2.278   2.034  18.891  0.00  0.00    +0.000 A 
ATOM     18  C   UNL     1       3.481   1.566  18.417  0.00  0.00    +0.000 A 
ATOM     19  C   UNL     1       4.400   1.844  19.445  0.00  0.00    +0.000 A 
ATOM     20  N   UNL     1       3.828   2.448  20.491  0.00  0.00    +0.000 NA
ENDBRANCH  15  16
ENDBRANCH  14  15
ENDBRANCH  13  14
ENDBRANCH   3  13
TORSDOF 6
ENDMDL
MODEL 2
REMARK VINA RESULT:      -6.6      0.616      1.003
REMARK  Name = 
REMARK  6 active torsions:
REMARK  status: ('A' for Active; 'I' for Inactive)
REMARK    1  A    between atoms: C_2  and  C_3
REMARK    2  A    between atoms: C_7  and  C_8
REMARK    3  A    between atoms: N_10  and  C_11
REMARK    4  A    between atoms: C_11  and  C_12
REMARK    5  A    between atoms: C_12  and  C_13
REMARK    6  A    between atoms: C_13  and  N_14
REMARK                            x       y       z     vdW  Elec       q    Type
REMARK                         _______ _______ _______ _____ _____    ______ ____
ROOT
ATOM      1  C   UNL     1       3.560   5.833  18.648  0.00  0.00    +0.000 C 
ATOM      2  O   UNL     1       2.732   6.461  17.997  0.00  0.00    +0.000 OA
ATOM      3  N   UNL     1       3.356   5.452  19.961  0.00  0.00    +0.000 N 
ATOM      4  H   UNL     1       3.985   4.792  20.396  0.00  0.00    +0.000 HD
ENDROOT
BRANCH   1   9
ATOM      5  C   UNL     1       6.147   4.593  16.134  0.00  0.00    +0.000 A 
ATOM      6  C   UNL     1       7.298   4.600  16.929  0.00  0.00    +0.000 A 
ATOM      7  C   UNL     1       7.222   4.998  18.263  0.00  0.00    +0.000 A 
ATOM      8  C   UNL     1       5.997   5.395  18.803  0.00  0.00    +0.000 A 
ATOM      9  C   UNL     1       4.840   5.412  18.009  0.00  0.00    +0.000 A 
ATOM     10  C   UNL     1       4.917   5.001  16.671  0.00  0.00    +0.000 A 
BRANCH   5  12
ATOM     11  N   UNL     1       6.290   3.804  13.666  0.00  0.00    +0.000 NA
ATOM     12  C   UNL     1       6.224   4.154  14.769  0.00  0.00    +0.000 C 
ENDBRANCH   5  12
ENDBRANCH   1   9
BRANCH   3  13
ATOM     13  C   UNL     1       2.104   5.739  20.642  0.00  0.00    +0.000 C 
BRANCH  13  14
ATOM     14  C   UNL     1       1.143   4.554  20.589  0.00  0.00    +0.000 C 
BRANCH  14  15
ATOM     15  C   UNL     1       1.871   3.234  20.835  0.00  0.00    +0.000 C 
BRANCH  15  16
ATOM     16  N   UNL     1       2.413   2.675  19.609  0.00  0.00    +0.000 N 
ATOM     17  C   UNL     1       3.592   2.000  19.466  0.00  0.00    +0.000 A 
ATOM     18  C   UNL     1       3.687   1.678  18.132  0.00  0.00    +0.000 A 
ATOM     19  C   UNL     1       2.517   2.206  17.555  0.00  0.00    +0.000 A 
ATOM     20  N   UNL     1       1.735   2.813  18.453  0.00  0.00    +0.000 NA
ENDBRANCH  15  16
ENDBRANCH  14  15
ENDBRANCH  13  14
ENDBRANCH   3  13
TORSDOF 6
ENDMDL
MODEL 3
REMARK VINA RESULT:      -6.5      2.506      5.371
REMARK  Name = 
REMARK  6 active torsions:
REMARK  status: ('A' for Active; 'I' for Inactive)
REMARK    1  A    between atoms: C_2  and  C_3
REMARK    2  A    between atoms: C_7  and  C_8
REMARK    3  A    between atoms: N_10  and  C_11
REMARK    4  A    between atoms: C_11  and  C_12
REMARK    5  A    between atoms: C_12  and  C_13
REMARK    6  A    between atoms: C_13  and  N_14
REMARK                            x       y       z     vdW  Elec       q    Type
REMARK                         _______ _______ _______ _____ _____    ______ ____
ROOT
ATOM      1  C   UNL     1       3.620   5.838  18.616  0.00  0.00    +0.000 C 
ATOM      2  O   UNL     1       4.430   5.504  19.474  0.00  0.00    +0.000 OA
ATOM      3  N   UNL     1       3.383   5.095  17.474  0.00  0.00    +0.000 N 
ATOM      4  H   UNL     1       2.591   5.316  16.887  0.00  0.00    +0.000 HD
ENDROOT
BRANCH   1   9
ATOM      5  C   UNL     1       1.358   8.529  20.097  0.00  0.00    +0.000 A 
ATOM      6  C   UNL     1       1.281   9.417  19.019  0.00  0.00    +0.000 A 
ATOM      7  C   UNL     1       1.954   9.134  17.831  0.00  0.00    +0.000 A 
ATOM      8  C   UNL     1       2.709   7.964  17.721  0.00  0.00    +0.000 A 
ATOM      9  C   UNL     1       2.810   7.075  18.802  0.00  0.00    +0.000 A 
ATOM     10  C   UNL     1       2.124   7.357  19.991  0.00  0.00    +0.000 A 
BRANCH   5  12
ATOM     11  N   UNL     1       0.065   9.035  22.289  0.00  0.00    +0.000 NA
ATOM     12  C   UNL     1       0.640   8.810  21.308  0.00  0.00    +0.000 C 
ENDBRANCH   5  12
ENDBRANCH   1   9
BRANCH   3  13
ATOM     13  C   UNL     1       4.060   3.829  17.247  0.00  0.00    +0.000 C 
BRANCH  13  14
ATOM     14  C   UNL     1       3.086   2.653  17.266  0.00  0.00    +0.000 C 
BRANCH  14  15
ATOM     15  C   UNL     1       3.175   1.876  18.577  0.00  0.00    +0.000 C 
BRANCH  15  16
ATOM     16  N   UNL     1       2.544   2.587  19.675  0.00  0.00    +0.000 N 
ATOM     17  C   UNL     1       2.989   2.668  20.964  0.00  0.00    +0.000 A 
ATOM     18  C   UNL     1       2.064   3.429  21.639  0.00  0.00    +0.000 A 
ATOM     19  C   UNL     1       1.097   3.755  20.670  0.00  0.00    +0.000 A 
ATOM     20  N   UNL     1       1.387   3.246  19.470  0.00  0.00    +0.000 NA
ENDBRANCH  15  16
ENDBRANCH  14  15
ENDBRANCH  13  14
ENDBRANCH   3  13
TORSDOF 6
ENDMDL
MODEL 4
REMARK VINA RESULT:      -6.4      1.872      5.939
REMARK  Name = 
REMARK  6 active torsions:
REMARK  status: ('A' for Active; 'I' for Inactive)
REMARK    1  A    between atoms: C_2  and  C_3
REMARK    2  A    between atoms: C_7  and  C_8
REMARK    3  A    between atoms: N_10  and  C_11
REMARK    4  A    between atoms: C_11  and  C_12
REMARK    5  A    between atoms: C_12  and  C_13
REMARK    6  A    between atoms: C_13  and  N_14
REMARK                            x       y       z     vdW  Elec       q    Type
REMARK                         _______ _______ _______ _____ _____    ______ ____
ROOT
ATOM      1  C   UNL     1       4.615   5.270  18.913  0.00  0.00    +0.000 C 
ATOM      2  O   UNL     1       4.414   6.384  18.441  0.00  0.00    +0.000 OA
ATOM      3  N   UNL     1       5.852   4.857  19.371  0.00  0.00    +0.000 N 
ATOM      4  H   UNL     1       5.930   4.003  19.905  0.00  0.00    +0.000 HD
ENDROOT
BRANCH   1   9
ATOM      5  C   UNL     1       1.894   3.015  20.351  0.00  0.00    +0.000 A 
ATOM      6  C   UNL     1       1.386   2.450  19.176  0.00  0.00    +0.000 A 
ATOM      7  C   UNL     1       1.930   2.799  17.941  0.00  0.00    +0.000 A 
ATOM      8  C   UNL     1       2.980   3.718  17.878  0.00  0.00    +0.000 A 
ATOM      9  C   UNL     1       3.484   4.307  19.046  0.00  0.00    +0.000 A 
ATOM     10  C   UNL     1       2.943   3.946  20.288  0.00  0.00    +0.000 A 
BRANCH   5  12
ATOM     11  N   UNL     1       0.919   2.320  22.653  0.00  0.00    +0.000 NA
ATOM     12  C   UNL     1       1.352   2.630  21.623  0.00  0.00    +0.000 C 
ENDBRANCH   5  12
ENDBRANCH   1   9
BRANCH   3  13
ATOM     13  C   UNL     1       6.995   5.755  19.363  0.00  0.00    +0.000 C 
BRANCH  13  14
ATOM     14  C   UNL     1       7.613   5.876  17.972  0.00  0.00    +0.000 C 
BRANCH  14  15
ATOM     15  C   UNL     1       7.692   4.518  17.277  0.00  0.00    +0.000 C 
BRANCH  15  16
ATOM     16  N   UNL     1       7.059   4.538  15.969  0.00  0.00    +0.000 N 
ATOM     17  C   UNL     1       5.860   3.979  15.630  0.00  0.00    +0.000 A 
ATOM     18  C   UNL     1       5.684   4.240  14.292  0.00  0.00    +0.000 A 
ATOM     19  C   UNL     1       6.834   4.958  13.915  0.00  0.00    +0.000 A 
ATOM     20  N   UNL     1       7.675   5.145  14.936  0.00  0.00    +0.000 NA
ENDBRANCH  15  16
ENDBRANCH  14  15
ENDBRANCH  13  14
ENDBRANCH   3  13
TORSDOF 6
ENDMDL
MODEL 5
REMARK VINA RESULT:      -6.4      1.959      5.979
REMARK  Name = 
REMARK  6 active torsions:
REMARK  status: ('A' for Active; 'I' for Inactive)
REMARK    1  A    between atoms: C_2  and  C_3
REMARK    2  A    between atoms: C_7  and  C_8
REMARK    3  A    between atoms: N_10  and  C_11
REMARK    4  A    between atoms: C_11  and  C_12
REMARK    5  A    between atoms: C_12  and  C_13
REMARK    6  A    between atoms: C_13  and  N_14
REMARK                            x       y       z     vdW  Elec       q    Type
REMARK                         _______ _______ _______ _____ _____    ______ ____
ROOT
ATOM      1  C   UNL     1       3.547   6.196  18.210  0.00  0.00    +0.000 C 
ATOM      2  O   UNL     1       3.151   7.343  18.388  0.00  0.00    +0.000 OA
ATOM      3  N   UNL     1       4.817   5.900  17.754  0.00  0.00    +0.000 N 
ATOM      4  H   UNL     1       5.154   4.948  17.788  0.00  0.00    +0.000 HD
ENDROOT
BRANCH   1   9
ATOM      5  C   UNL     1       1.660   3.446  20.061  0.00  0.00    +0.000 A 
ATOM      6  C   UNL     1       0.977   2.846  18.997  0.00  0.00    +0.000 A 
ATOM      7  C   UNL     1       1.138   3.334  17.701  0.00  0.00    +0.000 A 
ATOM      8  C   UNL     1       1.979   4.424  17.467  0.00  0.00    +0.000 A 
ATOM      9  C   UNL     1       2.653   5.046  18.528  0.00  0.00    +0.000 A 
ATOM     10  C   UNL     1       2.498   4.548  19.829  0.00  0.00    +0.000 A 
BRANCH   5  12
ATOM     11  N   UNL     1       1.394   2.504  22.464  0.00  0.00    +0.000 NA
ATOM     12  C   UNL     1       1.515   2.922  21.390  0.00  0.00    +0.000 C 
ENDBRANCH   5  12
ENDBRANCH   1   9
BRANCH   3  13
ATOM     13  C   UNL     1       5.790   6.951  17.500  0.00  0.00    +0.000 C 
BRANCH  13  14
ATOM     14  C   UNL     1       7.217   6.411  17.477  0.00  0.00    +0.000 C 
BRANCH  14  15
ATOM     15  C   UNL     1       7.244   4.920  17.145  0.00  0.00    +0.000 C 
BRANCH  15  16
ATOM     16  N   UNL     1       6.977   4.671  15.739  0.00  0.00    +0.000 N 
ATOM     17  C   UNL     1       6.092   3.769  15.220  0.00  0.00    +0.000 A 
ATOM     18  C   UNL     1       6.195   3.879  13.853  0.00  0.00    +0.000 A 
ATOM     19  C   UNL     1       7.172   4.871  13.649  0.00  0.00    +0.000 A 
ATOM     20  N   UNL     1       7.650   5.359  14.796  0.00  0.00    +0.000 NA
ENDBRANCH  15  16
ENDBRANCH  14  15
ENDBRANCH  13  14
ENDBRANCH   3  13
TORSDOF 6
ENDMDL
MODEL 6
REMARK VINA RESULT:      -6.2      1.945      6.253
REMARK  Name = 
REMARK  6 active torsions:
REMARK  status: ('A' for Active; 'I' for Inactive)
REMARK    1  A    between atoms: C_2  and  C_3
REMARK    2  A    between atoms: C_7  and  C_8
REMARK    3  A    between atoms: N_10  and  C_11
REMARK    4  A    between atoms: C_11  and  C_12
REMARK    5  A    between atoms: C_12  and  C_13
REMARK    6  A    between atoms: C_13  and  N_14
REMARK                            x       y       z     vdW  Elec       q    Type
REMARK                         _______ _______ _______ _____ _____    ______ ____
ROOT
ATOM      1  C   UNL     1       4.458   5.277  18.366  0.00  0.00    +0.000 C 
ATOM      2  O   UNL     1       5.122   5.738  19.289  0.00  0.00    +0.000 OA
ATOM      3  N   UNL     1       4.593   5.699  17.057  0.00  0.00    +0.000 N 
ATOM      4  H   UNL     1       4.155   5.175  16.313  0.00  0.00    +0.000 HD
ENDROOT
BRANCH   1   9
ATOM      5  C   UNL     1       2.070   2.861  20.100  0.00  0.00    +0.000 A 
ATOM      6  C   UNL     1       1.678   2.068  19.015  0.00  0.00    +0.000 A 
ATOM      7  C   UNL     1       2.193   2.322  17.744  0.00  0.00    +0.000 A 
ATOM      8  C   UNL     1       3.096   3.370  17.555  0.00  0.00    +0.000 A 
ATOM      9  C   UNL     1       3.480   4.184  18.631  0.00  0.00    +0.000 A 
ATOM     10  C   UNL     1       2.970   3.921  19.910  0.00  0.00    +0.000 A 
BRANCH   5  12
ATOM     11  N   UNL     1       1.151   2.356  22.473  0.00  0.00    +0.000 NA
ATOM     12  C   UNL     1       1.561   2.578  21.412  0.00  0.00    +0.000 C 
ENDBRANCH   5  12
ENDBRANCH   1   9
BRANCH   3  13
ATOM     13  C   UNL     1       5.582   6.699  16.687  0.00  0.00    +0.000 C 
BRANCH  13  14
ATOM     14  C   UNL     1       7.003   6.146  16.760  0.00  0.00    +0.000 C 
BRANCH  14  15
ATOM     15  C   UNL     1       7.067   4.703  16.266  0.00  0.00    +0.000 C 
BRANCH  15  16
ATOM     16  N   UNL     1       7.039   4.622  14.816  0.00  0.00    +0.000 N 
ATOM     17  C   UNL     1       6.259   3.798  14.056  0.00  0.00    +0.000 A 
ATOM     18  C   UNL     1       6.588   4.065  12.747  0.00  0.00    +0.000 A 
ATOM     19  C   UNL     1       7.577   5.061  12.825  0.00  0.00    +0.000 A 
ATOM     20  N   UNL     1       7.855   5.407  14.086  0.00  0.00    +0.000 NA
ENDBRANCH  15  16
ENDBRANCH  14  15
ENDBRANCH  13  14
ENDBRANCH   3  13
TORSDOF 6
ENDMDL
MODEL 7
REMARK VINA RESULT:      -6.1      1.675      2.091
REMARK  Name = 
REMARK  6 active torsions:
REMARK  status: ('A' for Active; 'I' for Inactive)
REMARK    1  A    between atoms: C_2  and  C_3
REMARK    2  A    between atoms: C_7  and  C_8
REMARK    3  A    between atoms: N_10  and  C_11
REMARK    4  A    between atoms: C_11  and  C_12
REMARK    5  A    between atoms: C_12  and  C_13
REMARK    6  A    between atoms: C_13  and  N_14
REMARK                            x       y       z     vdW  Elec       q    Type
REMARK                         _______ _______ _______ _____ _____    ______ ____
ROOT
ATOM      1  C   UNL     1       2.744   5.406  18.388  0.00  0.00    +0.000 C 
ATOM      2  O   UNL     1       1.699   5.195  17.780  0.00  0.00    +0.000 OA
ATOM      3  N   UNL     1       2.793   5.609  19.754  0.00  0.00    +0.000 N 
ATOM      4  H   UNL     1       3.683   5.606  20.231  0.00  0.00    +0.000 HD
ENDROOT
BRANCH   1   9
ATOM      5  C   UNL     1       6.202   6.370  17.098  0.00  0.00    +0.000 A 
ATOM      6  C   UNL     1       6.427   5.338  16.179  0.00  0.00    +0.000 A 
ATOM      7  C   UNL     1       5.459   4.353  15.986  0.00  0.00    +0.000 A 
ATOM      8  C   UNL     1       4.269   4.393  16.714  0.00  0.00    +0.000 A 
ATOM      9  C   UNL     1       4.041   5.411  17.653  0.00  0.00    +0.000 A 
ATOM     10  C   UNL     1       5.010   6.407  17.837  0.00  0.00    +0.000 A 
BRANCH   5  12
ATOM     11  N   UNL     1       7.979   8.235  17.408  0.00  0.00    +0.000 NA
ATOM     12  C   UNL     1       7.187   7.399  17.271  0.00  0.00    +0.000 C 
ENDBRANCH   5  12
ENDBRANCH   1   9
BRANCH   3  13
ATOM     13  C   UNL     1       1.591   5.536  20.569  0.00  0.00    +0.000 C 
BRANCH  13  14
ATOM     14  C   UNL     1       0.853   4.214  20.376  0.00  0.00    +0.000 C 
BRANCH  14  15
ATOM     15  C   UNL     1       1.596   3.058  21.043  0.00  0.00    +0.000 C 
BRANCH  15  16
ATOM     16  N   UNL     1       2.581   2.461  20.158  0.00  0.00    +0.000 N 
ATOM     17  C   UNL     1       2.338   1.803  18.985  0.00  0.00    +0.000 A 
ATOM     18  C   UNL     1       3.566   1.406  18.511  0.00  0.00    +0.000 A 
ATOM     19  C   UNL     1       4.485   1.869  19.471  0.00  0.00    +0.000 A 
ATOM     20  N   UNL     1       3.889   2.516  20.476  0.00  0.00    +0.000 NA
ENDBRANCH  15  16
ENDBRANCH  14  15
ENDBRANCH  13  14
ENDBRANCH   3  13
TORSDOF 6
ENDMDL
MODEL 8
REMARK VINA RESULT:      -6.1      1.644      2.933
REMARK  Name = 
REMARK  6 active torsions:
REMARK  status: ('A' for Active; 'I' for Inactive)
REMARK    1  A    between atoms: C_2  and  C_3
REMARK    2  A    between atoms: C_7  and  C_8
REMARK    3  A    between atoms: N_10  and  C_11
REMARK    4  A    between atoms: C_11  and  C_12
REMARK    5  A    between atoms: C_12  and  C_13
REMARK    6  A    between atoms: C_13  and  N_14
REMARK                            x       y       z     vdW  Elec       q    Type
REMARK                         _______ _______ _______ _____ _____    ______ ____
ROOT
ATOM      1  C   UNL     1       4.831   3.365  18.243  0.00  0.00    +0.000 C 
ATOM      2  O   UNL     1       5.040   3.676  19.411  0.00  0.00    +0.000 OA
ATOM      3  N   UNL     1       3.888   2.426  17.871  0.00  0.00    +0.000 N 
ATOM      4  H   UNL     1       3.631   2.330  16.898  0.00  0.00    +0.000 HD
ENDROOT
BRANCH   1   9
ATOM      5  C   UNL     1       6.283   4.277  14.836  0.00  0.00    +0.000 A 
ATOM      6  C   UNL     1       7.082   5.371  15.185  0.00  0.00    +0.000 A 
ATOM      7  C   UNL     1       7.145   5.795  16.512  0.00  0.00    +0.000 A 
ATOM      8  C   UNL     1       6.405   5.128  17.491  0.00  0.00    +0.000 A 
ATOM      9  C   UNL     1       5.584   4.043  17.150  0.00  0.00    +0.000 A 
ATOM     10  C   UNL     1       5.531   3.612  15.817  0.00  0.00    +0.000 A 
BRANCH   5  12
ATOM     11  N   UNL     1       6.212   3.455  12.376  0.00  0.00    +0.000 NA
ATOM     12  C   UNL     1       6.245   3.826  13.473  0.00  0.00    +0.000 C 
ENDBRANCH   5  12
ENDBRANCH   1   9
BRANCH   3  13
ATOM     13  C   UNL     1       3.043   1.775  18.859  0.00  0.00    +0.000 C 
BRANCH  13  14
ATOM     14  C   UNL     1       1.586   2.213  18.736  0.00  0.00    +0.000 C 
BRANCH  14  15
ATOM     15  C   UNL     1       1.242   3.300  19.752  0.00  0.00    +0.000 C 
BRANCH  15  16
ATOM     16  N   UNL     1       1.753   4.599  19.353  0.00  0.00    +0.000 N 
ATOM     17  C   UNL     1       1.798   5.109  18.087  0.00  0.00    +0.000 A 
ATOM     18  C   UNL     1       2.373   6.353  18.199  0.00  0.00    +0.000 A 
ATOM     19  C   UNL     1       2.643   6.498  19.571  0.00  0.00    +0.000 A 
ATOM     20  N   UNL     1       2.264   5.432  20.281  0.00  0.00    +0.000 NA
ENDBRANCH  15  16
ENDBRANCH  14  15
ENDBRANCH  13  14
ENDBRANCH   3  13
TORSDOF 6
ENDMDL
MODEL 9
REMARK VINA RESULT:      -6.1      1.268      1.495
REMARK  Name = 
REMARK  6 active torsions:
REMARK  status: ('A' for Active; 'I' for Inactive)
REMARK    1  A    between atoms: C_2  and  C_3
REMARK    2  A    between atoms: C_7  and  C_8
REMARK    3  A    between atoms: N_10  and  C_11
REMARK    4  A    between atoms: C_11  and  C_12
REMARK    5  A    between atoms: C_12  and  C_13
REMARK    6  A    between atoms: C_13  and  N_14
REMARK                            x       y       z     vdW  Elec       q    Type
REMARK                         _______ _______ _______ _____ _____    ______ ____
ROOT
ATOM      1  C   UNL     1       4.031   6.652  17.933  0.00  0.00    +0.000 C 
ATOM      2  O   UNL     1       3.593   7.640  17.355  0.00  0.00    +0.000 OA
ATOM      3  N   UNL     1       3.492   6.164  19.108  0.00  0.00    +0.000 N 
ATOM      4  H   UNL     1       3.772   5.256  19.451  0.00  0.00    +0.000 HD
ENDROOT
BRANCH   1   9
ATOM      5  C   UNL     1       6.242   4.641  15.562  0.00  0.00    +0.000 A 
ATOM      6  C   UNL     1       7.373   4.456  16.364  0.00  0.00    +0.000 A 
ATOM      7  C   UNL     1       7.404   4.978  17.657  0.00  0.00    +0.000 A 
ATOM      8  C   UNL     1       6.307   5.688  18.148  0.00  0.00    +0.000 A 
ATOM      9  C   UNL     1       5.175   5.897  17.346  0.00  0.00    +0.000 A 
ATOM     10  C   UNL     1       5.142   5.363  16.050  0.00  0.00    +0.000 A 
BRANCH   5  12
ATOM     11  N   UNL     1       6.175   3.624  13.176  0.00  0.00    +0.000 NA
ATOM     12  C   UNL     1       6.202   4.076  14.242  0.00  0.00    +0.000 C 
ENDBRANCH   5  12
ENDBRANCH   1   9
BRANCH   3  13
ATOM     13  C   UNL     1       2.320   6.780  19.710  0.00  0.00    +0.000 C 
BRANCH  13  14
ATOM     14  C   UNL     1       1.683   5.877  20.763  0.00  0.00    +0.000 C 
BRANCH  14  15
ATOM     15  C   UNL     1       2.441   4.559  20.902  0.00  0.00    +0.000 C 
BRANCH  15  16
ATOM     16  N   UNL     1       2.029   3.587  19.903  0.00  0.00    +0.000 N 
ATOM     17  C   UNL     1       0.771   3.087  19.715  0.00  0.00    +0.000 A 
ATOM     18  C   UNL     1       0.869   2.195  18.674  0.00  0.00    +0.000 A 
ATOM     19  C   UNL     1       2.227   2.225  18.306  0.00  0.00    +0.000 A 
ATOM     20  N   UNL     1       2.938   3.075  19.052  0.00  0.00    +0.000 NA
ENDBRANCH  15  16
ENDBRANCH  14  15
ENDBRANCH  13  14
ENDBRANCH   3  13
TORSDOF 6
ENDMDL
