MODEL 1
REMARK VINA RESULT:      -8.3      0.000      0.000
REMARK  Name = 
REMARK  4 active torsions:
REMARK  status: ('A' for Active; 'I' for Inactive)
REMARK    1  A    between atoms: C_1  and  N_2
REMARK    2  A    between atoms: N_2  and  C_3
REMARK    3  A    between atoms: C_3  and  C_4
REMARK    4  A    between atoms: C_14  and  C_16
REMARK                            x       y       z     vdW  Elec       q    Type
REMARK                         _______ _______ _______ _____ _____    ______ ____
ROOT
ATOM      1  C   UNL     1       4.122   2.006  17.545  0.00  0.00    +0.000 C 
ATOM      2  N   UNL     1       3.975   3.371  18.042  0.00  0.00    +0.000 N 
ATOM      3  C   UNL     1       2.783   3.612  18.753  0.00  0.00    +0.000 C 
ATOM      4  O   UNL     1       1.974   2.702  18.941  0.00  0.00    +0.000 OA
ENDROOT
BRANCH   3   5
ATOM      5  C   UNL     1       2.461   4.981  19.274  0.00  0.00    +0.000 A 
ATOM      6  C   UNL     1       2.300   6.028  18.447  0.00  0.00    +0.000 A 
ATOM      7  C   UNL     1       2.001   7.358  18.902  0.00  0.00    +0.000 A 
ATOM      8  C   UNL     1       1.598   7.549  20.166  0.00  0.00    +0.000 A 
ATOM      9  N   UNL     1       1.610   6.476  21.029  0.00  0.00    +0.000 N 
ATOM     10  C   UNL     1       2.077   5.209  20.715  0.00  0.00    +0.000 A 
ATOM     11  O   UNL     1       2.143   4.358  21.590  0.00  0.00    +0.000 OA
ATOM     12  C   UNL     1       1.182   8.887  20.714  0.00  0.00    +0.000 C 
ATOM     13  C   UNL     1       1.689  10.054  19.862  0.00  0.00    +0.000 C 
ATOM     14  C   UNL     1       1.466   9.810  18.376  0.00  0.00    +0.000 C 
ATOM     15  C   UNL     1       2.113   8.512  17.959  0.00  0.00    +0.000 C 
ATOM     16  O   UNL     1       2.674   8.381  16.874  0.00  0.00    +0.000 OA
ATOM     17  H   UNL     1       1.325   6.590  21.998  0.00  0.00    +0.000 HD
ENDBRANCH   3   5
BRANCH   2  18
ATOM     18  C   UNL     1       5.155   4.270  18.022  0.00  0.00    +0.000 C 
BRANCH  18  19
ATOM     19  C   UNL     1       5.724   4.727  16.673  0.00  0.00    +0.000 C 
ATOM     20  C   UNL     1       7.181   5.171  16.823  0.00  0.00    +0.000 C 
ATOM     21  O   UNL     1       7.680   5.714  15.592  0.00  0.00    +0.000 OA
ATOM     22  C   UNL     1       7.237   5.015  14.498  0.00  0.00    +0.000 A 
ATOM     23  C   UNL     1       7.776   5.366  13.265  0.00  0.00    +0.000 A 
ATOM     24  C   UNL     1       7.353   4.703  12.111  0.00  0.00    +0.000 A 
ATOM     25  C   UNL     1       6.396   3.690  12.191  0.00  0.00    +0.000 A 
ATOM     26  C   UNL     1       5.856   3.336  13.426  0.00  0.00    +0.000 A 
ATOM     27  C   UNL     1       6.267   4.009  14.571  0.00  0.00    +0.000 A 
ATOM     28  O   UNL     1       5.665   3.639  15.744  0.00  0.00    +0.000 OA
ENDBRANCH  18  19
ENDBRANCH   2  18
TORSDOF 3
ENDMDL
MODEL 2
REMARK VINA RESULT:      -8.2      2.807      6.145
REMARK  Name = 
REMARK  4 active torsions:
REMARK  status: ('A' for Active; 'I' for Inactive)
REMARK    1  A    between atoms: C_1  and  N_2
REMARK    2  A    between atoms: N_2  and  C_3
REMARK    3  A    between atoms: C_3  and  C_4
REMARK    4  A    between atoms: C_14  and  C_16
REMARK                            x       y       z     vdW  Elec       q    Type
REMARK                         _______ _______ _______ _____ _____    ______ ____
ROOT
ATOM      1  C   UNL     1       0.449   2.612  18.889  0.00  0.00    +0.000 C 
ATOM      2  N   UNL     1       1.671   3.366  19.153  0.00  0.00    +0.000 N 
ATOM      3  C   UNL     1       2.626   3.316  18.119  0.00  0.00    +0.000 C 
ATOM      4  O   UNL     1       2.389   2.697  17.079  0.00  0.00    +0.000 OA
ENDROOT
BRANCH   3   5
ATOM      5  C   UNL     1       3.958   3.990  18.267  0.00  0.00    +0.000 A 
ATOM      6  C   UNL     1       4.238   5.139  17.630  0.00  0.00    +0.000 A 
ATOM      7  C   UNL     1       5.503   5.813  17.733  0.00  0.00    +0.000 A 
ATOM      8  C   UNL     1       6.364   5.459  18.697  0.00  0.00    +0.000 A 
ATOM      9  N   UNL     1       6.063   4.366  19.478  0.00  0.00    +0.000 N 
ATOM     10  C   UNL     1       4.959   3.545  19.305  0.00  0.00    +0.000 A 
ATOM     11  O   UNL     1       4.846   2.537  19.986  0.00  0.00    +0.000 OA
ATOM     12  C   UNL     1       7.674   6.158  18.941  0.00  0.00    +0.000 C 
ATOM     13  C   UNL     1       8.134   6.983  17.735  0.00  0.00    +0.000 C 
ATOM     14  C   UNL     1       7.000   7.813  17.150  0.00  0.00    +0.000 C 
ATOM     15  C   UNL     1       5.837   6.922  16.787  0.00  0.00    +0.000 C 
ATOM     16  O   UNL     1       5.156   7.114  15.783  0.00  0.00    +0.000 OA
ATOM     17  H   UNL     1       6.702   4.062  20.207  0.00  0.00    +0.000 HD
ENDBRANCH   3   5
BRANCH   2  18
ATOM     18  C   UNL     1       1.694   4.316  20.292  0.00  0.00    +0.000 C 
BRANCH  18  19
ATOM     19  C   UNL     1       1.296   5.777  20.055  0.00  0.00    +0.000 C 
ATOM     20  C   UNL     1       1.240   6.544  21.379  0.00  0.00    +0.000 C 
ATOM     21  O   UNL     1       0.751   7.878  21.178  0.00  0.00    +0.000 OA
ATOM     22  C   UNL     1       1.237   8.442  20.026  0.00  0.00    +0.000 A 
ATOM     23  C   UNL     1       0.943   9.783  19.808  0.00  0.00    +0.000 A 
ATOM     24  C   UNL     1       1.396  10.411  18.645  0.00  0.00    +0.000 A 
ATOM     25  C   UNL     1       2.142   9.699  17.705  0.00  0.00    +0.000 A 
ATOM     26  C   UNL     1       2.439   8.355  17.923  0.00  0.00    +0.000 A 
ATOM     27  C   UNL     1       1.973   7.729  19.073  0.00  0.00    +0.000 A 
ATOM     28  O   UNL     1       2.265   6.397  19.203  0.00  0.00    +0.000 OA
ENDBRANCH  18  19
ENDBRANCH   2  18
TORSDOF 3
ENDMDL
MODEL 3
REMARK VINA RESULT:      -8.1      1.986      5.193
REMARK  Name = 
REMARK  4 active torsions:
REMARK  status: ('A' for Active; 'I' for Inactive)
REMARK    1  A    between atoms: C_1  and  N_2
REMARK    2  A    between atoms: N_2  and  C_3
REMARK    3  A    between atoms: C_3  and  C_4
REMARK    4  A    between atoms: C_14  and  C_16
REMARK                            x       y       z     vdW  Elec       q    Type
REMARK                         _______ _______ _______ _____ _____    ______ ____
ROOT
ATOM      1  C   UNL     1       6.919   4.231  15.270  0.00  0.00    +0.000 C 
ATOM      2  N   UNL     1       5.833   4.558  16.187  0.00  0.00    +0.000 N 
ATOM      3  C   UNL     1       5.958   5.809  16.823  0.00  0.00    +0.000 C 
ATOM      4  O   UNL     1       6.911   6.547  16.566  0.00  0.00    +0.000 OA
ENDROOT
BRANCH   3   5
ATOM      5  C   UNL     1       4.952   6.261  17.840  0.00  0.00    +0.000 A 
ATOM      6  C   UNL     1       3.914   7.044  17.502  0.00  0.00    +0.000 A 
ATOM      7  C   UNL     1       2.934   7.510  18.444  0.00  0.00    +0.000 A 
ATOM      8  C   UNL     1       2.866   6.948  19.659  0.00  0.00    +0.000 A 
ATOM      9  N   UNL     1       3.828   6.029  20.013  0.00  0.00    +0.000 N 
ATOM     10  C   UNL     1       4.920   5.681  19.233  0.00  0.00    +0.000 A 
ATOM     11  O   UNL     1       5.773   4.936  19.690  0.00  0.00    +0.000 OA
ATOM     12  C   UNL     1       1.824   7.305  20.684  0.00  0.00    +0.000 C 
ATOM     13  C   UNL     1       1.157   8.654  20.399  0.00  0.00    +0.000 C 
ATOM     14  C   UNL     1       0.771   8.798  18.933  0.00  0.00    +0.000 C 
ATOM     15  C   UNL     1       1.980   8.593  18.055  0.00  0.00    +0.000 C 
ATOM     16  O   UNL     1       2.164   9.251  17.033  0.00  0.00    +0.000 OA
ATOM     17  H   UNL     1       3.814   5.597  20.933  0.00  0.00    +0.000 HD
ENDBRANCH   3   5
BRANCH   2  18
ATOM     18  C   UNL     1       4.600   3.733  16.161  0.00  0.00    +0.000 C 
BRANCH  18  19
ATOM     19  C   UNL     1       3.617   3.820  17.334  0.00  0.00    +0.000 C 
ATOM     20  C   UNL     1       2.183   3.578  16.855  0.00  0.00    +0.000 C 
ATOM     21  O   UNL     1       1.246   3.779  17.924  0.00  0.00    +0.000 OA
ATOM     22  C   UNL     1       1.711   3.293  19.120  0.00  0.00    +0.000 A 
ATOM     23  C   UNL     1       0.824   3.304  20.191  0.00  0.00    +0.000 A 
ATOM     24  C   UNL     1       1.241   2.839  21.440  0.00  0.00    +0.000 A 
ATOM     25  C   UNL     1       2.541   2.362  21.615  0.00  0.00    +0.000 A 
ATOM     26  C   UNL     1       3.430   2.348  20.542  0.00  0.00    +0.000 A 
ATOM     27  C   UNL     1       3.017   2.827  19.305  0.00  0.00    +0.000 A 
ATOM     28  O   UNL     1       3.953   2.824  18.306  0.00  0.00    +0.000 OA
ENDBRANCH  18  19
ENDBRANCH   2  18
TORSDOF 3
ENDMDL
MODEL 4
REMARK VINA RESULT:      -8.1      2.323      7.994
REMARK  Name = 
REMARK  4 active torsions:
REMARK  status: ('A' for Active; 'I' for Inactive)
REMARK    1  A    between atoms: C_1  and  N_2
REMARK    2  A    between atoms: N_2  and  C_3
REMARK    3  A    between atoms: C_3  and  C_4
REMARK    4  A    between atoms: C_14  and  C_16
REMARK                            x       y       z     vdW  Elec       q    Type
REMARK                         _______ _______ _______ _____ _____    ______ ____
ROOT
ATOM      1  C   UNL     1       1.133   7.691  21.243  0.00  0.00    +0.000 C 
ATOM      2  N   UNL     1       1.873   7.312  20.043  0.00  0.00    +0.000 N 
ATOM      3  C   UNL     1       2.273   5.963  20.003  0.00  0.00    +0.000 C 
ATOM      4  O   UNL     1       1.970   5.194  20.918  0.00  0.00    +0.000 OA
ENDROOT
BRANCH   3   5
ATOM      5  C   UNL     1       3.094   5.436  18.863  0.00  0.00    +0.000 A 
ATOM      6  C   UNL     1       4.434   5.531  18.860  0.00  0.00    +0.000 A 
ATOM      7  C   UNL     1       5.259   5.051  17.785  0.00  0.00    +0.000 A 
ATOM      8  C   UNL     1       4.732   4.236  16.861  0.00  0.00    +0.000 A 
ATOM      9  N   UNL     1       3.378   3.989  16.897  0.00  0.00    +0.000 N 
ATOM     10  C   UNL     1       2.487   4.578  17.781  0.00  0.00    +0.000 A 
ATOM     11  O   UNL     1       1.289   4.371  17.654  0.00  0.00    +0.000 OA
ATOM     12  C   UNL     1       5.530   3.613  15.748  0.00  0.00    +0.000 C 
ATOM     13  C   UNL     1       6.855   4.340  15.497  0.00  0.00    +0.000 C 
ATOM     14  C   UNL     1       7.590   4.644  16.796  0.00  0.00    +0.000 C 
ATOM     15  C   UNL     1       6.702   5.438  17.722  0.00  0.00    +0.000 C 
ATOM     16  O   UNL     1       7.140   6.338  18.434  0.00  0.00    +0.000 OA
ATOM     17  H   UNL     1       2.945   3.389  16.201  0.00  0.00    +0.000 HD
ENDBRANCH   3   5
BRANCH   2  18
ATOM     18  C   UNL     1       1.890   8.244  18.889  0.00  0.00    +0.000 C 
BRANCH  18  19
ATOM     19  C   UNL     1       1.551   9.722  19.115  0.00  0.00    +0.000 C 
ATOM     20  C   UNL     1       2.192  10.595  18.034  0.00  0.00    +0.000 C 
ATOM     21  O   UNL     1       1.981  11.988  18.310  0.00  0.00    +0.000 OA
ATOM     22  C   UNL     1       0.724  12.236  18.801  0.00  0.00    +0.000 A 
ATOM     23  C   UNL     1       0.363  13.569  18.964  0.00  0.00    +0.000 A 
ATOM     24  C   UNL     1      -0.897  13.887  19.476  0.00  0.00    +0.000 A 
ATOM     25  C   UNL     1      -1.793  12.874  19.821  0.00  0.00    +0.000 A 
ATOM     26  C   UNL     1      -1.433  11.538  19.657  0.00  0.00    +0.000 A 
ATOM     27  C   UNL     1      -0.173  11.224  19.162  0.00  0.00    +0.000 A 
ATOM     28  O   UNL     1       0.130   9.892  19.066  0.00  0.00    +0.000 OA
ENDBRANCH  18  19
ENDBRANCH   2  18
TORSDOF 3
ENDMDL
MODEL 5
REMARK VINA RESULT:      -7.9      1.680      2.479
REMARK  Name = 
REMARK  4 active torsions:
REMARK  status: ('A' for Active; 'I' for Inactive)
REMARK    1  A    between atoms: C_1  and  N_2
REMARK    2  A    between atoms: N_2  and  C_3
REMARK    3  A    between atoms: C_3  and  C_4
REMARK    4  A    between atoms: C_14  and  C_16
REMARK                            x       y       z     vdW  Elec       q    Type
REMARK                         _______ _______ _______ _____ _____    ______ ____
ROOT
ATOM      1  C   UNL     1       4.095   2.846  20.107  0.00  0.00    +0.000 C 
ATOM      2  N   UNL     1       3.883   4.253  19.782  0.00  0.00    +0.000 N 
ATOM      3  C   UNL     1       2.560   4.703  19.960  0.00  0.00    +0.000 C 
ATOM      4  O   UNL     1       1.693   3.939  20.390  0.00  0.00    +0.000 OA
ENDROOT
BRANCH   3   5
ATOM      5  C   UNL     1       2.171   6.109  19.611  0.00  0.00    +0.000 A 
ATOM      6  C   UNL     1       1.897   7.019  20.561  0.00  0.00    +0.000 A 
ATOM      7  C   UNL     1       1.509   8.372  20.272  0.00  0.00    +0.000 A 
ATOM      8  C   UNL     1       1.675   8.858  19.033  0.00  0.00    +0.000 A 
ATOM      9  N   UNL     1       2.091   7.998  18.041  0.00  0.00    +0.000 N 
ATOM     10  C   UNL     1       2.288   6.636  18.202  0.00  0.00    +0.000 A 
ATOM     11  O   UNL     1       2.552   5.947  17.227  0.00  0.00    +0.000 OA
ATOM     12  C   UNL     1       1.381  10.283  18.652  0.00  0.00    +0.000 C 
ATOM     13  C   UNL     1       0.463  10.983  19.658  0.00  0.00    +0.000 C 
ATOM     14  C   UNL     1       0.893  10.722  21.095  0.00  0.00    +0.000 C 
ATOM     15  C   UNL     1       0.953   9.237  21.357  0.00  0.00    +0.000 C 
ATOM     16  O   UNL     1       0.606   8.749  22.430  0.00  0.00    +0.000 OA
ATOM     17  H   UNL     1       2.210   8.331  17.088  0.00  0.00    +0.000 HD
ENDBRANCH   3   5
BRANCH   2  18
ATOM     18  C   UNL     1       5.064   5.128  19.586  0.00  0.00    +0.000 C 
BRANCH  18  19
ATOM     19  C   UNL     1       5.610   5.340  18.169  0.00  0.00    +0.000 C 
ATOM     20  C   UNL     1       7.132   5.500  18.194  0.00  0.00    +0.000 C 
ATOM     21  O   UNL     1       7.635   5.820  16.888  0.00  0.00    +0.000 OA
ATOM     22  C   UNL     1       6.988   5.126  15.897  0.00  0.00    +0.000 A 
ATOM     23  C   UNL     1       7.493   5.251  14.608  0.00  0.00    +0.000 A 
ATOM     24  C   UNL     1       6.869   4.583  13.552  0.00  0.00    +0.000 A 
ATOM     25  C   UNL     1       5.744   3.790  13.788  0.00  0.00    +0.000 A 
ATOM     26  C   UNL     1       5.238   3.663  15.079  0.00  0.00    +0.000 A 
ATOM     27  C   UNL     1       5.851   4.342  16.125  0.00  0.00    +0.000 A 
ATOM     28  O   UNL     1       5.277   4.206  17.361  0.00  0.00    +0.000 OA
ENDBRANCH  18  19
ENDBRANCH   2  18
TORSDOF 3
ENDMDL
MODEL 6
REMARK VINA RESULT:      -7.9      2.393      7.759
REMARK  Name = 
REMARK  4 active torsions:
REMARK  status: ('A' for Active; 'I' for Inactive)
REMARK    1  A    between atoms: C_1  and  N_2
REMARK    2  A    between atoms: N_2  and  C_3
REMARK    3  A    between atoms: C_3  and  C_4
REMARK    4  A    between atoms: C_14  and  C_16
REMARK                            x       y       z     vdW  Elec       q    Type
REMARK                         _______ _______ _______ _____ _____    ______ ____
ROOT
ATOM      1  C   UNL     1       1.604   7.601  21.202  0.00  0.00    +0.000 C 
ATOM      2  N   UNL     1       2.191   7.275  19.905  0.00  0.00    +0.000 N 
ATOM      3  C   UNL     1       2.648   5.948  19.785  0.00  0.00    +0.000 C 
ATOM      4  O   UNL     1       2.512   5.154  20.717  0.00  0.00    +0.000 OA
ENDROOT
BRANCH   3   5
ATOM      5  C   UNL     1       3.330   5.479  18.534  0.00  0.00    +0.000 A 
ATOM      6  C   UNL     1       4.595   5.831  18.248  0.00  0.00    +0.000 A 
ATOM      7  C   UNL     1       5.283   5.415  17.057  0.00  0.00    +0.000 A 
ATOM      8  C   UNL     1       4.774   4.424  16.312  0.00  0.00    +0.000 A 
ATOM      9  N   UNL     1       3.534   3.924  16.642  0.00  0.00    +0.000 N 
ATOM     10  C   UNL     1       2.723   4.414  17.654  0.00  0.00    +0.000 A 
ATOM     11  O   UNL     1       1.594   3.967  17.790  0.00  0.00    +0.000 OA
ATOM     12  C   UNL     1       5.459   3.859  15.098  0.00  0.00    +0.000 C 
ATOM     13  C   UNL     1       6.529   4.800  14.536  0.00  0.00    +0.000 C 
ATOM     14  C   UNL     1       7.416   5.370  15.634  0.00  0.00    +0.000 C 
ATOM     15  C   UNL     1       6.573   6.066  16.674  0.00  0.00    +0.000 C 
ATOM     16  O   UNL     1       6.938   7.102  17.225  0.00  0.00    +0.000 OA
ATOM     17  H   UNL     1       3.113   3.183  16.087  0.00  0.00    +0.000 HD
ENDBRANCH   3   5
BRANCH   2  18
ATOM     18  C   UNL     1       2.003   8.220  18.777  0.00  0.00    +0.000 C 
BRANCH  18  19
ATOM     19  C   UNL     1       0.849   9.228  18.830  0.00  0.00    +0.000 C 
ATOM     20  C   UNL     1       1.383  10.662  18.819  0.00  0.00    +0.000 C 
ATOM     21  O   UNL     1       0.316  11.607  18.992  0.00  0.00    +0.000 OA
ATOM     22  C   UNL     1      -0.816  11.243  18.309  0.00  0.00    +0.000 A 
ATOM     23  C   UNL     1      -1.862  12.159  18.289  0.00  0.00    +0.000 A 
ATOM     24  C   UNL     1      -3.048  11.841  17.625  0.00  0.00    +0.000 A 
ATOM     25  C   UNL     1      -3.186  10.610  16.981  0.00  0.00    +0.000 A 
ATOM     26  C   UNL     1      -2.139   9.692  16.999  0.00  0.00    +0.000 A 
ATOM     27  C   UNL     1      -0.966  10.005  17.675  0.00  0.00    +0.000 A 
ATOM     28  O   UNL     1       0.006   9.040  17.688  0.00  0.00    +0.000 OA
ENDBRANCH  18  19
ENDBRANCH   2  18
TORSDOF 3
ENDMDL
MODEL 7
REMARK VINA RESULT:      -7.8      5.366      8.799
REMARK  Name = 
REMARK  4 active torsions:
REMARK  status: ('A' for Active; 'I' for Inactive)
REMARK    1  A    between atoms: C_1  and  N_2
REMARK    2  A    between atoms: N_2  and  C_3
REMARK    3  A    between atoms: C_3  and  C_4
REMARK    4  A    between atoms: C_14  and  C_16
REMARK                            x       y       z     vdW  Elec       q    Type
REMARK                         _______ _______ _______ _____ _____    ______ ____
ROOT
ATOM      1  C   UNL     1       1.467  12.521  20.820  0.00  0.00    +0.000 C 
ATOM      2  N   UNL     1       0.120  11.997  20.615  0.00  0.00    +0.000 N 
ATOM      3  C   UNL     1      -0.701  12.795  19.796  0.00  0.00    +0.000 C 
ATOM      4  O   UNL     1      -0.261  13.829  19.288  0.00  0.00    +0.000 OA
ENDROOT
BRANCH   3   5
ATOM      5  C   UNL     1      -2.131  12.422  19.541  0.00  0.00    +0.000 A 
ATOM      6  C   UNL     1      -3.104  12.725  20.416  0.00  0.00    +0.000 A 
ATOM      7  C   UNL     1      -4.484  12.376  20.219  0.00  0.00    +0.000 A 
ATOM      8  C   UNL     1      -4.897  11.972  19.009  0.00  0.00    +0.000 A 
ATOM      9  N   UNL     1      -3.955  11.777  18.024  0.00  0.00    +0.000 N 
ATOM     10  C   UNL     1      -2.585  11.897  18.200  0.00  0.00    +0.000 A 
ATOM     11  O   UNL     1      -1.832  11.594  17.287  0.00  0.00    +0.000 OA
ATOM     12  C   UNL     1      -6.333  11.667  18.679  0.00  0.00    +0.000 C 
ATOM     13  C   UNL     1      -7.183  11.417  19.928  0.00  0.00    +0.000 C 
ATOM     14  C   UNL     1      -6.922  12.457  21.009  0.00  0.00    +0.000 C 
ATOM     15  C   UNL     1      -5.453  12.495  21.351  0.00  0.00    +0.000 C 
ATOM     16  O   UNL     1      -5.054  12.661  22.501  0.00  0.00    +0.000 OA
ATOM     17  H   UNL     1      -4.233  11.455  17.101  0.00  0.00    +0.000 HD
ENDBRANCH   3   5
BRANCH   2  18
ATOM     18  C   UNL     1      -0.173  10.599  21.016  0.00  0.00    +0.000 C 
BRANCH  18  19
ATOM     19  C   UNL     1       0.855   9.503  20.711  0.00  0.00    +0.000 C 
ATOM     20  C   UNL     1       0.383   8.152  21.255  0.00  0.00    +0.000 C 
ATOM     21  O   UNL     1       1.394   7.148  21.081  0.00  0.00    +0.000 OA
ATOM     22  C   UNL     1       2.041   7.266  19.877  0.00  0.00    +0.000 A 
ATOM     23  C   UNL     1       2.938   6.258  19.543  0.00  0.00    +0.000 A 
ATOM     24  C   UNL     1       3.642   6.328  18.339  0.00  0.00    +0.000 A 
ATOM     25  C   UNL     1       3.446   7.404  17.471  0.00  0.00    +0.000 A 
ATOM     26  C   UNL     1       2.547   8.414  17.804  0.00  0.00    +0.000 A 
ATOM     27  C   UNL     1       1.860   8.350  19.010  0.00  0.00    +0.000 A 
ATOM     28  O   UNL     1       1.024   9.396  19.293  0.00  0.00    +0.000 OA
ENDBRANCH  18  19
ENDBRANCH   2  18
TORSDOF 3
ENDMDL
MODEL 8
REMARK VINA RESULT:      -7.7      7.489     10.101
REMARK  Name = 
REMARK  4 active torsions:
REMARK  status: ('A' for Active; 'I' for Inactive)
REMARK    1  A    between atoms: C_1  and  N_2
REMARK    2  A    between atoms: N_2  and  C_3
REMARK    3  A    between atoms: C_3  and  C_4
REMARK    4  A    between atoms: C_14  and  C_16
REMARK                            x       y       z     vdW  Elec       q    Type
REMARK                         _______ _______ _______ _____ _____    ______ ____
ROOT
ATOM      1  C   UNL     1       0.593   8.663  21.558  0.00  0.00    +0.000 C 
ATOM      2  N   UNL     1      -0.043   9.969  21.415  0.00  0.00    +0.000 N 
ATOM      3  C   UNL     1      -0.387  10.591  22.631  0.00  0.00    +0.000 C 
ATOM      4  O   UNL     1      -0.121  10.049  23.706  0.00  0.00    +0.000 OA
ENDROOT
BRANCH   3   5
ATOM      5  C   UNL     1      -1.102  11.909  22.648  0.00  0.00    +0.000 A 
ATOM      6  C   UNL     1      -2.361  12.020  23.104  0.00  0.00    +0.000 A 
ATOM      7  C   UNL     1      -3.088  13.259  23.128  0.00  0.00    +0.000 A 
ATOM      8  C   UNL     1      -2.433  14.414  22.947  0.00  0.00    +0.000 A 
ATOM      9  N   UNL     1      -1.098  14.366  22.611  0.00  0.00    +0.000 N 
ATOM     10  C   UNL     1      -0.380  13.205  22.372  0.00  0.00    +0.000 A 
ATOM     11  O   UNL     1       0.773  13.282  21.972  0.00  0.00    +0.000 OA
ATOM     12  C   UNL     1      -3.087  15.766  23.038  0.00  0.00    +0.000 C 
ATOM     13  C   UNL     1      -4.610  15.692  22.897  0.00  0.00    +0.000 C 
ATOM     14  C   UNL     1      -5.204  14.573  23.741  0.00  0.00    +0.000 C 
ATOM     15  C   UNL     1      -4.561  13.255  23.383  0.00  0.00    +0.000 C 
ATOM     16  O   UNL     1      -5.200  12.206  23.344  0.00  0.00    +0.000 OA
ATOM     17  H   UNL     1      -0.576  15.224  22.451  0.00  0.00    +0.000 HD
ENDBRANCH   3   5
BRANCH   2  18
ATOM     18  C   UNL     1      -0.013  10.639  20.091  0.00  0.00    +0.000 C 
BRANCH  18  19
ATOM     19  C   UNL     1      -1.293  10.687  19.248  0.00  0.00    +0.000 C 
ATOM     20  C   UNL     1      -1.925  12.080  19.304  0.00  0.00    +0.000 C 
ATOM     21  O   UNL     1      -3.185  12.098  18.618  0.00  0.00    +0.000 OA
ATOM     22  C   UNL     1      -3.162  11.350  17.468  0.00  0.00    +0.000 A 
ATOM     23  C   UNL     1      -4.285  11.416  16.651  0.00  0.00    +0.000 A 
ATOM     24  C   UNL     1      -4.331  10.665  15.475  0.00  0.00    +0.000 A 
ATOM     25  C   UNL     1      -3.254   9.852  15.117  0.00  0.00    +0.000 A 
ATOM     26  C   UNL     1      -2.127   9.786  15.933  0.00  0.00    +0.000 A 
ATOM     27  C   UNL     1      -2.092  10.522  17.112  0.00  0.00    +0.000 A 
ATOM     28  O   UNL     1      -0.973  10.378  17.887  0.00  0.00    +0.000 OA
ENDBRANCH  18  19
ENDBRANCH   2  18
TORSDOF 3
ENDMDL
MODEL 9
REMARK VINA RESULT:      -7.7      2.656      7.486
REMARK  Name = 
REMARK  4 active torsions:
REMARK  status: ('A' for Active; 'I' for Inactive)
REMARK    1  A    between atoms: C_1  and  N_2
REMARK    2  A    between atoms: N_2  and  C_3
REMARK    3  A    between atoms: C_3  and  C_4
REMARK    4  A    between atoms: C_14  and  C_16
REMARK                            x       y       z     vdW  Elec       q    Type
REMARK                         _______ _______ _______ _____ _____    ______ ____
ROOT
ATOM      1  C   UNL     1       7.505   5.958  19.626  0.00  0.00    +0.000 C 
ATOM      2  N   UNL     1       6.839   5.743  18.345  0.00  0.00    +0.000 N 
ATOM      3  C   UNL     1       7.407   4.727  17.552  0.00  0.00    +0.000 C 
ATOM      4  O   UNL     1       8.370   4.077  17.965  0.00  0.00    +0.000 OA
ENDROOT
BRANCH   3   5
ATOM      5  C   UNL     1       6.872   4.428  16.183  0.00  0.00    +0.000 A 
ATOM      6  C   UNL     1       7.541   4.786  15.073  0.00  0.00    +0.000 A 
ATOM      7  C   UNL     1       7.061   4.531  13.743  0.00  0.00    +0.000 A 
ATOM      8  C   UNL     1       6.047   3.673  13.559  0.00  0.00    +0.000 A 
ATOM      9  N   UNL     1       5.408   3.163  14.667  0.00  0.00    +0.000 N 
ATOM     10  C   UNL     1       5.684   3.520  15.978  0.00  0.00    +0.000 A 
ATOM     11  O   UNL     1       4.982   3.087  16.880  0.00  0.00    +0.000 OA
ATOM     12  C   UNL     1       5.529   3.275  12.204  0.00  0.00    +0.000 C 
ATOM     13  C   UNL     1       5.940   4.260  11.105  0.00  0.00    +0.000 C 
ATOM     14  C   UNL     1       7.411   4.640  11.205  0.00  0.00    +0.000 C 
ATOM     15  C   UNL     1       7.712   5.197  12.574  0.00  0.00    +0.000 C 
ATOM     16  O   UNL     1       8.493   6.131  12.742  0.00  0.00    +0.000 OA
ATOM     17  H   UNL     1       4.626   2.523  14.562  0.00  0.00    +0.000 HD
ENDBRANCH   3   5
BRANCH   2  18
ATOM     18  C   UNL     1       5.513   6.367  18.114  0.00  0.00    +0.000 C 
BRANCH  18  19
ATOM     19  C   UNL     1       4.300   5.858  18.900  0.00  0.00    +0.000 C 
ATOM     20  C   UNL     1       3.031   5.939  18.047  0.00  0.00    +0.000 C 
ATOM     21  O   UNL     1       1.874   5.579  18.817  0.00  0.00    +0.000 OA
ATOM     22  C   UNL     1       2.120   4.530  19.665  0.00  0.00    +0.000 A 
ATOM     23  C   UNL     1       1.029   4.005  20.351  0.00  0.00    +0.000 A 
ATOM     24  C   UNL     1       1.216   2.947  21.243  0.00  0.00    +0.000 A 
ATOM     25  C   UNL     1       2.490   2.414  21.446  0.00  0.00    +0.000 A 
ATOM     26  C   UNL     1       3.583   2.937  20.758  0.00  0.00    +0.000 A 
ATOM     27  C   UNL     1       3.397   4.001  19.883  0.00  0.00    +0.000 A 
ATOM     28  O   UNL     1       4.519   4.493  19.274  0.00  0.00    +0.000 OA
ENDBRANCH  18  19
ENDBRANCH   2  18
TORSDOF 3
ENDMDL
