MODEL 1
REMARK VINA RESULT:      -9.8      0.000      0.000
REMARK  Name = 
REMARK  5 active torsions:
REMARK  status: ('A' for Active; 'I' for Inactive)
REMARK    1  A    between atoms: C_2  and  C_3
REMARK    2  A    between atoms: C_4  and  C_5
REMARK    3  A    between atoms: N_11  and  C_12
REMARK    4  A    between atoms: C_16  and  C_17
REMARK    5  A    between atoms: C_23  and  C_24
REMARK                            x       y       z     vdW  Elec       q    Type
REMARK                         _______ _______ _______ _____ _____    ______ ____
ROOT
ATOM      1  C   UNL     1       6.789   5.982  16.386  0.00  0.00    +0.000 A 
ATOM      2  C   UNL     1       7.122   5.077  15.389  0.00  0.00    +0.000 A 
ATOM      3  C   UNL     1       6.377   3.894  15.226  0.00  0.00    +0.000 A 
ATOM      4  C   UNL     1       5.296   3.578  16.070  0.00  0.00    +0.000 A 
ATOM      5  C   UNL     1       4.932   4.453  17.090  0.00  0.00    +0.000 A 
ATOM      6  C   UNL     1       5.689   5.666  17.204  0.00  0.00    +0.000 A 
ENDROOT
BRANCH   5   7
ATOM      7  C   UNL     1       3.816   4.213  18.055  0.00  0.00    +0.000 A 
ATOM      8  N   UNL     1       3.514   2.909  18.235  0.00  0.00    +0.000 NA
ATOM      9  N   UNL     1       2.524   2.882  19.105  0.00  0.00    +0.000 N 
ATOM     10  C   UNL     1       2.136   4.099  19.564  0.00  0.00    +0.000 A 
ATOM     11  C   UNL     1       1.156   4.385  20.511  0.00  0.00    +0.000 A 
ATOM     12  C   UNL     1       0.936   5.715  20.819  0.00  0.00    +0.000 A 
ATOM     13  C   UNL     1       1.656   6.742  20.195  0.00  0.00    +0.000 A 
ATOM     14  C   UNL     1       2.636   6.417  19.200  0.00  0.00    +0.000 A 
ATOM     15  C   UNL     1       2.920   5.042  18.888  0.00  0.00    +0.000 A 
ATOM     16  H   UNL     1       2.138   1.984  19.363  0.00  0.00    +0.000 HD
BRANCH  13  17
ATOM     17  C   UNL     1       1.372   8.101  20.686  0.00  0.00    +0.000 A 
ATOM     18  N   UNL     1       1.160   9.140  19.793  0.00  0.00    +0.000 NA
ATOM     19  C   UNL     1       0.916  10.179  20.542  0.00  0.00    +0.000 A 
ATOM     20  N   UNL     1       1.004   9.808  21.842  0.00  0.00    +0.000 N 
ATOM     21  N   UNL     1       1.284   8.491  21.967  0.00  0.00    +0.000 NA
ATOM     22  H   UNL     1       0.875  10.378  22.667  0.00  0.00    +0.000 HD
ENDBRANCH  13  17
ENDBRANCH   5   7
BRANCH   1  25
ATOM     23  O   UNL     1       8.055   6.897  18.926  0.00  0.00    +0.000 OA
ATOM     24  C   UNL     1       8.004   7.573  17.905  0.00  0.00    +0.000 C 
ATOM     25  N   UNL     1       7.536   7.162  16.666  0.00  0.00    +0.000 N 
ATOM     26  H   UNL     1       7.696   7.774  15.876  0.00  0.00    +0.000 HD
BRANCH  24  27
ATOM     27  C   UNL     1       8.460   9.001  17.920  0.00  0.00    +0.000 C 
ATOM     28  C   UNL     1       9.086   9.504  19.001  0.00  0.00    +0.000 C 
BRANCH  28  29
ATOM     29  C   UNL     1       9.494  10.914  19.164  0.00  0.00    +0.000 A 
ATOM     30  C   UNL     1       9.809  11.398  20.444  0.00  0.00    +0.000 A 
ATOM     31  C   UNL     1      10.182  12.735  20.636  0.00  0.00    +0.000 A 
ATOM     32  C   UNL     1      10.259  13.600  19.548  0.00  0.00    +0.000 A 
ATOM     33  C   UNL     1       9.984  13.126  18.268  0.00  0.00    +0.000 A 
ATOM     34  C   UNL     1       9.614  11.790  18.076  0.00  0.00    +0.000 A 
ENDBRANCH  28  29
ENDBRANCH  24  27
ENDBRANCH   1  25
TORSDOF 5
ENDMDL
MODEL 2
REMARK VINA RESULT:      -9.7      0.385      1.101
REMARK  Name = 
REMARK  5 active torsions:
REMARK  status: ('A' for Active; 'I' for Inactive)
REMARK    1  A    between atoms: C_2  and  C_3
REMARK    2  A    between atoms: C_4  and  C_5
REMARK    3  A    between atoms: N_11  and  C_12
REMARK    4  A    between atoms: C_16  and  C_17
REMARK    5  A    between atoms: C_23  and  C_24
REMARK                            x       y       z     vdW  Elec       q    Type
REMARK                         _______ _______ _______ _____ _____    ______ ____
ROOT
ATOM      1  C   UNL     1       6.768   6.102  16.434  0.00  0.00    +0.000 A 
ATOM      2  C   UNL     1       7.139   5.193  15.454  0.00  0.00    +0.000 A 
ATOM      3  C   UNL     1       6.432   3.986  15.301  0.00  0.00    +0.000 A 
ATOM      4  C   UNL     1       5.352   3.649  16.138  0.00  0.00    +0.000 A 
ATOM      5  C   UNL     1       4.951   4.526  17.142  0.00  0.00    +0.000 A 
ATOM      6  C   UNL     1       5.670   5.764  17.246  0.00  0.00    +0.000 A 
ENDROOT
BRANCH   5   7
ATOM      7  C   UNL     1       3.833   4.266  18.099  0.00  0.00    +0.000 A 
ATOM      8  N   UNL     1       3.557   2.957  18.281  0.00  0.00    +0.000 NA
ATOM      9  N   UNL     1       2.561   2.912  19.144  0.00  0.00    +0.000 N 
ATOM     10  C   UNL     1       2.144   4.122  19.595  0.00  0.00    +0.000 A 
ATOM     11  C   UNL     1       1.151   4.390  20.534  0.00  0.00    +0.000 A 
ATOM     12  C   UNL     1       0.900   5.717  20.835  0.00  0.00    +0.000 A 
ATOM     13  C   UNL     1       1.603   6.756  20.213  0.00  0.00    +0.000 A 
ATOM     14  C   UNL     1       2.597   6.449  19.227  0.00  0.00    +0.000 A 
ATOM     15  C   UNL     1       2.914   5.079  18.922  0.00  0.00    +0.000 A 
ATOM     16  H   UNL     1       2.193   2.006  19.402  0.00  0.00    +0.000 HD
BRANCH  13  17
ATOM     17  C   UNL     1       1.287   8.110  20.697  0.00  0.00    +0.000 A 
ATOM     18  N   UNL     1       1.132   8.352  22.054  0.00  0.00    +0.000 NA
ATOM     19  C   UNL     1       0.887   9.631  22.139  0.00  0.00    +0.000 A 
ATOM     20  N   UNL     1       0.860  10.152  20.889  0.00  0.00    +0.000 N 
ATOM     21  N   UNL     1       1.118   9.213  19.951  0.00  0.00    +0.000 NA
ATOM     22  H   UNL     1       0.691  11.110  20.612  0.00  0.00    +0.000 HD
ENDBRANCH  13  17
ENDBRANCH   5   7
BRANCH   1  25
ATOM     23  O   UNL     1       8.201   6.977  18.900  0.00  0.00    +0.000 OA
ATOM     24  C   UNL     1       8.028   7.691  17.919  0.00  0.00    +0.000 C 
ATOM     25  N   UNL     1       7.476   7.307  16.705  0.00  0.00    +0.000 N 
ATOM     26  H   UNL     1       7.536   7.960  15.933  0.00  0.00    +0.000 HD
BRANCH  24  27
ATOM     27  C   UNL     1       8.411   9.140  17.961  0.00  0.00    +0.000 C 
ATOM     28  C   UNL     1       9.179   9.612  18.962  0.00  0.00    +0.000 C 
BRANCH  28  29
ATOM     29  C   UNL     1       9.540  11.030  19.157  0.00  0.00    +0.000 A 
ATOM     30  C   UNL     1       9.356  11.940  18.104  0.00  0.00    +0.000 A 
ATOM     31  C   UNL     1       9.705  13.289  18.249  0.00  0.00    +0.000 A 
ATOM     32  C   UNL     1      10.229  13.747  19.454  0.00  0.00    +0.000 A 
ATOM     33  C   UNL     1      10.385  12.865  20.519  0.00  0.00    +0.000 A 
ATOM     34  C   UNL     1      10.034  11.518  20.374  0.00  0.00    +0.000 A 
ENDBRANCH  28  29
ENDBRANCH  24  27
ENDBRANCH   1  25
TORSDOF 5
ENDMDL
MODEL 3
REMARK VINA RESULT:      -9.3      1.928      3.081
REMARK  Name = 
REMARK  5 active torsions:
REMARK  status: ('A' for Active; 'I' for Inactive)
REMARK    1  A    between atoms: C_2  and  C_3
REMARK    2  A    between atoms: C_4  and  C_5
REMARK    3  A    between atoms: N_11  and  C_12
REMARK    4  A    between atoms: C_16  and  C_17
REMARK    5  A    between atoms: C_23  and  C_24
REMARK                            x       y       z     vdW  Elec       q    Type
REMARK                         _______ _______ _______ _____ _____    ______ ____
ROOT
ATOM      1  C   UNL     1       5.628   6.712  17.052  0.00  0.00    +0.000 A 
ATOM      2  C   UNL     1       5.507   5.472  16.443  0.00  0.00    +0.000 A 
ATOM      3  C   UNL     1       4.410   4.641  16.738  0.00  0.00    +0.000 A 
ATOM      4  C   UNL     1       3.421   5.021  17.664  0.00  0.00    +0.000 A 
ATOM      5  C   UNL     1       3.508   6.252  18.307  0.00  0.00    +0.000 A 
ATOM      6  C   UNL     1       4.619   7.090  17.956  0.00  0.00    +0.000 A 
ENDROOT
BRANCH   5   7
ATOM      7  C   UNL     1       2.528   6.752  19.320  0.00  0.00    +0.000 A 
ATOM      8  N   UNL     1       2.389   5.947  20.395  0.00  0.00    +0.000 NA
ATOM      9  N   UNL     1       1.502   6.532  21.175  0.00  0.00    +0.000 N 
ATOM     10  C   UNL     1       1.032   7.719  20.713  0.00  0.00    +0.000 A 
ATOM     11  C   UNL     1       0.129   8.580  21.329  0.00  0.00    +0.000 A 
ATOM     12  C   UNL     1      -0.203   9.743  20.656  0.00  0.00    +0.000 A 
ATOM     13  C   UNL     1       0.334  10.041  19.397  0.00  0.00    +0.000 A 
ATOM     14  C   UNL     1       1.237   9.118  18.775  0.00  0.00    +0.000 A 
ATOM     15  C   UNL     1       1.637   7.921  19.466  0.00  0.00    +0.000 A 
ATOM     16  H   UNL     1       1.245   6.070  22.037  0.00  0.00    +0.000 HD
BRANCH  13  17
ATOM     17  C   UNL     1      -0.045  11.352  18.844  0.00  0.00    +0.000 A 
ATOM     18  N   UNL     1       0.732  12.472  19.098  0.00  0.00    +0.000 NA
ATOM     19  C   UNL     1       0.142  13.441  18.455  0.00  0.00    +0.000 A 
ATOM     20  N   UNL     1      -0.969  12.950  17.855  0.00  0.00    +0.000 N 
ATOM     21  N   UNL     1      -1.111  11.624  18.077  0.00  0.00    +0.000 NA
ATOM     22  H   UNL     1      -1.645  13.443  17.286  0.00  0.00    +0.000 HD
ENDBRANCH  13  17
ENDBRANCH   5   7
BRANCH   1  25
ATOM     23  O   UNL     1       8.087   7.058  18.705  0.00  0.00    +0.000 OA
ATOM     24  C   UNL     1       7.806   7.762  17.742  0.00  0.00    +0.000 C 
ATOM     25  N   UNL     1       6.743   7.579  16.868  0.00  0.00    +0.000 N 
ATOM     26  H   UNL     1       6.722   8.145  16.029  0.00  0.00    +0.000 HD
BRANCH  24  27
ATOM     27  C   UNL     1       8.634   8.969  17.419  0.00  0.00    +0.000 C 
ATOM     28  C   UNL     1       8.839   9.921  18.350  0.00  0.00    +0.000 C 
BRANCH  28  29
ATOM     29  C   UNL     1       9.556  11.191  18.118  0.00  0.00    +0.000 A 
ATOM     30  C   UNL     1       8.825  12.382  17.979  0.00  0.00    +0.000 A 
ATOM     31  C   UNL     1       9.473  13.600  17.740  0.00  0.00    +0.000 A 
ATOM     32  C   UNL     1      10.861  13.645  17.651  0.00  0.00    +0.000 A 
ATOM     33  C   UNL     1      11.603  12.480  17.821  0.00  0.00    +0.000 A 
ATOM     34  C   UNL     1      10.955  11.263  18.062  0.00  0.00    +0.000 A 
ENDBRANCH  28  29
ENDBRANCH  24  27
ENDBRANCH   1  25
TORSDOF 5
ENDMDL
MODEL 4
REMARK VINA RESULT:      -9.2      5.464      9.998
REMARK  Name = 
REMARK  5 active torsions:
REMARK  status: ('A' for Active; 'I' for Inactive)
REMARK    1  A    between atoms: C_2  and  C_3
REMARK    2  A    between atoms: C_4  and  C_5
REMARK    3  A    between atoms: N_11  and  C_12
REMARK    4  A    between atoms: C_16  and  C_17
REMARK    5  A    between atoms: C_23  and  C_24
REMARK                            x       y       z     vdW  Elec       q    Type
REMARK                         _______ _______ _______ _____ _____    ______ ____
ROOT
ATOM      1  C   UNL     1       0.565  10.512  18.951  0.00  0.00    +0.000 A 
ATOM      2  C   UNL     1       1.242  11.721  18.891  0.00  0.00    +0.000 A 
ATOM      3  C   UNL     1       0.555  12.902  18.553  0.00  0.00    +0.000 A 
ATOM      4  C   UNL     1      -0.818  12.899  18.247  0.00  0.00    +0.000 A 
ATOM      5  C   UNL     1      -1.535  11.707  18.285  0.00  0.00    +0.000 A 
ATOM      6  C   UNL     1      -0.813  10.528  18.669  0.00  0.00    +0.000 A 
ENDROOT
BRANCH   5   7
ATOM      7  C   UNL     1      -2.990  11.581  17.963  0.00  0.00    +0.000 A 
ATOM      8  N   UNL     1      -3.240  11.131  16.714  0.00  0.00    +0.000 NA
ATOM      9  N   UNL     1      -4.553  11.079  16.603  0.00  0.00    +0.000 N 
ATOM     10  C   UNL     1      -5.233  11.445  17.719  0.00  0.00    +0.000 A 
ATOM     11  C   UNL     1      -6.611  11.452  17.917  0.00  0.00    +0.000 A 
ATOM     12  C   UNL     1      -7.075  11.871  19.151  0.00  0.00    +0.000 A 
ATOM     13  C   UNL     1      -6.200  12.287  20.162  0.00  0.00    +0.000 A 
ATOM     14  C   UNL     1      -4.787  12.298  19.916  0.00  0.00    +0.000 A 
ATOM     15  C   UNL     1      -4.269  11.828  18.659  0.00  0.00    +0.000 A 
ATOM     16  H   UNL     1      -4.946  10.778  15.722  0.00  0.00    +0.000 HD
BRANCH  13  17
ATOM     17  C   UNL     1      -6.834  12.623  21.448  0.00  0.00    +0.000 A 
ATOM     18  N   UNL     1      -7.289  11.619  22.289  0.00  0.00    +0.000 NA
ATOM     19  C   UNL     1      -7.763  12.245  23.331  0.00  0.00    +0.000 A 
ATOM     20  N   UNL     1      -7.637  13.579  23.130  0.00  0.00    +0.000 N 
ATOM     21  N   UNL     1      -7.043  13.851  21.946  0.00  0.00    +0.000 NA
ATOM     22  H   UNL     1      -7.912  14.335  23.743  0.00  0.00    +0.000 HD
ENDBRANCH  13  17
ENDBRANCH   5   7
BRANCH   1  25
ATOM     23  O   UNL     1       2.452   8.930  17.267  0.00  0.00    +0.000 OA
ATOM     24  C   UNL     1       1.983   8.533  18.327  0.00  0.00    +0.000 C 
ATOM     25  N   UNL     1       1.198   9.263  19.208  0.00  0.00    +0.000 N 
ATOM     26  H   UNL     1       1.011   8.858  20.118  0.00  0.00    +0.000 HD
BRANCH  24  27
ATOM     27  C   UNL     1       2.224   7.124  18.781  0.00  0.00    +0.000 C 
ATOM     28  C   UNL     1       1.932   6.089  17.968  0.00  0.00    +0.000 C 
BRANCH  28  29
ATOM     29  C   UNL     1       2.040   4.665  18.340  0.00  0.00    +0.000 A 
ATOM     30  C   UNL     1       2.671   3.767  17.463  0.00  0.00    +0.000 A 
ATOM     31  C   UNL     1       2.774   2.406  17.777  0.00  0.00    +0.000 A 
ATOM     32  C   UNL     1       2.258   1.928  18.978  0.00  0.00    +0.000 A 
ATOM     33  C   UNL     1       1.660   2.810  19.874  0.00  0.00    +0.000 A 
ATOM     34  C   UNL     1       1.560   4.170  19.561  0.00  0.00    +0.000 A 
ENDBRANCH  28  29
ENDBRANCH  24  27
ENDBRANCH   1  25
TORSDOF 5
ENDMDL
MODEL 5
REMARK VINA RESULT:      -9.0      5.302      9.886
REMARK  Name = 
REMARK  5 active torsions:
REMARK  status: ('A' for Active; 'I' for Inactive)
REMARK    1  A    between atoms: C_2  and  C_3
REMARK    2  A    between atoms: C_4  and  C_5
REMARK    3  A    between atoms: N_11  and  C_12
REMARK    4  A    between atoms: C_16  and  C_17
REMARK    5  A    between atoms: C_23  and  C_24
REMARK                            x       y       z     vdW  Elec       q    Type
REMARK                         _______ _______ _______ _____ _____    ______ ____
ROOT
ATOM      1  C   UNL     1       0.786  10.490  18.955  0.00  0.00    +0.000 A 
ATOM      2  C   UNL     1       1.505  11.663  18.780  0.00  0.00    +0.000 A 
ATOM      3  C   UNL     1       0.836  12.867  18.492  0.00  0.00    +0.000 A 
ATOM      4  C   UNL     1      -0.563  12.923  18.350  0.00  0.00    +0.000 A 
ATOM      5  C   UNL     1      -1.323  11.767  18.507  0.00  0.00    +0.000 A 
ATOM      6  C   UNL     1      -0.613  10.565  18.837  0.00  0.00    +0.000 A 
ENDROOT
BRANCH   5   7
ATOM      7  C   UNL     1      -2.810  11.703  18.362  0.00  0.00    +0.000 A 
ATOM      8  N   UNL     1      -3.227  11.269  17.154  0.00  0.00    +0.000 NA
ATOM      9  N   UNL     1      -4.544  11.273  17.202  0.00  0.00    +0.000 N 
ATOM     10  C   UNL     1      -5.070  11.662  18.391  0.00  0.00    +0.000 A 
ATOM     11  C   UNL     1      -6.412  11.726  18.753  0.00  0.00    +0.000 A 
ATOM     12  C   UNL     1      -6.707  12.159  20.034  0.00  0.00    +0.000 A 
ATOM     13  C   UNL     1      -5.699  12.534  20.932  0.00  0.00    +0.000 A 
ATOM     14  C   UNL     1      -4.327  12.487  20.517  0.00  0.00    +0.000 A 
ATOM     15  C   UNL     1      -3.984  12.001  19.208  0.00  0.00    +0.000 A 
ATOM     16  H   UNL     1      -5.053  10.991  16.374  0.00  0.00    +0.000 HD
BRANCH  13  17
ATOM     17  C   UNL     1      -6.159  12.891  22.284  0.00  0.00    +0.000 A 
ATOM     18  N   UNL     1      -7.262  13.712  22.456  0.00  0.00    +0.000 NA
ATOM     19  C   UNL     1      -7.412  13.806  23.748  0.00  0.00    +0.000 A 
ATOM     20  N   UNL     1      -6.425  13.099  24.351  0.00  0.00    +0.000 N 
ATOM     21  N   UNL     1      -5.617  12.499  23.448  0.00  0.00    +0.000 NA
ATOM     22  H   UNL     1      -6.256  12.976  25.341  0.00  0.00    +0.000 HD
ENDBRANCH  13  17
ENDBRANCH   5   7
BRANCH   1  25
ATOM     23  O   UNL     1       2.549   8.868  17.177  0.00  0.00    +0.000 OA
ATOM     24  C   UNL     1       2.113   8.473  18.252  0.00  0.00    +0.000 C 
ATOM     25  N   UNL     1       1.389   9.218  19.173  0.00  0.00    +0.000 N 
ATOM     26  H   UNL     1       1.227   8.809  20.085  0.00  0.00    +0.000 HD
BRANCH  24  27
ATOM     27  C   UNL     1       2.327   7.052  18.681  0.00  0.00    +0.000 C 
ATOM     28  C   UNL     1       1.847   6.038  17.935  0.00  0.00    +0.000 C 
BRANCH  28  29
ATOM     29  C   UNL     1       1.916   4.610  18.303  0.00  0.00    +0.000 A 
ATOM     30  C   UNL     1       1.309   4.173  19.492  0.00  0.00    +0.000 A 
ATOM     31  C   UNL     1       1.371   2.829  19.880  0.00  0.00    +0.000 A 
ATOM     32  C   UNL     1       2.030   1.902  19.077  0.00  0.00    +0.000 A 
ATOM     33  C   UNL     1       2.607   2.313  17.878  0.00  0.00    +0.000 A 
ATOM     34  C   UNL     1       2.542   3.655  17.490  0.00  0.00    +0.000 A 
ENDBRANCH  28  29
ENDBRANCH  24  27
ENDBRANCH   1  25
TORSDOF 5
ENDMDL
MODEL 6
REMARK VINA RESULT:      -9.0      1.636      2.428
REMARK  Name = 
REMARK  5 active torsions:
REMARK  status: ('A' for Active; 'I' for Inactive)
REMARK    1  A    between atoms: C_2  and  C_3
REMARK    2  A    between atoms: C_4  and  C_5
REMARK    3  A    between atoms: N_11  and  C_12
REMARK    4  A    between atoms: C_16  and  C_17
REMARK    5  A    between atoms: C_23  and  C_24
REMARK                            x       y       z     vdW  Elec       q    Type
REMARK                         _______ _______ _______ _____ _____    ______ ____
ROOT
ATOM      1  C   UNL     1       5.795   6.422  16.902  0.00  0.00    +0.000 A 
ATOM      2  C   UNL     1       5.750   5.230  16.194  0.00  0.00    +0.000 A 
ATOM      3  C   UNL     1       4.718   4.303  16.431  0.00  0.00    +0.000 A 
ATOM      4  C   UNL     1       3.720   4.536  17.396  0.00  0.00    +0.000 A 
ATOM      5  C   UNL     1       3.732   5.715  18.136  0.00  0.00    +0.000 A 
ATOM      6  C   UNL     1       4.777   6.654  17.843  0.00  0.00    +0.000 A 
ENDROOT
BRANCH   5   7
ATOM      7  C   UNL     1       2.736   6.060  19.197  0.00  0.00    +0.000 A 
ATOM      8  N   UNL     1       2.379   5.018  19.977  0.00  0.00    +0.000 NA
ATOM      9  N   UNL     1       1.510   5.496  20.846  0.00  0.00    +0.000 N 
ATOM     10  C   UNL     1       1.261   6.825  20.731  0.00  0.00    +0.000 A 
ATOM     11  C   UNL     1       0.432   7.613  21.524  0.00  0.00    +0.000 A 
ATOM     12  C   UNL     1       0.336   8.956  21.208  0.00  0.00    +0.000 A 
ATOM     13  C   UNL     1       1.033   9.507  20.125  0.00  0.00    +0.000 A 
ATOM     14  C   UNL     1       1.854   8.662  19.307  0.00  0.00    +0.000 A 
ATOM     15  C   UNL     1       2.010   7.270  19.634  0.00  0.00    +0.000 A 
ATOM     16  H   UNL     1       1.106   4.857  21.518  0.00  0.00    +0.000 HD
BRANCH  13  17
ATOM     17  C   UNL     1       0.900  10.964  19.964  0.00  0.00    +0.000 A 
ATOM     18  N   UNL     1       1.156  11.814  21.029  0.00  0.00    +0.000 NA
ATOM     19  C   UNL     1       0.974  13.014  20.552  0.00  0.00    +0.000 A 
ATOM     20  N   UNL     1       0.590  12.911  19.256  0.00  0.00    +0.000 N 
ATOM     21  N   UNL     1       0.542  11.622  18.851  0.00  0.00    +0.000 NA
ATOM     22  H   UNL     1       0.366  13.654  18.607  0.00  0.00    +0.000 HD
ENDBRANCH  13  17
ENDBRANCH   5   7
BRANCH   1  25
ATOM     23  O   UNL     1       8.070   7.028  18.734  0.00  0.00    +0.000 OA
ATOM     24  C   UNL     1       7.811   7.676  17.727  0.00  0.00    +0.000 C 
ATOM     25  N   UNL     1       6.845   7.377  16.778  0.00  0.00    +0.000 N 
ATOM     26  H   UNL     1       6.845   7.915  15.920  0.00  0.00    +0.000 HD
BRANCH  24  27
ATOM     27  C   UNL     1       8.559   8.942  17.429  0.00  0.00    +0.000 C 
ATOM     28  C   UNL     1       8.726   9.874  18.388  0.00  0.00    +0.000 C 
BRANCH  28  29
ATOM     29  C   UNL     1       9.361  11.191  18.185  0.00  0.00    +0.000 A 
ATOM     30  C   UNL     1      10.761  11.289  18.174  0.00  0.00    +0.000 A 
ATOM     31  C   UNL     1      11.395  12.526  18.003  0.00  0.00    +0.000 A 
ATOM     32  C   UNL     1      10.636  13.680  17.827  0.00  0.00    +0.000 A 
ATOM     33  C   UNL     1       9.247  13.595  17.800  0.00  0.00    +0.000 A 
ATOM     34  C   UNL     1       8.614  12.358  17.969  0.00  0.00    +0.000 A 
ENDBRANCH  28  29
ENDBRANCH  24  27
ENDBRANCH   1  25
TORSDOF 5
ENDMDL
MODEL 7
REMARK VINA RESULT:      -9.0      4.620      9.072
REMARK  Name = 
REMARK  5 active torsions:
REMARK  status: ('A' for Active; 'I' for Inactive)
REMARK    1  A    between atoms: C_2  and  C_3
REMARK    2  A    between atoms: C_4  and  C_5
REMARK    3  A    between atoms: N_11  and  C_12
REMARK    4  A    between atoms: C_16  and  C_17
REMARK    5  A    between atoms: C_23  and  C_24
REMARK                            x       y       z     vdW  Elec       q    Type
REMARK                         _______ _______ _______ _____ _____    ______ ____
ROOT
ATOM      1  C   UNL     1       0.517  10.079  20.013  0.00  0.00    +0.000 A 
ATOM      2  C   UNL     1       0.308  10.581  18.737  0.00  0.00    +0.000 A 
ATOM      3  C   UNL     1       0.814   9.899  17.615  0.00  0.00    +0.000 A 
ATOM      4  C   UNL     1       1.559   8.712  17.743  0.00  0.00    +0.000 A 
ATOM      5  C   UNL     1       1.802   8.178  19.005  0.00  0.00    +0.000 A 
ATOM      6  C   UNL     1       1.240   8.878  20.124  0.00  0.00    +0.000 A 
ENDROOT
BRANCH   5   7
ATOM      7  C   UNL     1       2.593   6.935  19.262  0.00  0.00    +0.000 A 
ATOM      8  N   UNL     1       2.265   6.301  20.408  0.00  0.00    +0.000 NA
ATOM      9  N   UNL     1       3.048   5.242  20.474  0.00  0.00    +0.000 N 
ATOM     10  C   UNL     1       3.888   5.089  19.419  0.00  0.00    +0.000 A 
ATOM     11  C   UNL     1       4.793   4.056  19.188  0.00  0.00    +0.000 A 
ATOM     12  C   UNL     1       5.549   4.118  18.032  0.00  0.00    +0.000 A 
ATOM     13  C   UNL     1       5.426   5.183  17.130  0.00  0.00    +0.000 A 
ATOM     14  C   UNL     1       4.508   6.248  17.413  0.00  0.00    +0.000 A 
ATOM     15  C   UNL     1       3.676   6.193  18.584  0.00  0.00    +0.000 A 
ATOM     16  H   UNL     1       2.967   4.637  21.280  0.00  0.00    +0.000 HD
BRANCH  13  17
ATOM     17  C   UNL     1       6.233   5.069  15.904  0.00  0.00    +0.000 A 
ATOM     18  N   UNL     1       5.791   4.295  14.842  0.00  0.00    +0.000 NA
ATOM     19  C   UNL     1       6.709   4.428  13.926  0.00  0.00    +0.000 A 
ATOM     20  N   UNL     1       7.694   5.223  14.411  0.00  0.00    +0.000 N 
ATOM     21  N   UNL     1       7.417   5.653  15.662  0.00  0.00    +0.000 NA
ATOM     22  H   UNL     1       8.547   5.515  13.953  0.00  0.00    +0.000 HD
ENDBRANCH  13  17
ENDBRANCH   5   7
BRANCH   1  25
ATOM     23  O   UNL     1      -0.724   8.988  22.497  0.00  0.00    +0.000 OA
ATOM     24  C   UNL     1      -0.566  10.183  22.279  0.00  0.00    +0.000 C 
ATOM     25  N   UNL     1       0.106  10.745  21.203  0.00  0.00    +0.000 N 
ATOM     26  H   UNL     1       0.292  11.740  21.231  0.00  0.00    +0.000 HD
BRANCH  24  27
ATOM     27  C   UNL     1      -1.140  11.205  23.214  0.00  0.00    +0.000 C 
ATOM     28  C   UNL     1      -1.424  12.446  22.774  0.00  0.00    +0.000 C 
BRANCH  28  29
ATOM     29  C   UNL     1      -1.902  13.556  23.621  0.00  0.00    +0.000 A 
ATOM     30  C   UNL     1      -3.235  13.563  24.063  0.00  0.00    +0.000 A 
ATOM     31  C   UNL     1      -3.727  14.611  24.852  0.00  0.00    +0.000 A 
ATOM     32  C   UNL     1      -2.887  15.658  25.222  0.00  0.00    +0.000 A 
ATOM     33  C   UNL     1      -1.554  15.648  24.821  0.00  0.00    +0.000 A 
ATOM     34  C   UNL     1      -1.063  14.600  24.034  0.00  0.00    +0.000 A 
ENDBRANCH  28  29
ENDBRANCH  24  27
ENDBRANCH   1  25
TORSDOF 5
ENDMDL
MODEL 8
REMARK VINA RESULT:      -9.0      4.542      7.136
REMARK  Name = 
REMARK  5 active torsions:
REMARK  status: ('A' for Active; 'I' for Inactive)
REMARK    1  A    between atoms: C_2  and  C_3
REMARK    2  A    between atoms: C_4  and  C_5
REMARK    3  A    between atoms: N_11  and  C_12
REMARK    4  A    between atoms: C_16  and  C_17
REMARK    5  A    between atoms: C_23  and  C_24
REMARK                            x       y       z     vdW  Elec       q    Type
REMARK                         _______ _______ _______ _____ _____    ______ ____
ROOT
ATOM      1  C   UNL     1       3.040   5.603  18.882  0.00  0.00    +0.000 A 
ATOM      2  C   UNL     1       2.619   5.021  20.069  0.00  0.00    +0.000 A 
ATOM      3  C   UNL     1       1.814   5.743  20.968  0.00  0.00    +0.000 A 
ATOM      4  C   UNL     1       1.427   7.072  20.712  0.00  0.00    +0.000 A 
ATOM      5  C   UNL     1       1.834   7.700  19.538  0.00  0.00    +0.000 A 
ATOM      6  C   UNL     1       2.624   6.922  18.627  0.00  0.00    +0.000 A 
ENDROOT
BRANCH   5   7
ATOM      7  C   UNL     1       1.500   9.111  19.171  0.00  0.00    +0.000 A 
ATOM      8  N   UNL     1       2.089   9.538  18.033  0.00  0.00    +0.000 NA
ATOM      9  N   UNL     1       1.689  10.782  17.862  0.00  0.00    +0.000 N 
ATOM     10  C   UNL     1       0.829  11.238  18.808  0.00  0.00    +0.000 A 
ATOM     11  C   UNL     1       0.208  12.483  18.871  0.00  0.00    +0.000 A 
ATOM     12  C   UNL     1      -0.635  12.721  19.941  0.00  0.00    +0.000 A 
ATOM     13  C   UNL     1      -0.850  11.757  20.935  0.00  0.00    +0.000 A 
ATOM     14  C   UNL     1      -0.171  10.497  20.858  0.00  0.00    +0.000 A 
ATOM     15  C   UNL     1       0.679  10.201  19.736  0.00  0.00    +0.000 A 
ATOM     16  H   UNL     1       2.039  11.291  17.061  0.00  0.00    +0.000 HD
BRANCH  13  17
ATOM     17  C   UNL     1      -1.838  12.121  21.964  0.00  0.00    +0.000 A 
ATOM     18  N   UNL     1      -2.692  13.196  21.769  0.00  0.00    +0.000 NA
ATOM     19  C   UNL     1      -3.439  13.228  22.837  0.00  0.00    +0.000 A 
ATOM     20  N   UNL     1      -3.045  12.236  23.672  0.00  0.00    +0.000 N 
ATOM     21  N   UNL     1      -2.035  11.511  23.143  0.00  0.00    +0.000 NA
ATOM     22  H   UNL     1      -3.417  11.997  24.581  0.00  0.00    +0.000 HD
ENDBRANCH  13  17
ENDBRANCH   5   7
BRANCH   1  25
ATOM     23  O   UNL     1       5.957   5.017  19.091  0.00  0.00    +0.000 OA
ATOM     24  C   UNL     1       5.292   4.828  18.080  0.00  0.00    +0.000 C 
ATOM     25  N   UNL     1       3.917   4.970  17.956  0.00  0.00    +0.000 N 
ATOM     26  H   UNL     1       3.484   4.631  17.106  0.00  0.00    +0.000 HD
BRANCH  24  27
ATOM     27  C   UNL     1       5.959   4.416  16.802  0.00  0.00    +0.000 C 
ATOM     28  C   UNL     1       5.648   5.031  15.644  0.00  0.00    +0.000 C 
BRANCH  28  29
ATOM     29  C   UNL     1       6.170   4.650  14.316  0.00  0.00    +0.000 A 
ATOM     30  C   UNL     1       7.324   5.278  13.821  0.00  0.00    +0.000 A 
ATOM     31  C   UNL     1       7.835   4.953  12.558  0.00  0.00    +0.000 A 
ATOM     32  C   UNL     1       7.204   3.986  11.780  0.00  0.00    +0.000 A 
ATOM     33  C   UNL     1       6.079   3.329  12.271  0.00  0.00    +0.000 A 
ATOM     34  C   UNL     1       5.571   3.653  13.534  0.00  0.00    +0.000 A 
ENDBRANCH  28  29
ENDBRANCH  24  27
ENDBRANCH   1  25
TORSDOF 5
ENDMDL
MODEL 9
REMARK VINA RESULT:      -9.0      5.323      9.665
REMARK  Name = 
REMARK  5 active torsions:
REMARK  status: ('A' for Active; 'I' for Inactive)
REMARK    1  A    between atoms: C_2  and  C_3
REMARK    2  A    between atoms: C_4  and  C_5
REMARK    3  A    between atoms: N_11  and  C_12
REMARK    4  A    between atoms: C_16  and  C_17
REMARK    5  A    between atoms: C_23  and  C_24
REMARK                            x       y       z     vdW  Elec       q    Type
REMARK                         _______ _______ _______ _____ _____    ______ ____
ROOT
ATOM      1  C   UNL     1       0.744  10.464  18.847  0.00  0.00    +0.000 A 
ATOM      2  C   UNL     1       1.414  11.678  18.884  0.00  0.00    +0.000 A 
ATOM      3  C   UNL     1       0.714  12.880  18.671  0.00  0.00    +0.000 A 
ATOM      4  C   UNL     1      -0.666  12.896  18.394  0.00  0.00    +0.000 A 
ATOM      5  C   UNL     1      -1.376  11.700  18.338  0.00  0.00    +0.000 A 
ATOM      6  C   UNL     1      -0.639  10.496  18.596  0.00  0.00    +0.000 A 
ENDROOT
BRANCH   5   7
ATOM      7  C   UNL     1      -2.836  11.594  18.036  0.00  0.00    +0.000 A 
ATOM      8  N   UNL     1      -3.110  11.205  16.772  0.00  0.00    +0.000 NA
ATOM      9  N   UNL     1      -4.425  11.163  16.682  0.00  0.00    +0.000 N 
ATOM     10  C   UNL     1      -5.084  11.477  17.826  0.00  0.00    +0.000 A 
ATOM     11  C   UNL     1      -6.459  11.479  18.049  0.00  0.00    +0.000 A 
ATOM     12  C   UNL     1      -6.899  11.840  19.309  0.00  0.00    +0.000 A 
ATOM     13  C   UNL     1      -6.004  12.205  20.323  0.00  0.00    +0.000 A 
ATOM     14  C   UNL     1      -4.596  12.224  20.052  0.00  0.00    +0.000 A 
ATOM     15  C   UNL     1      -4.102  11.812  18.766  0.00  0.00    +0.000 A 
ATOM     16  H   UNL     1      -4.835  10.904  15.794  0.00  0.00    +0.000 HD
BRANCH  13  17
ATOM     17  C   UNL     1      -6.614  12.481  21.635  0.00  0.00    +0.000 A 
ATOM     18  N   UNL     1      -5.829  12.540  22.776  0.00  0.00    +0.000 NA
ATOM     19  C   UNL     1      -6.660  12.821  23.740  0.00  0.00    +0.000 A 
ATOM     20  N   UNL     1      -7.911  12.902  23.224  0.00  0.00    +0.000 N 
ATOM     21  N   UNL     1      -7.914  12.698  21.888  0.00  0.00    +0.000 NA
ATOM     22  H   UNL     1      -8.777  13.099  23.707  0.00  0.00    +0.000 HD
ENDBRANCH  13  17
ENDBRANCH   5   7
BRANCH   1  25
ATOM     23  O   UNL     1       2.643   9.078  17.009  0.00  0.00    +0.000 OA
ATOM     24  C   UNL     1       2.179   8.571  18.024  0.00  0.00    +0.000 C 
ATOM     25  N   UNL     1       1.389   9.200  18.975  0.00  0.00    +0.000 N 
ATOM     26  H   UNL     1       1.207   8.703  19.838  0.00  0.00    +0.000 HD
BRANCH  24  27
ATOM     27  C   UNL     1       2.433   7.125  18.331  0.00  0.00    +0.000 C 
ATOM     28  C   UNL     1       2.137   6.627  19.547  0.00  0.00    +0.000 C 
BRANCH  28  29
ATOM     29  C   UNL     1       2.428   5.249  19.991  0.00  0.00    +0.000 A 
ATOM     30  C   UNL     1       1.533   4.598  20.855  0.00  0.00    +0.000 A 
ATOM     31  C   UNL     1       1.788   3.298  21.309  0.00  0.00    +0.000 A 
ATOM     32  C   UNL     1       2.936   2.628  20.894  0.00  0.00    +0.000 A 
ATOM     33  C   UNL     1       3.815   3.246  20.010  0.00  0.00    +0.000 A 
ATOM     34  C   UNL     1       3.559   4.544  19.555  0.00  0.00    +0.000 A 
ENDBRANCH  28  29
ENDBRANCH  24  27
ENDBRANCH   1  25
TORSDOF 5
ENDMDL
