MODEL 1
REMARK VINA RESULT:      -7.4      0.000      0.000
REMARK  Name = 
REMARK  2 active torsions:
REMARK  status: ('A' for Active; 'I' for Inactive)
REMARK    1  A    between atoms: C_1  and  C_2
REMARK    2  A    between atoms: C_2  and  C_3
REMARK                            x       y       z     vdW  Elec       q    Type
REMARK                         _______ _______ _______ _____ _____    ______ ____
ROOT
ATOM      1  C   UNL     1       6.233   6.815  17.572  0.00  0.00    +0.000 C 
ATOM      2  N   UNL     1       5.122   7.535  18.190  0.00  0.00    +0.000 N 
ATOM      3  C   UNL     1       3.826   7.408  17.837  0.00  0.00    +0.000 C 
ATOM      4  O   UNL     1       3.109   8.383  17.683  0.00  0.00    +0.000 OA
ATOM      5  C   UNL     1       3.366   6.098  18.090  0.00  0.00    +0.000 A 
ATOM      6  N   UNL     1       2.382   5.948  19.018  0.00  0.00    +0.000 N 
ATOM      7  C   UNL     1       2.298   4.631  19.360  0.00  0.00    +0.000 A 
ATOM      8  C   UNL     1       1.544   4.080  20.394  0.00  0.00    +0.000 A 
ATOM      9  C   UNL     1       0.656   3.165  19.852  0.00  0.00    +0.000 A 
ATOM     10  C   UNL     1       1.036   2.420  18.758  0.00  0.00    +0.000 A 
ATOM     11  F   UNL     1       0.225   1.447  18.331  0.00  0.00    +0.000 F 
ATOM     12  C   UNL     1       2.230   2.680  18.041  0.00  0.00    +0.000 A 
ATOM     13  C   UNL     1       2.801   3.947  18.252  0.00  0.00    +0.000 A 
ATOM     14  C   UNL     1       3.782   4.852  17.668  0.00  0.00    +0.000 A 
ATOM     15  C   UNL     1       4.852   4.736  16.663  0.00  0.00    +0.000 A 
ATOM     16  C   UNL     1       4.791   3.677  15.731  0.00  0.00    +0.000 A 
ATOM     17  C   UNL     1       5.771   3.495  14.752  0.00  0.00    +0.000 A 
ATOM     18  C   UNL     1       6.852   4.359  14.693  0.00  0.00    +0.000 A 
ATOM     19  C   UNL     1       6.942   5.405  15.604  0.00  0.00    +0.000 A 
ATOM     20  C   UNL     1       5.948   5.656  16.591  0.00  0.00    +0.000 A 
ATOM     21  H   UNL     1       5.312   8.500  18.412  0.00  0.00    +0.000 HD
ATOM     22  H   UNL     1       1.904   6.709  19.475  0.00  0.00    +0.000 HD
ENDROOT
BRANCH   1  24
ATOM     23  C   UNL     1       8.187   8.429  18.049  0.00  0.00    +0.000 C 
ATOM     24  C   UNL     1       7.131   7.973  17.038  0.00  0.00    +0.000 C 
ENDBRANCH   1  24
TORSDOF 1
ENDMDL
MODEL 2
REMARK VINA RESULT:      -7.2      3.312      5.316
REMARK  Name = 
REMARK  2 active torsions:
REMARK  status: ('A' for Active; 'I' for Inactive)
REMARK    1  A    between atoms: C_1  and  C_2
REMARK    2  A    between atoms: C_2  and  C_3
REMARK                            x       y       z     vdW  Elec       q    Type
REMARK                         _______ _______ _______ _____ _____    ______ ____
ROOT
ATOM      1  C   UNL     1       2.359   3.922  18.223  0.00  0.00    +0.000 C 
ATOM      2  N   UNL     1       1.847   4.373  19.513  0.00  0.00    +0.000 N 
ATOM      3  C   UNL     1       2.373   5.376  20.247  0.00  0.00    +0.000 C 
ATOM      4  O   UNL     1       2.557   5.258  21.448  0.00  0.00    +0.000 OA
ATOM      5  C   UNL     1       2.267   6.604  19.562  0.00  0.00    +0.000 A 
ATOM      6  N   UNL     1       1.486   7.568  20.122  0.00  0.00    +0.000 N 
ATOM      7  C   UNL     1       1.244   8.533  19.191  0.00  0.00    +0.000 A 
ATOM      8  C   UNL     1       0.354   9.600  19.301  0.00  0.00    +0.000 A 
ATOM      9  C   UNL     1       1.065  10.782  19.165  0.00  0.00    +0.000 A 
ATOM     10  C   UNL     1       2.145  10.827  18.313  0.00  0.00    +0.000 A 
ATOM     11  F   UNL     1       2.735  12.005  18.087  0.00  0.00    +0.000 F 
ATOM     12  C   UNL     1       2.682   9.664  17.706  0.00  0.00    +0.000 A 
ATOM     13  C   UNL     1       2.317   8.445  18.304  0.00  0.00    +0.000 A 
ATOM     14  C   UNL     1       2.710   7.042  18.331  0.00  0.00    +0.000 A 
ATOM     15  C   UNL     1       3.571   6.175  17.510  0.00  0.00    +0.000 A 
ATOM     16  C   UNL     1       4.569   6.777  16.712  0.00  0.00    +0.000 A 
ATOM     17  C   UNL     1       5.422   6.024  15.900  0.00  0.00    +0.000 A 
ATOM     18  C   UNL     1       5.283   4.647  15.850  0.00  0.00    +0.000 A 
ATOM     19  C   UNL     1       4.303   4.029  16.618  0.00  0.00    +0.000 A 
ATOM     20  C   UNL     1       3.441   4.748  17.492  0.00  0.00    +0.000 A 
ATOM     21  H   UNL     1       1.540   3.636  20.131  0.00  0.00    +0.000 HD
ATOM     22  H   UNL     1       1.048   7.497  21.028  0.00  0.00    +0.000 HD
ENDROOT
BRANCH   1  24
ATOM     23  C   UNL     1       3.803   2.237  19.539  0.00  0.00    +0.000 C 
ATOM     24  C   UNL     1       2.696   2.424  18.497  0.00  0.00    +0.000 C 
ENDBRANCH   1  24
TORSDOF 1
ENDMDL
MODEL 3
REMARK VINA RESULT:      -7.2      3.469      6.109
REMARK  Name = 
REMARK  2 active torsions:
REMARK  status: ('A' for Active; 'I' for Inactive)
REMARK    1  A    between atoms: C_1  and  C_2
REMARK    2  A    between atoms: C_2  and  C_3
REMARK                            x       y       z     vdW  Elec       q    Type
REMARK                         _______ _______ _______ _____ _____    ______ ____
ROOT
ATOM      1  C   UNL     1       1.373   7.917  21.311  0.00  0.00    +0.000 C 
ATOM      2  N   UNL     1       1.518   6.469  21.429  0.00  0.00    +0.000 N 
ATOM      3  C   UNL     1       1.488   5.602  20.396  0.00  0.00    +0.000 C 
ATOM      4  O   UNL     1       0.834   4.572  20.446  0.00  0.00    +0.000 OA
ATOM      5  C   UNL     1       2.572   5.829  19.522  0.00  0.00    +0.000 A 
ATOM      6  N   UNL     1       3.493   4.835  19.395  0.00  0.00    +0.000 N 
ATOM      7  C   UNL     1       4.603   5.340  18.788  0.00  0.00    +0.000 A 
ATOM      8  C   UNL     1       5.832   4.704  18.626  0.00  0.00    +0.000 A 
ATOM      9  C   UNL     1       6.113   4.626  17.271  0.00  0.00    +0.000 A 
ATOM     10  C   UNL     1       5.712   5.646  16.438  0.00  0.00    +0.000 A 
ATOM     11  F   UNL     1       6.108   5.625  15.161  0.00  0.00    +0.000 F 
ATOM     12  C   UNL     1       4.856   6.689  16.872  0.00  0.00    +0.000 A 
ATOM     13  C   UNL     1       4.138   6.431  18.053  0.00  0.00    +0.000 A 
ATOM     14  C   UNL     1       2.997   6.931  18.809  0.00  0.00    +0.000 A 
ATOM     15  C   UNL     1       2.178   8.154  18.791  0.00  0.00    +0.000 A 
ATOM     16  C   UNL     1       2.154   8.933  17.613  0.00  0.00    +0.000 A 
ATOM     17  C   UNL     1       1.408  10.111  17.519  0.00  0.00    +0.000 A 
ATOM     18  C   UNL     1       0.681  10.552  18.612  0.00  0.00    +0.000 A 
ATOM     19  C   UNL     1       0.693   9.810  19.787  0.00  0.00    +0.000 A 
ATOM     20  C   UNL     1       1.403   8.583  19.917  0.00  0.00    +0.000 A 
ATOM     21  H   UNL     1       1.047   6.058  22.221  0.00  0.00    +0.000 HD
ATOM     22  H   UNL     1       3.412   3.921  19.813  0.00  0.00    +0.000 HD
ENDROOT
BRANCH   1  24
ATOM     23  C   UNL     1       0.308   9.396  23.137  0.00  0.00    +0.000 C 
ATOM     24  C   UNL     1       0.119   8.205  22.192  0.00  0.00    +0.000 C 
ENDBRANCH   1  24
TORSDOF 1
ENDMDL
MODEL 4
REMARK VINA RESULT:      -6.9      4.417      6.797
REMARK  Name = 
REMARK  2 active torsions:
REMARK  status: ('A' for Active; 'I' for Inactive)
REMARK    1  A    between atoms: C_1  and  C_2
REMARK    2  A    between atoms: C_2  and  C_3
REMARK                            x       y       z     vdW  Elec       q    Type
REMARK                         _______ _______ _______ _____ _____    ______ ____
ROOT
ATOM      1  C   UNL     1      -0.385  10.644  18.955  0.00  0.00    +0.000 C 
ATOM      2  N   UNL     1       0.594  10.453  17.888  0.00  0.00    +0.000 N 
ATOM      3  C   UNL     1       1.874  10.068  18.072  0.00  0.00    +0.000 C 
ATOM      4  O   UNL     1       2.796  10.629  17.503  0.00  0.00    +0.000 OA
ATOM      5  C   UNL     1       1.930   8.767  18.615  0.00  0.00    +0.000 A 
ATOM      6  N   UNL     1       2.503   7.795  17.853  0.00  0.00    +0.000 N 
ATOM      7  C   UNL     1       2.183   6.580  18.380  0.00  0.00    +0.000 A 
ATOM      8  C   UNL     1       2.423   5.331  17.811  0.00  0.00    +0.000 A 
ATOM      9  C   UNL     1       3.218   4.597  18.678  0.00  0.00    +0.000 A 
ATOM     10  C   UNL     1       3.060   4.754  20.036  0.00  0.00    +0.000 A 
ATOM     11  F   UNL     1       3.734   3.943  20.858  0.00  0.00    +0.000 F 
ATOM     12  C   UNL     1       2.249   5.774  20.593  0.00  0.00    +0.000 A 
ATOM     13  C   UNL     1       1.931   6.836  19.728  0.00  0.00    +0.000 A 
ATOM     14  C   UNL     1       1.414   8.197  19.760  0.00  0.00    +0.000 A 
ATOM     15  C   UNL     1       0.729   9.039  20.755  0.00  0.00    +0.000 A 
ATOM     16  C   UNL     1       0.857   8.709  22.122  0.00  0.00    +0.000 A 
ATOM     17  C   UNL     1       0.232   9.453  23.125  0.00  0.00    +0.000 A 
ATOM     18  C   UNL     1      -0.557  10.539  22.784  0.00  0.00    +0.000 A 
ATOM     19  C   UNL     1      -0.707  10.882  21.446  0.00  0.00    +0.000 A 
ATOM     20  C   UNL     1      -0.057  10.181  20.392  0.00  0.00    +0.000 A 
ATOM     21  H   UNL     1       0.557  11.139  17.149  0.00  0.00    +0.000 HD
ATOM     22  H   UNL     1       2.961   7.954  16.969  0.00  0.00    +0.000 HD
ENDROOT
BRANCH   1  24
ATOM     23  C   UNL     1       0.416  13.088  18.753  0.00  0.00    +0.000 C 
ATOM     24  C   UNL     1      -0.787  12.141  18.781  0.00  0.00    +0.000 C 
ENDBRANCH   1  24
TORSDOF 1
ENDMDL
MODEL 5
REMARK VINA RESULT:      -6.9      3.086      6.092
REMARK  Name = 
REMARK  2 active torsions:
REMARK  status: ('A' for Active; 'I' for Inactive)
REMARK    1  A    between atoms: C_1  and  C_2
REMARK    2  A    between atoms: C_2  and  C_3
REMARK                            x       y       z     vdW  Elec       q    Type
REMARK                         _______ _______ _______ _____ _____    ______ ____
ROOT
ATOM      1  C   UNL     1       2.869   4.398  20.479  0.00  0.00    +0.000 C 
ATOM      2  N   UNL     1       3.001   3.133  19.762  0.00  0.00    +0.000 N 
ATOM      3  C   UNL     1       2.755   2.960  18.447  0.00  0.00    +0.000 C 
ATOM      4  O   UNL     1       2.101   2.013  18.040  0.00  0.00    +0.000 OA
ATOM      5  C   UNL     1       3.657   3.714  17.667  0.00  0.00    +0.000 A 
ATOM      6  N   UNL     1       4.514   3.028  16.862  0.00  0.00    +0.000 N 
ATOM      7  C   UNL     1       5.499   3.874  16.448  0.00  0.00    +0.000 A 
ATOM      8  C   UNL     1       6.660   3.534  15.756  0.00  0.00    +0.000 A 
ATOM      9  C   UNL     1       6.674   4.223  14.553  0.00  0.00    +0.000 A 
ATOM     10  C   UNL     1       6.143   5.492  14.495  0.00  0.00    +0.000 A 
ATOM     11  F   UNL     1       6.287   6.196  13.368  0.00  0.00    +0.000 F 
ATOM     12  C   UNL     1       5.410   6.058  15.568  0.00  0.00    +0.000 A 
ATOM     13  C   UNL     1       4.925   5.144  16.520  0.00  0.00    +0.000 A 
ATOM     14  C   UNL     1       3.962   5.058  17.609  0.00  0.00    +0.000 A 
ATOM     15  C   UNL     1       3.182   6.023  18.402  0.00  0.00    +0.000 A 
ATOM     16  C   UNL     1       2.950   7.308  17.864  0.00  0.00    +0.000 A 
ATOM     17  C   UNL     1       2.226   8.281  18.557  0.00  0.00    +0.000 A 
ATOM     18  C   UNL     1       1.731   8.000  19.820  0.00  0.00    +0.000 A 
ATOM     19  C   UNL     1       1.952   6.746  20.378  0.00  0.00    +0.000 A 
ATOM     20  C   UNL     1       2.646   5.709  19.693  0.00  0.00    +0.000 A 
ATOM     21  H   UNL     1       2.682   2.321  20.269  0.00  0.00    +0.000 HD
ATOM     22  H   UNL     1       4.494   2.030  16.721  0.00  0.00    +0.000 HD
ENDROOT
BRANCH   1  24
ATOM     23  C   UNL     1       1.492   2.560  21.656  0.00  0.00    +0.000 C 
ATOM     24  C   UNL     1       1.813   4.056  21.576  0.00  0.00    +0.000 C 
ENDBRANCH   1  24
TORSDOF 1
ENDMDL
MODEL 6
REMARK VINA RESULT:      -6.9      5.192      7.620
REMARK  Name = 
REMARK  2 active torsions:
REMARK  status: ('A' for Active; 'I' for Inactive)
REMARK    1  A    between atoms: C_1  and  C_2
REMARK    2  A    between atoms: C_2  and  C_3
REMARK                            x       y       z     vdW  Elec       q    Type
REMARK                         _______ _______ _______ _____ _____    ______ ____
ROOT
ATOM      1  C   UNL     1      -0.795  11.691  19.405  0.00  0.00    +0.000 C 
ATOM      2  N   UNL     1       0.245  11.797  18.385  0.00  0.00    +0.000 N 
ATOM      3  C   UNL     1       1.544  11.481  18.569  0.00  0.00    +0.000 C 
ATOM      4  O   UNL     1       2.439  12.216  18.182  0.00  0.00    +0.000 OA
ATOM      5  C   UNL     1       1.689  10.105  18.844  0.00  0.00    +0.000 A 
ATOM      6  N   UNL     1       2.378   9.355  17.941  0.00  0.00    +0.000 N 
ATOM      7  C   UNL     1       2.142   8.037  18.194  0.00  0.00    +0.000 A 
ATOM      8  C   UNL     1       2.516   6.952  17.404  0.00  0.00    +0.000 A 
ATOM      9  C   UNL     1       3.331   6.120  18.155  0.00  0.00    +0.000 A 
ATOM     10  C   UNL     1       3.098   5.984  19.505  0.00  0.00    +0.000 A 
ATOM     11  F   UNL     1       3.801   5.077  20.189  0.00  0.00    +0.000 F 
ATOM     12  C   UNL     1       2.176   6.805  20.202  0.00  0.00    +0.000 A 
ATOM     13  C   UNL     1       1.807   7.993  19.548  0.00  0.00    +0.000 A 
ATOM     14  C   UNL     1       1.172   9.276  19.817  0.00  0.00    +0.000 A 
ATOM     15  C   UNL     1       0.371   9.843  20.915  0.00  0.00    +0.000 A 
ATOM     16  C   UNL     1       0.464   9.251  22.194  0.00  0.00    +0.000 A 
ATOM     17  C   UNL     1      -0.269   9.726  23.285  0.00  0.00    +0.000 A 
ATOM     18  C   UNL     1      -1.133  10.795  23.118  0.00  0.00    +0.000 A 
ATOM     19  C   UNL     1      -1.251  11.392  21.868  0.00  0.00    +0.000 A 
ATOM     20  C   UNL     1      -0.494  10.972  20.739  0.00  0.00    +0.000 A 
ATOM     21  H   UNL     1       0.182  12.614  17.797  0.00  0.00    +0.000 HD
ATOM     22  H   UNL     1       2.861   9.726  17.138  0.00  0.00    +0.000 HD
ENDROOT
BRANCH   1  24
ATOM     23  C   UNL     1      -0.344  14.185  18.925  0.00  0.00    +0.000 C 
ATOM     24  C   UNL     1      -1.318  13.157  19.508  0.00  0.00    +0.000 C 
ENDBRANCH   1  24
TORSDOF 1
ENDMDL
MODEL 7
REMARK VINA RESULT:      -6.6      6.774      8.427
REMARK  Name = 
REMARK  2 active torsions:
REMARK  status: ('A' for Active; 'I' for Inactive)
REMARK    1  A    between atoms: C_1  and  C_2
REMARK    2  A    between atoms: C_2  and  C_3
REMARK                            x       y       z     vdW  Elec       q    Type
REMARK                         _______ _______ _______ _____ _____    ______ ____
ROOT
ATOM      1  C   UNL     1      -0.488  10.246  21.081  0.00  0.00    +0.000 C 
ATOM      2  N   UNL     1      -1.237  11.487  20.902  0.00  0.00    +0.000 N 
ATOM      3  C   UNL     1      -1.181  12.273  19.807  0.00  0.00    +0.000 C 
ATOM      4  O   UNL     1      -1.068  13.485  19.897  0.00  0.00    +0.000 OA
ATOM      5  C   UNL     1      -1.675  11.589  18.676  0.00  0.00    +0.000 A 
ATOM      6  N   UNL     1      -2.800  12.081  18.088  0.00  0.00    +0.000 N 
ATOM      7  C   UNL     1      -3.302  11.138  17.243  0.00  0.00    +0.000 A 
ATOM      8  C   UNL     1      -4.528  11.173  16.581  0.00  0.00    +0.000 A 
ATOM      9  C   UNL     1      -4.294  11.111  15.216  0.00  0.00    +0.000 A 
ATOM     10  C   UNL     1      -3.239  10.363  14.745  0.00  0.00    +0.000 A 
ATOM     11  F   UNL     1      -3.108  10.201  13.424  0.00  0.00    +0.000 F 
ATOM     12  C   UNL     1      -2.262   9.801  15.604  0.00  0.00    +0.000 A 
ATOM     13  C   UNL     1      -2.201  10.354  16.895  0.00  0.00    +0.000 A 
ATOM     14  C   UNL     1      -1.323  10.407  18.057  0.00  0.00    +0.000 A 
ATOM     15  C   UNL     1      -0.137   9.664  18.513  0.00  0.00    +0.000 A 
ATOM     16  C   UNL     1       0.632   8.966  17.556  0.00  0.00    +0.000 A 
ATOM     17  C   UNL     1       1.767   8.232  17.911  0.00  0.00    +0.000 A 
ATOM     18  C   UNL     1       2.150   8.159  19.240  0.00  0.00    +0.000 A 
ATOM     19  C   UNL     1       1.406   8.829  20.204  0.00  0.00    +0.000 A 
ATOM     20  C   UNL     1       0.270   9.624  19.887  0.00  0.00    +0.000 A 
ATOM     21  H   UNL     1      -1.301  12.067  21.724  0.00  0.00    +0.000 HD
ATOM     22  H   UNL     1      -3.255  12.941  18.351  0.00  0.00    +0.000 HD
ENDROOT
BRANCH   1  24
ATOM     23  C   UNL     1       0.062   9.567  23.508  0.00  0.00    +0.000 C 
ATOM     24  C   UNL     1       0.352  10.540  22.361  0.00  0.00    +0.000 C 
ENDBRANCH   1  24
TORSDOF 1
ENDMDL
MODEL 8
REMARK VINA RESULT:      -6.6      8.079      9.770
REMARK  Name = 
REMARK  2 active torsions:
REMARK  status: ('A' for Active; 'I' for Inactive)
REMARK    1  A    between atoms: C_1  and  C_2
REMARK    2  A    between atoms: C_2  and  C_3
REMARK                            x       y       z     vdW  Elec       q    Type
REMARK                         _______ _______ _______ _____ _____    ______ ____
ROOT
ATOM      1  C   UNL     1       0.313  10.006  18.845  0.00  0.00    +0.000 C 
ATOM      2  N   UNL     1       1.083  10.956  19.643  0.00  0.00    +0.000 N 
ATOM      3  C   UNL     1       0.795  12.268  19.775  0.00  0.00    +0.000 C 
ATOM      4  O   UNL     1       1.660  13.124  19.679  0.00  0.00    +0.000 OA
ATOM      5  C   UNL     1      -0.447  12.443  20.421  0.00  0.00    +0.000 A 
ATOM      6  N   UNL     1      -0.440  13.059  21.634  0.00  0.00    +0.000 N 
ATOM      7  C   UNL     1      -1.645  12.852  22.238  0.00  0.00    +0.000 A 
ATOM      8  C   UNL     1      -1.988  13.165  23.552  0.00  0.00    +0.000 A 
ATOM      9  C   UNL     1      -3.059  14.045  23.530  0.00  0.00    +0.000 A 
ATOM     10  C   UNL     1      -4.011  13.925  22.543  0.00  0.00    +0.000 A 
ATOM     11  F   UNL     1      -5.106  14.688  22.613  0.00  0.00    +0.000 F 
ATOM     12  C   UNL     1      -3.849  13.061  21.432  0.00  0.00    +0.000 A 
ATOM     13  C   UNL     1      -2.533  12.631  21.185  0.00  0.00    +0.000 A 
ATOM     14  C   UNL     1      -1.728  12.013  20.140  0.00  0.00    +0.000 A 
ATOM     15  C   UNL     1      -2.004  11.303  18.880  0.00  0.00    +0.000 A 
ATOM     16  C   UNL     1      -3.253  11.506  18.251  0.00  0.00    +0.000 A 
ATOM     17  C   UNL     1      -3.594  10.864  17.058  0.00  0.00    +0.000 A 
ATOM     18  C   UNL     1      -2.699   9.983  16.473  0.00  0.00    +0.000 A 
ATOM     19  C   UNL     1      -1.467   9.758  17.075  0.00  0.00    +0.000 A 
ATOM     20  C   UNL     1      -1.058  10.420  18.266  0.00  0.00    +0.000 A 
ATOM     21  H   UNL     1       2.084  10.840  19.593  0.00  0.00    +0.000 HD
ATOM     22  H   UNL     1       0.373  13.471  22.064  0.00  0.00    +0.000 HD
ENDROOT
BRANCH   1  24
ATOM     23  C   UNL     1       2.167   8.283  18.344  0.00  0.00    +0.000 C 
ATOM     24  C   UNL     1       1.371   9.485  17.825  0.00  0.00    +0.000 C 
ENDBRANCH   1  24
TORSDOF 1
ENDMDL
MODEL 9
REMARK VINA RESULT:      -6.5      6.604      9.575
REMARK  Name = 
REMARK  2 active torsions:
REMARK  status: ('A' for Active; 'I' for Inactive)
REMARK    1  A    between atoms: C_1  and  C_2
REMARK    2  A    between atoms: C_2  and  C_3
REMARK                            x       y       z     vdW  Elec       q    Type
REMARK                         _______ _______ _______ _____ _____    ______ ____
ROOT
ATOM      1  C   UNL     1       1.423   8.805  20.865  0.00  0.00    +0.000 C 
ATOM      2  N   UNL     1       1.761   8.867  19.446  0.00  0.00    +0.000 N 
ATOM      3  C   UNL     1       1.168   9.676  18.544  0.00  0.00    +0.000 C 
ATOM      4  O   UNL     1       0.812   9.261  17.452  0.00  0.00    +0.000 OA
ATOM      5  C   UNL     1       1.408  11.031  18.854  0.00  0.00    +0.000 A 
ATOM      6  N   UNL     1       2.131  11.760  17.961  0.00  0.00    +0.000 N 
ATOM      7  C   UNL     1       2.534  12.916  18.560  0.00  0.00    +0.000 A 
ATOM      8  C   UNL     1       3.431  13.854  18.054  0.00  0.00    +0.000 A 
ATOM      9  C   UNL     1       2.784  15.076  17.958  0.00  0.00    +0.000 A 
ATOM     10  C   UNL     1       1.838  15.415  18.898  0.00  0.00    +0.000 A 
ATOM     11  F   UNL     1       1.323  16.648  18.874  0.00  0.00    +0.000 F 
ATOM     12  C   UNL     1       1.356  14.490  19.858  0.00  0.00    +0.000 A 
ATOM     13  C   UNL     1       1.594  13.136  19.568  0.00  0.00    +0.000 A 
ATOM     14  C   UNL     1       1.159  11.805  19.969  0.00  0.00    +0.000 A 
ATOM     15  C   UNL     1       0.395  11.243  21.096  0.00  0.00    +0.000 A 
ATOM     16  C   UNL     1      -0.460  12.099  21.825  0.00  0.00    +0.000 A 
ATOM     17  C   UNL     1      -1.211  11.644  22.912  0.00  0.00    +0.000 A 
ATOM     18  C   UNL     1      -1.110  10.322  23.311  0.00  0.00    +0.000 A 
ATOM     19  C   UNL     1      -0.269   9.460  22.618  0.00  0.00    +0.000 A 
ATOM     20  C   UNL     1       0.483   9.865  21.479  0.00  0.00    +0.000 A 
ATOM     21  H   UNL     1       1.954   7.976  19.015  0.00  0.00    +0.000 HD
ATOM     22  H   UNL     1       2.434  11.425  17.059  0.00  0.00    +0.000 HD
ENDROOT
BRANCH   1  24
ATOM     23  C   UNL     1       1.934   6.335  20.323  0.00  0.00    +0.000 C 
ATOM     24  C   UNL     1       1.005   7.314  21.048  0.00  0.00    +0.000 C 
ENDBRANCH   1  24
TORSDOF 1
ENDMDL
