MODEL 1
REMARK VINA RESULT:      -7.8      0.000      0.000
REMARK  Name = 
REMARK  6 active torsions:
REMARK  status: ('A' for Active; 'I' for Inactive)
REMARK    1  A    between atoms: C_1  and  O_2
REMARK    2  A    between atoms: O_2  and  C_3
REMARK    3  A    between atoms: C_6  and  N_7
REMARK    4  A    between atoms: C_8  and  C_10
REMARK    5  A    between atoms: C_12  and  C_13
REMARK    6  A    between atoms: C_13  and  C_14
REMARK                            x       y       z     vdW  Elec       q    Type
REMARK                         _______ _______ _______ _____ _____    ______ ____
ROOT
ATOM      1  N   UNL     1       1.961   8.798  17.727  0.00  0.00    +0.000 N 
ATOM      2  C   UNL     1       2.338   7.828  18.639  0.00  0.00    +0.000 C 
ATOM      3  O   UNL     1       2.011   7.818  19.822  0.00  0.00    +0.000 OA
ATOM      4  H   UNL     1       2.057   8.568  16.746  0.00  0.00    +0.000 HD
ENDROOT
BRANCH   2   5
ATOM      5  C   UNL     1       3.100   6.688  18.135  0.00  0.00    +0.000 A 
ATOM      6  C   UNL     1       4.337   6.854  17.452  0.00  0.00    +0.000 A 
ATOM      7  C   UNL     1       4.787   5.641  16.972  0.00  0.00    +0.000 A 
ATOM      8  N   UNL     1       3.839   4.696  17.358  0.00  0.00    +0.000 N 
ATOM      9  C   UNL     1       3.807   3.320  17.089  0.00  0.00    +0.000 A 
ATOM     10  C   UNL     1       2.777   2.570  17.509  0.00  0.00    +0.000 A 
ATOM     11  C   UNL     1       1.700   3.208  18.237  0.00  0.00    +0.000 A 
ATOM     12  C   UNL     1       1.712   4.526  18.507  0.00  0.00    +0.000 A 
ATOM     13  C   UNL     1       2.812   5.336  18.080  0.00  0.00    +0.000 A 
BRANCH   7  14
ATOM     14  C   UNL     1       5.987   5.381  16.182  0.00  0.00    +0.000 C 
ATOM     15  C   UNL     1       7.161   4.689  16.842  0.00  0.00    +0.000 C 
ATOM     16  O   UNL     1       6.100   5.701  14.998  0.00  0.00    +0.000 OA
ENDBRANCH   7  14
ENDBRANCH   2   5
BRANCH   1  20
ATOM     17  C   UNL     1      -0.238  12.270  18.815  0.00  0.00    +0.000 A 
ATOM     18  C   UNL     1       1.154  12.280  18.844  0.00  0.00    +0.000 A 
ATOM     19  C   UNL     1       1.874  11.150  18.458  0.00  0.00    +0.000 A 
ATOM     20  C   UNL     1       1.236   9.968  18.074  0.00  0.00    +0.000 A 
ATOM     21  C   UNL     1      -0.160   9.950  18.039  0.00  0.00    +0.000 A 
ATOM     22  C   UNL     1      -0.890  11.092  18.421  0.00  0.00    +0.000 A 
ATOM     23 CL   UNL     1      -2.618  11.003  18.377  0.00  0.00    +0.000 Cl
BRANCH  17  25
ATOM     24  C   UNL     1      -0.330  14.613  19.119  0.00  0.00    +0.000 C 
ATOM     25  O   UNL     1      -0.996  13.353  19.183  0.00  0.00    +0.000 OA
ENDBRANCH  17  25
ENDBRANCH   1  20
TORSDOF 4
ENDMDL
MODEL 2
REMARK VINA RESULT:      -7.7      1.911      1.974
REMARK  Name = 
REMARK  6 active torsions:
REMARK  status: ('A' for Active; 'I' for Inactive)
REMARK    1  A    between atoms: C_1  and  O_2
REMARK    2  A    between atoms: O_2  and  C_3
REMARK    3  A    between atoms: C_6  and  N_7
REMARK    4  A    between atoms: C_8  and  C_10
REMARK    5  A    between atoms: C_12  and  C_13
REMARK    6  A    between atoms: C_13  and  C_14
REMARK                            x       y       z     vdW  Elec       q    Type
REMARK                         _______ _______ _______ _____ _____    ______ ____
ROOT
ATOM      1  N   UNL     1       1.847   8.068  19.450  0.00  0.00    +0.000 N 
ATOM      2  C   UNL     1       2.413   7.981  18.190  0.00  0.00    +0.000 C 
ATOM      3  O   UNL     1       2.338   8.854  17.330  0.00  0.00    +0.000 OA
ATOM      4  H   UNL     1       2.194   7.428  20.153  0.00  0.00    +0.000 HD
ENDROOT
BRANCH   2   5
ATOM      5  C   UNL     1       3.237   6.811  17.900  0.00  0.00    +0.000 A 
ATOM      6  C   UNL     1       4.562   6.931  17.397  0.00  0.00    +0.000 A 
ATOM      7  C   UNL     1       5.075   5.686  17.091  0.00  0.00    +0.000 A 
ATOM      8  N   UNL     1       4.076   4.768  17.408  0.00  0.00    +0.000 N 
ATOM      9  C   UNL     1       4.080   3.374  17.251  0.00  0.00    +0.000 A 
ATOM     10  C   UNL     1       2.996   2.652  17.572  0.00  0.00    +0.000 A 
ATOM     11  C   UNL     1       1.824   3.338  18.077  0.00  0.00    +0.000 A 
ATOM     12  C   UNL     1       1.801   4.674  18.237  0.00  0.00    +0.000 A 
ATOM     13  C   UNL     1       2.955   5.456  17.913  0.00  0.00    +0.000 A 
BRANCH   7  14
ATOM     14  C   UNL     1       6.378   5.373  16.513  0.00  0.00    +0.000 C 
ATOM     15  C   UNL     1       7.420   4.697  17.381  0.00  0.00    +0.000 C 
ATOM     16  O   UNL     1       6.682   5.635  15.349  0.00  0.00    +0.000 OA
ENDBRANCH   7  14
ENDBRANCH   2   5
BRANCH   1  20
ATOM     17  C   UNL     1      -0.616  11.282  20.744  0.00  0.00    +0.000 A 
ATOM     18  C   UNL     1      -0.134  11.245  19.439  0.00  0.00    +0.000 A 
ATOM     19  C   UNL     1       0.648  10.175  19.007  0.00  0.00    +0.000 A 
ATOM     20  C   UNL     1       1.010   9.135  19.867  0.00  0.00    +0.000 A 
ATOM     21  C   UNL     1       0.529   9.163  21.178  0.00  0.00    +0.000 A 
ATOM     22  C   UNL     1      -0.268  10.238  21.616  0.00  0.00    +0.000 A 
ATOM     23 CL   UNL     1      -0.817  10.227  23.256  0.00  0.00    +0.000 Cl
BRANCH  17  25
ATOM     24  C   UNL     1      -2.541  12.620  20.437  0.00  0.00    +0.000 C 
ATOM     25  O   UNL     1      -1.390  12.309  21.221  0.00  0.00    +0.000 OA
ENDBRANCH  17  25
ENDBRANCH   1  20
TORSDOF 4
ENDMDL
MODEL 3
REMARK VINA RESULT:      -7.7      1.198      1.547
REMARK  Name = 
REMARK  6 active torsions:
REMARK  status: ('A' for Active; 'I' for Inactive)
REMARK    1  A    between atoms: C_1  and  O_2
REMARK    2  A    between atoms: O_2  and  C_3
REMARK    3  A    between atoms: C_6  and  N_7
REMARK    4  A    between atoms: C_8  and  C_10
REMARK    5  A    between atoms: C_12  and  C_13
REMARK    6  A    between atoms: C_13  and  C_14
REMARK                            x       y       z     vdW  Elec       q    Type
REMARK                         _______ _______ _______ _____ _____    ______ ____
ROOT
ATOM      1  N   UNL     1       1.882   8.809  17.735  0.00  0.00    +0.000 N 
ATOM      2  C   UNL     1       2.328   7.874  18.652  0.00  0.00    +0.000 C 
ATOM      3  O   UNL     1       2.063   7.891  19.851  0.00  0.00    +0.000 OA
ATOM      4  H   UNL     1       1.932   8.553  16.757  0.00  0.00    +0.000 HD
ENDROOT
BRANCH   2   5
ATOM      5  C   UNL     1       3.088   6.737  18.140  0.00  0.00    +0.000 A 
ATOM      6  C   UNL     1       4.330   6.905  17.467  0.00  0.00    +0.000 A 
ATOM      7  C   UNL     1       4.779   5.695  16.976  0.00  0.00    +0.000 A 
ATOM      8  N   UNL     1       3.824   4.750  17.346  0.00  0.00    +0.000 N 
ATOM      9  C   UNL     1       3.788   3.377  17.062  0.00  0.00    +0.000 A 
ATOM     10  C   UNL     1       2.752   2.627  17.467  0.00  0.00    +0.000 A 
ATOM     11  C   UNL     1       1.673   3.261  18.195  0.00  0.00    +0.000 A 
ATOM     12  C   UNL     1       1.688   4.577  18.480  0.00  0.00    +0.000 A 
ATOM     13  C   UNL     1       2.795   5.386  18.068  0.00  0.00    +0.000 A 
BRANCH   7  14
ATOM     14  C   UNL     1       5.982   5.439  16.192  0.00  0.00    +0.000 C 
ATOM     15  C   UNL     1       7.150   4.735  16.852  0.00  0.00    +0.000 C 
ATOM     16  O   UNL     1       6.103   5.770  15.011  0.00  0.00    +0.000 OA
ENDBRANCH   7  14
ENDBRANCH   2   5
BRANCH   1  20
ATOM     17  C   UNL     1      -0.287  12.326  18.737  0.00  0.00    +0.000 A 
ATOM     18  C   UNL     1      -0.959  11.144  18.440  0.00  0.00    +0.000 A 
ATOM     19  C   UNL     1      -0.246   9.984  18.141  0.00  0.00    +0.000 A 
ATOM     20  C   UNL     1       1.150   9.973  18.087  0.00  0.00    +0.000 A 
ATOM     21  C   UNL     1       1.833  11.154  18.387  0.00  0.00    +0.000 A 
ATOM     22  C   UNL     1       1.116  12.325  18.697  0.00  0.00    +0.000 A 
ATOM     23 CL   UNL     1       2.017  13.762  19.040  0.00  0.00    +0.000 Cl
BRANCH  17  25
ATOM     24  C   UNL     1      -1.827  13.427  20.153  0.00  0.00    +0.000 C 
ATOM     25  O   UNL     1      -0.938  13.494  19.039  0.00  0.00    +0.000 OA
ENDBRANCH  17  25
ENDBRANCH   1  20
TORSDOF 4
ENDMDL
MODEL 4
REMARK VINA RESULT:      -7.6      2.813      2.954
REMARK  Name = 
REMARK  6 active torsions:
REMARK  status: ('A' for Active; 'I' for Inactive)
REMARK    1  A    between atoms: C_1  and  O_2
REMARK    2  A    between atoms: O_2  and  C_3
REMARK    3  A    between atoms: C_6  and  N_7
REMARK    4  A    between atoms: C_8  and  C_10
REMARK    5  A    between atoms: C_12  and  C_13
REMARK    6  A    between atoms: C_13  and  C_14
REMARK                            x       y       z     vdW  Elec       q    Type
REMARK                         _______ _______ _______ _____ _____    ______ ____
ROOT
ATOM      1  N   UNL     1       1.333   7.741  21.073  0.00  0.00    +0.000 N 
ATOM      2  C   UNL     1       1.939   7.563  19.842  0.00  0.00    +0.000 C 
ATOM      3  O   UNL     1       1.996   8.416  18.962  0.00  0.00    +0.000 OA
ATOM      4  H   UNL     1       1.579   7.086  21.805  0.00  0.00    +0.000 HD
ENDROOT
BRANCH   2   5
ATOM      5  C   UNL     1       2.644   6.303  19.614  0.00  0.00    +0.000 A 
ATOM      6  C   UNL     1       3.885   6.252  18.920  0.00  0.00    +0.000 A 
ATOM      7  C   UNL     1       4.275   4.942  18.730  0.00  0.00    +0.000 A 
ATOM      8  N   UNL     1       3.283   4.155  19.311  0.00  0.00    +0.000 N 
ATOM      9  C   UNL     1       3.184   2.757  19.359  0.00  0.00    +0.000 A 
ATOM     10  C   UNL     1       2.121   2.170  19.928  0.00  0.00    +0.000 A 
ATOM     11  C   UNL     1       1.078   3.006  20.486  0.00  0.00    +0.000 A 
ATOM     12  C   UNL     1       1.154   4.350  20.452  0.00  0.00    +0.000 A 
ATOM     13  C   UNL     1       2.290   4.989  19.862  0.00  0.00    +0.000 A 
BRANCH   7  14
ATOM     14  C   UNL     1       5.459   4.454  18.028  0.00  0.00    +0.000 C 
ATOM     15  C   UNL     1       5.340   4.084  16.564  0.00  0.00    +0.000 C 
ATOM     16  O   UNL     1       6.558   4.322  18.568  0.00  0.00    +0.000 OA
ENDBRANCH   7  14
ENDBRANCH   2   5
BRANCH   1  20
ATOM     17  C   UNL     1      -0.915  11.197  22.110  0.00  0.00    +0.000 A 
ATOM     18  C   UNL     1      -0.472  10.322  23.098  0.00  0.00    +0.000 A 
ATOM     19  C   UNL     1       0.290   9.205  22.759  0.00  0.00    +0.000 A 
ATOM     20  C   UNL     1       0.600   8.902  21.431  0.00  0.00    +0.000 A 
ATOM     21  C   UNL     1       0.162   9.776  20.434  0.00  0.00    +0.000 A 
ATOM     22  C   UNL     1      -0.602  10.909  20.773  0.00  0.00    +0.000 A 
ATOM     23 CL   UNL     1      -1.133  11.944  19.492  0.00  0.00    +0.000 Cl
BRANCH  17  25
ATOM     24  C   UNL     1      -2.775  12.096  23.260  0.00  0.00    +0.000 C 
ATOM     25  O   UNL     1      -1.667  12.310  22.387  0.00  0.00    +0.000 OA
ENDBRANCH  17  25
ENDBRANCH   1  20
TORSDOF 4
ENDMDL
MODEL 5
REMARK VINA RESULT:      -7.5      2.110      2.269
REMARK  Name = 
REMARK  6 active torsions:
REMARK  status: ('A' for Active; 'I' for Inactive)
REMARK    1  A    between atoms: C_1  and  O_2
REMARK    2  A    between atoms: O_2  and  C_3
REMARK    3  A    between atoms: C_6  and  N_7
REMARK    4  A    between atoms: C_8  and  C_10
REMARK    5  A    between atoms: C_12  and  C_13
REMARK    6  A    between atoms: C_13  and  C_14
REMARK                            x       y       z     vdW  Elec       q    Type
REMARK                         _______ _______ _______ _____ _____    ______ ____
ROOT
ATOM      1  N   UNL     1       1.968   7.547  19.852  0.00  0.00    +0.000 N 
ATOM      2  C   UNL     1       2.510   7.526  18.578  0.00  0.00    +0.000 C 
ATOM      3  O   UNL     1       2.522   8.482  17.809  0.00  0.00    +0.000 OA
ATOM      4  H   UNL     1       2.250   6.808  20.483  0.00  0.00    +0.000 HD
ENDROOT
BRANCH   2   5
ATOM      5  C   UNL     1       3.199   6.308  18.160  0.00  0.00    +0.000 A 
ATOM      6  C   UNL     1       4.456   6.347  17.494  0.00  0.00    +0.000 A 
ATOM      7  C   UNL     1       4.829   5.078  17.097  0.00  0.00    +0.000 A 
ATOM      8  N   UNL     1       3.811   4.226  17.520  0.00  0.00    +0.000 N 
ATOM      9  C   UNL     1       3.689   2.841  17.333  0.00  0.00    +0.000 A 
ATOM     10  C   UNL     1       2.602   2.191  17.775  0.00  0.00    +0.000 A 
ATOM     11  C   UNL     1       1.559   2.943  18.441  0.00  0.00    +0.000 A 
ATOM     12  C   UNL     1       1.658   4.272  18.631  0.00  0.00    +0.000 A 
ATOM     13  C   UNL     1       2.818   4.977  18.180  0.00  0.00    +0.000 A 
BRANCH   7  14
ATOM     14  C   UNL     1       6.021   4.690  16.351  0.00  0.00    +0.000 C 
ATOM     15  C   UNL     1       5.941   4.600  14.841  0.00  0.00    +0.000 C 
ATOM     16  O   UNL     1       7.099   4.425  16.886  0.00  0.00    +0.000 OA
ENDBRANCH   7  14
ENDBRANCH   2   5
BRANCH   1  20
ATOM     17  C   UNL     1      -0.218  10.837  21.424  0.00  0.00    +0.000 A 
ATOM     18  C   UNL     1       0.304   9.867  22.275  0.00  0.00    +0.000 A 
ATOM     19  C   UNL     1       1.046   8.805  21.760  0.00  0.00    +0.000 A 
ATOM     20  C   UNL     1       1.256   8.652  20.387  0.00  0.00    +0.000 A 
ATOM     21  C   UNL     1       0.738   9.623  19.527  0.00  0.00    +0.000 A 
ATOM     22  C   UNL     1      -0.006  10.700  20.043  0.00  0.00    +0.000 A 
ATOM     23 CL   UNL     1      -0.639  11.860  18.926  0.00  0.00    +0.000 Cl
BRANCH  17  25
ATOM     24  C   UNL     1      -1.700  11.667  23.070  0.00  0.00    +0.000 C 
ATOM     25  O   UNL     1      -0.954  11.903  21.876  0.00  0.00    +0.000 OA
ENDBRANCH  17  25
ENDBRANCH   1  20
TORSDOF 4
ENDMDL
MODEL 6
REMARK VINA RESULT:      -7.4      1.488      1.510
REMARK  Name = 
REMARK  6 active torsions:
REMARK  status: ('A' for Active; 'I' for Inactive)
REMARK    1  A    between atoms: C_1  and  O_2
REMARK    2  A    between atoms: O_2  and  C_3
REMARK    3  A    between atoms: C_6  and  N_7
REMARK    4  A    between atoms: C_8  and  C_10
REMARK    5  A    between atoms: C_12  and  C_13
REMARK    6  A    between atoms: C_13  and  C_14
REMARK                            x       y       z     vdW  Elec       q    Type
REMARK                         _______ _______ _______ _____ _____    ______ ____
ROOT
ATOM      1  N   UNL     1       1.801   8.173  19.388  0.00  0.00    +0.000 N 
ATOM      2  C   UNL     1       2.433   8.103  18.159  0.00  0.00    +0.000 C 
ATOM      3  O   UNL     1       2.434   9.001  17.322  0.00  0.00    +0.000 OA
ATOM      4  H   UNL     1       2.087   7.503  20.090  0.00  0.00    +0.000 HD
ENDROOT
BRANCH   2   5
ATOM      5  C   UNL     1       3.235   6.914  17.881  0.00  0.00    +0.000 A 
ATOM      6  C   UNL     1       4.573   7.005  17.405  0.00  0.00    +0.000 A 
ATOM      7  C   UNL     1       5.062   5.749  17.104  0.00  0.00    +0.000 A 
ATOM      8  N   UNL     1       4.036   4.854  17.398  0.00  0.00    +0.000 N 
ATOM      9  C   UNL     1       4.010   3.461  17.235  0.00  0.00    +0.000 A 
ATOM     10  C   UNL     1       2.903   2.764  17.532  0.00  0.00    +0.000 A 
ATOM     11  C   UNL     1       1.738   3.475  18.017  0.00  0.00    +0.000 A 
ATOM     12  C   UNL     1       1.743   4.811  18.181  0.00  0.00    +0.000 A 
ATOM     13  C   UNL     1       2.921   5.566  17.884  0.00  0.00    +0.000 A 
BRANCH   7  14
ATOM     14  C   UNL     1       6.369   5.408  16.550  0.00  0.00    +0.000 C 
ATOM     15  C   UNL     1       7.389   4.737  17.446  0.00  0.00    +0.000 C 
ATOM     16  O   UNL     1       6.691   5.641  15.385  0.00  0.00    +0.000 OA
ENDBRANCH   7  14
ENDBRANCH   2   5
BRANCH   1  20
ATOM     17  C   UNL     1      -0.724  11.382  20.573  0.00  0.00    +0.000 A 
ATOM     18  C   UNL     1       0.073  10.729  21.510  0.00  0.00    +0.000 A 
ATOM     19  C   UNL     1       0.922   9.697  21.114  0.00  0.00    +0.000 A 
ATOM     20  C   UNL     1       0.975   9.255  19.790  0.00  0.00    +0.000 A 
ATOM     21  C   UNL     1       0.182   9.907  18.843  0.00  0.00    +0.000 A 
ATOM     22  C   UNL     1      -0.672  10.954  19.237  0.00  0.00    +0.000 A 
ATOM     23 CL   UNL     1      -1.647  11.709  18.023  0.00  0.00    +0.000 Cl
BRANCH  17  25
ATOM     24  C   UNL     1      -0.949  13.653  21.192  0.00  0.00    +0.000 C 
ATOM     25  O   UNL     1      -1.576  12.403  20.907  0.00  0.00    +0.000 OA
ENDBRANCH  17  25
ENDBRANCH   1  20
TORSDOF 4
ENDMDL
MODEL 7
REMARK VINA RESULT:      -7.4      1.464      1.631
REMARK  Name = 
REMARK  6 active torsions:
REMARK  status: ('A' for Active; 'I' for Inactive)
REMARK    1  A    between atoms: C_1  and  O_2
REMARK    2  A    between atoms: O_2  and  C_3
REMARK    3  A    between atoms: C_6  and  N_7
REMARK    4  A    between atoms: C_8  and  C_10
REMARK    5  A    between atoms: C_12  and  C_13
REMARK    6  A    between atoms: C_13  and  C_14
REMARK                            x       y       z     vdW  Elec       q    Type
REMARK                         _______ _______ _______ _____ _____    ______ ____
ROOT
ATOM      1  N   UNL     1       1.818   8.631  18.448  0.00  0.00    +0.000 N 
ATOM      2  C   UNL     1       2.000   7.848  19.575  0.00  0.00    +0.000 C 
ATOM      3  O   UNL     1       1.580   8.126  20.694  0.00  0.00    +0.000 OA
ATOM      4  H   UNL     1       1.962   8.186  17.551  0.00  0.00    +0.000 HD
ENDROOT
BRANCH   2   5
ATOM      5  C   UNL     1       2.655   6.554  19.397  0.00  0.00    +0.000 A 
ATOM      6  C   UNL     1       3.832   6.410  18.611  0.00  0.00    +0.000 A 
ATOM      7  C   UNL     1       4.176   5.077  18.501  0.00  0.00    +0.000 A 
ATOM      8  N   UNL     1       3.220   4.370  19.228  0.00  0.00    +0.000 N 
ATOM      9  C   UNL     1       3.096   2.984  19.403  0.00  0.00    +0.000 A 
ATOM     10  C   UNL     1       2.071   2.478  20.106  0.00  0.00    +0.000 A 
ATOM     11  C   UNL     1       1.097   3.387  20.674  0.00  0.00    +0.000 A 
ATOM     12  C   UNL     1       1.199   4.720  20.519  0.00  0.00    +0.000 A 
ATOM     13  C   UNL     1       2.296   5.275  19.786  0.00  0.00    +0.000 A 
BRANCH   7  14
ATOM     14  C   UNL     1       5.285   4.499  17.749  0.00  0.00    +0.000 C 
ATOM     15  C   UNL     1       5.079   4.160  16.288  0.00  0.00    +0.000 C 
ATOM     16  O   UNL     1       6.389   4.266  18.244  0.00  0.00    +0.000 OA
ENDBRANCH   7  14
ENDBRANCH   2   5
BRANCH   1  20
ATOM     17  C   UNL     1      -0.016  12.465  18.570  0.00  0.00    +0.000 A 
ATOM     18  C   UNL     1       1.371  12.346  18.592  0.00  0.00    +0.000 A 
ATOM     19  C   UNL     1       1.971  11.090  18.521  0.00  0.00    +0.000 A 
ATOM     20  C   UNL     1       1.215   9.916  18.470  0.00  0.00    +0.000 A 
ATOM     21  C   UNL     1      -0.177  10.026  18.445  0.00  0.00    +0.000 A 
ATOM     22  C   UNL     1      -0.787  11.293  18.508  0.00  0.00    +0.000 A 
ATOM     23 CL   UNL     1      -2.515  11.365  18.494  0.00  0.00    +0.000 Cl
BRANCH  17  25
ATOM     24  C   UNL     1      -0.636  14.309  19.913  0.00  0.00    +0.000 C 
ATOM     25  O   UNL     1      -0.659  13.674  18.635  0.00  0.00    +0.000 OA
ENDBRANCH  17  25
ENDBRANCH   1  20
TORSDOF 4
ENDMDL
MODEL 8
REMARK VINA RESULT:      -7.3      1.451      2.854
REMARK  Name = 
REMARK  6 active torsions:
REMARK  status: ('A' for Active; 'I' for Inactive)
REMARK    1  A    between atoms: C_1  and  O_2
REMARK    2  A    between atoms: O_2  and  C_3
REMARK    3  A    between atoms: C_6  and  N_7
REMARK    4  A    between atoms: C_8  and  C_10
REMARK    5  A    between atoms: C_12  and  C_13
REMARK    6  A    between atoms: C_13  and  C_14
REMARK                            x       y       z     vdW  Elec       q    Type
REMARK                         _______ _______ _______ _____ _____    ______ ____
ROOT
ATOM      1  N   UNL     1       1.841   8.523  17.762  0.00  0.00    +0.000 N 
ATOM      2  C   UNL     1       2.251   7.587  18.695  0.00  0.00    +0.000 C 
ATOM      3  O   UNL     1       2.192   7.742  19.911  0.00  0.00    +0.000 OA
ATOM      4  H   UNL     1       1.683   8.192  16.819  0.00  0.00    +0.000 HD
ENDROOT
BRANCH   2   5
ATOM      5  C   UNL     1       2.694   6.287  18.196  0.00  0.00    +0.000 A 
ATOM      6  C   UNL     1       2.063   5.075  18.593  0.00  0.00    +0.000 A 
ATOM      7  C   UNL     1       2.746   3.989  18.083  0.00  0.00    +0.000 A 
ATOM      8  N   UNL     1       3.811   4.510  17.351  0.00  0.00    +0.000 N 
ATOM      9  C   UNL     1       4.825   3.827  16.664  0.00  0.00    +0.000 A 
ATOM     10  C   UNL     1       5.804   4.506  16.048  0.00  0.00    +0.000 A 
ATOM     11  C   UNL     1       5.796   5.953  16.110  0.00  0.00    +0.000 A 
ATOM     12  C   UNL     1       4.832   6.628  16.763  0.00  0.00    +0.000 A 
ATOM     13  C   UNL     1       3.772   5.918  17.411  0.00  0.00    +0.000 A 
BRANCH   7  14
ATOM     14  C   UNL     1       2.456   2.574  18.289  0.00  0.00    +0.000 C 
ATOM     15  C   UNL     1       1.072   2.171  18.754  0.00  0.00    +0.000 C 
ATOM     16  O   UNL     1       3.284   1.680  18.108  0.00  0.00    +0.000 OA
ENDBRANCH   7  14
ENDBRANCH   2   5
BRANCH   1  20
ATOM     17  C   UNL     1       0.510  12.419  18.822  0.00  0.00    +0.000 A 
ATOM     18  C   UNL     1       1.853  12.186  18.539  0.00  0.00    +0.000 A 
ATOM     19  C   UNL     1       2.282  10.914  18.162  0.00  0.00    +0.000 A 
ATOM     20  C   UNL     1       1.403   9.831  18.096  0.00  0.00    +0.000 A 
ATOM     21  C   UNL     1       0.053  10.056  18.376  0.00  0.00    +0.000 A 
ATOM     22  C   UNL     1      -0.386  11.340  18.750  0.00  0.00    +0.000 A 
ATOM     23 CL   UNL     1      -2.066  11.554  19.105  0.00  0.00    +0.000 Cl
BRANCH  17  25
ATOM     24  C   UNL     1       0.289  14.017  20.551  0.00  0.00    +0.000 C 
ATOM     25  O   UNL     1       0.033  13.649  19.196  0.00  0.00    +0.000 OA
ENDBRANCH  17  25
ENDBRANCH   1  20
TORSDOF 4
ENDMDL
MODEL 9
REMARK VINA RESULT:      -7.3      1.913      3.243
REMARK  Name = 
REMARK  6 active torsions:
REMARK  status: ('A' for Active; 'I' for Inactive)
REMARK    1  A    between atoms: C_1  and  O_2
REMARK    2  A    between atoms: O_2  and  C_3
REMARK    3  A    between atoms: C_6  and  N_7
REMARK    4  A    between atoms: C_8  and  C_10
REMARK    5  A    between atoms: C_12  and  C_13
REMARK    6  A    between atoms: C_13  and  C_14
REMARK                            x       y       z     vdW  Elec       q    Type
REMARK                         _______ _______ _______ _____ _____    ______ ____
ROOT
ATOM      1  N   UNL     1       1.773   8.527  17.821  0.00  0.00    +0.000 N 
ATOM      2  C   UNL     1       2.217   7.614  18.762  0.00  0.00    +0.000 C 
ATOM      3  O   UNL     1       2.183   7.790  19.976  0.00  0.00    +0.000 OA
ATOM      4  H   UNL     1       1.599   8.177  16.888  0.00  0.00    +0.000 HD
ENDROOT
BRANCH   2   5
ATOM      5  C   UNL     1       2.670   6.313  18.276  0.00  0.00    +0.000 A 
ATOM      6  C   UNL     1       2.083   5.098  18.727  0.00  0.00    +0.000 A 
ATOM      7  C   UNL     1       2.768   4.014  18.216  0.00  0.00    +0.000 A 
ATOM      8  N   UNL     1       3.791   4.540  17.428  0.00  0.00    +0.000 N 
ATOM      9  C   UNL     1       4.791   3.862  16.717  0.00  0.00    +0.000 A 
ATOM     10  C   UNL     1       5.729   4.546  16.046  0.00  0.00    +0.000 A 
ATOM     11  C   UNL     1       5.692   5.994  16.074  0.00  0.00    +0.000 A 
ATOM     12  C   UNL     1       4.739   6.664  16.749  0.00  0.00    +0.000 A 
ATOM     13  C   UNL     1       3.723   5.947  17.457  0.00  0.00    +0.000 A 
BRANCH   7  14
ATOM     14  C   UNL     1       2.519   2.598  18.468  0.00  0.00    +0.000 C 
ATOM     15  C   UNL     1       1.096   2.138  18.709  0.00  0.00    +0.000 C 
ATOM     16  O   UNL     1       3.411   1.749  18.498  0.00  0.00    +0.000 OA
ENDBRANCH   7  14
ENDBRANCH   2   5
BRANCH   1  20
ATOM     17  C   UNL     1       0.443  12.463  18.724  0.00  0.00    +0.000 A 
ATOM     18  C   UNL     1      -0.460  11.405  18.691  0.00  0.00    +0.000 A 
ATOM     19  C   UNL     1      -0.018  10.110  18.424  0.00  0.00    +0.000 A 
ATOM     20  C   UNL     1       1.323   9.834  18.142  0.00  0.00    +0.000 A 
ATOM     21  C   UNL     1       2.236  10.890  18.176  0.00  0.00    +0.000 A 
ATOM     22  C   UNL     1       1.795  12.198  18.452  0.00  0.00    +0.000 A 
ATOM     23 CL   UNL     1       2.969  13.468  18.460  0.00  0.00    +0.000 Cl
BRANCH  17  25
ATOM     24  C   UNL     1      -0.922  13.910  20.002  0.00  0.00    +0.000 C 
ATOM     25  O   UNL     1       0.063  13.756  18.982  0.00  0.00    +0.000 OA
ENDBRANCH  17  25
ENDBRANCH   1  20
TORSDOF 4
ENDMDL
