MODEL 1
REMARK VINA RESULT:      -7.4      0.000      0.000
REMARK  Name = 
REMARK  7 active torsions:
REMARK  status: ('A' for Active; 'I' for Inactive)
REMARK    1  A    between atoms: C_1  and  C_2
REMARK    2  A    between atoms: C_2  and  C_3
REMARK    3  A    between atoms: C_2  and  C_4
REMARK    4  A    between atoms: C_4  and  N_5
REMARK    5  A    between atoms: C_4  and  C_9
REMARK    6  A    between atoms: N_11  and  C_12
REMARK    7  A    between atoms: C_16  and  N_17
REMARK                            x       y       z     vdW  Elec       q    Type
REMARK                         _______ _______ _______ _____ _____    ______ ____
ROOT
ATOM      1  C   UNL     1       6.136   5.638  16.465  0.00  0.00    +0.000 C 
ATOM      2  O   UNL     1       5.327   6.411  15.944  0.00  0.00    +0.000 OA
ATOM      3  N   UNL     1       6.976   4.771  15.771  0.00  0.00    +0.000 N 
ATOM      4  H   UNL     1       7.586   4.171  16.322  0.00  0.00    +0.000 HD
ENDROOT
BRANCH   3   5
ATOM      5  C   UNL     1       7.014   4.631  14.357  0.00  0.00    +0.000 A 
ATOM      6  C   UNL     1       7.860   5.405  13.551  0.00  0.00    +0.000 A 
ATOM      7  C   UNL     1       7.874   5.280  12.161  0.00  0.00    +0.000 A 
ATOM      8  C   UNL     1       7.034   4.368  11.541  0.00  0.00    +0.000 A 
ATOM      9  C   UNL     1       6.191   3.575  12.327  0.00  0.00    +0.000 A 
ATOM     10  C   UNL     1       6.182   3.689  13.735  0.00  0.00    +0.000 A 
BRANCH   9  11
ATOM     11  N   UNL     1       5.298   2.619  11.659  0.00  0.00    +0.000 N 
ATOM     12  O   UNL     1       4.142   2.985  11.411  0.00  0.00    +0.000 OA
ATOM     13  O   UNL     1       5.753   1.499  11.387  0.00  0.00    +0.000 OA
ENDBRANCH   9  11
ENDBRANCH   3   5
BRANCH   1  14
ATOM     14  C   UNL     1       6.288   5.641  18.003  0.00  0.00    +0.000 C 
BRANCH  14  15
ATOM     15  N   UNL     1       6.093   4.259  18.450  0.00  0.00    +0.000 N 
ATOM     16  C   UNL     1       4.933   3.855  19.030  0.00  0.00    +0.000 C 
ATOM     17  N   UNL     1       4.947   2.533  19.337  0.00  0.00    +0.000 N 
ATOM     18  O   UNL     1       3.982   4.582  19.270  0.00  0.00    +0.000 OA
ATOM     19  H   UNL     1       6.584   3.545  17.928  0.00  0.00    +0.000 HD
ATOM     20  H   UNL     1       5.834   2.132  19.609  0.00  0.00    +0.000 HD
ATOM     21  H   UNL     1       4.156   2.230  19.894  0.00  0.00    +0.000 HD
ENDBRANCH  14  15
BRANCH  14  23
ATOM     22  C   UNL     1       8.069   5.752  19.830  0.00  0.00    +0.000 C 
ATOM     23  C   UNL     1       7.727   6.092  18.377  0.00  0.00    +0.000 C 
ATOM     24  C   UNL     1       7.946   7.589  18.138  0.00  0.00    +0.000 C 
ENDBRANCH  14  23
ENDBRANCH   1  14
TORSDOF 5
ENDMDL
MODEL 2
REMARK VINA RESULT:      -7.3      0.982      1.258
REMARK  Name = 
REMARK  7 active torsions:
REMARK  status: ('A' for Active; 'I' for Inactive)
REMARK    1  A    between atoms: C_1  and  C_2
REMARK    2  A    between atoms: C_2  and  C_3
REMARK    3  A    between atoms: C_2  and  C_4
REMARK    4  A    between atoms: C_4  and  N_5
REMARK    5  A    between atoms: C_4  and  C_9
REMARK    6  A    between atoms: N_11  and  C_12
REMARK    7  A    between atoms: C_16  and  N_17
REMARK                            x       y       z     vdW  Elec       q    Type
REMARK                         _______ _______ _______ _____ _____    ______ ____
ROOT
ATOM      1  C   UNL     1       6.781   4.766  16.825  0.00  0.00    +0.000 C 
ATOM      2  O   UNL     1       7.862   4.169  16.836  0.00  0.00    +0.000 OA
ATOM      3  N   UNL     1       6.037   5.053  15.685  0.00  0.00    +0.000 N 
ATOM      4  H   UNL     1       5.168   5.569  15.811  0.00  0.00    +0.000 HD
ENDROOT
BRANCH   3   5
ATOM      5  C   UNL     1       6.419   4.719  14.357  0.00  0.00    +0.000 A 
ATOM      6  C   UNL     1       7.511   5.324  13.719  0.00  0.00    +0.000 A 
ATOM      7  C   UNL     1       7.865   5.012  12.406  0.00  0.00    +0.000 A 
ATOM      8  C   UNL     1       7.129   4.075  11.696  0.00  0.00    +0.000 A 
ATOM      9  C   UNL     1       6.043   3.449  12.318  0.00  0.00    +0.000 A 
ATOM     10  C   UNL     1       5.688   3.754  13.651  0.00  0.00    +0.000 A 
BRANCH   9  11
ATOM     11  N   UNL     1       5.264   2.467  11.553  0.00  0.00    +0.000 N 
ATOM     12  O   UNL     1       4.132   2.795  11.174  0.00  0.00    +0.000 OA
ATOM     13  O   UNL     1       5.783   1.363  11.335  0.00  0.00    +0.000 OA
ENDBRANCH   9  11
ENDBRANCH   3   5
BRANCH   1  14
ATOM     14  C   UNL     1       6.155   5.200  18.170  0.00  0.00    +0.000 C 
BRANCH  14  15
ATOM     15  N   UNL     1       6.030   3.991  18.989  0.00  0.00    +0.000 N 
ATOM     16  C   UNL     1       4.846   3.340  19.123  0.00  0.00    +0.000 C 
ATOM     17  N   UNL     1       4.956   2.229  19.894  0.00  0.00    +0.000 N 
ATOM     18  O   UNL     1       3.790   3.703  18.629  0.00  0.00    +0.000 OA
ATOM     19  H   UNL     1       6.853   3.405  19.051  0.00  0.00    +0.000 HD
ATOM     20  H   UNL     1       5.624   2.258  20.651  0.00  0.00    +0.000 HD
ATOM     21  H   UNL     1       4.069   1.799  20.128  0.00  0.00    +0.000 HD
ENDBRANCH  14  15
BRANCH  14  23
ATOM     22  C   UNL     1       7.742   7.182  17.900  0.00  0.00    +0.000 C 
ATOM     23  C   UNL     1       7.109   6.195  18.885  0.00  0.00    +0.000 C 
ATOM     24  C   UNL     1       8.213   5.479  19.669  0.00  0.00    +0.000 C 
ENDBRANCH  14  23
ENDBRANCH   1  14
TORSDOF 5
ENDMDL
MODEL 3
REMARK VINA RESULT:      -7.0      2.412      6.395
REMARK  Name = 
REMARK  7 active torsions:
REMARK  status: ('A' for Active; 'I' for Inactive)
REMARK    1  A    between atoms: C_1  and  C_2
REMARK    2  A    between atoms: C_2  and  C_3
REMARK    3  A    between atoms: C_2  and  C_4
REMARK    4  A    between atoms: C_4  and  N_5
REMARK    5  A    between atoms: C_4  and  C_9
REMARK    6  A    between atoms: N_11  and  C_12
REMARK    7  A    between atoms: C_16  and  N_17
REMARK                            x       y       z     vdW  Elec       q    Type
REMARK                         _______ _______ _______ _____ _____    ______ ____
ROOT
ATOM      1  C   UNL     1       5.834   4.923  17.565  0.00  0.00    +0.000 C 
ATOM      2  O   UNL     1       5.107   5.914  17.448  0.00  0.00    +0.000 OA
ATOM      3  N   UNL     1       5.406   3.659  17.962  0.00  0.00    +0.000 N 
ATOM      4  H   UNL     1       6.112   2.929  18.037  0.00  0.00    +0.000 HD
ENDROOT
BRANCH   3   5
ATOM      5  C   UNL     1       4.070   3.323  18.312  0.00  0.00    +0.000 A 
ATOM      6  C   UNL     1       3.050   3.223  17.357  0.00  0.00    +0.000 A 
ATOM      7  C   UNL     1       1.734   2.918  17.710  0.00  0.00    +0.000 A 
ATOM      8  C   UNL     1       1.408   2.702  19.040  0.00  0.00    +0.000 A 
ATOM      9  C   UNL     1       2.415   2.784  20.009  0.00  0.00    +0.000 A 
ATOM     10  C   UNL     1       3.750   3.080  19.655  0.00  0.00    +0.000 A 
BRANCH   9  11
ATOM     11  N   UNL     1       2.056   2.564  21.417  0.00  0.00    +0.000 N 
ATOM     12  O   UNL     1       0.883   2.768  21.753  0.00  0.00    +0.000 OA
ATOM     13  O   UNL     1       2.953   2.192  22.188  0.00  0.00    +0.000 OA
ENDBRANCH   9  11
ENDBRANCH   3   5
BRANCH   1  14
ATOM     14  C   UNL     1       7.332   5.049  17.206  0.00  0.00    +0.000 C 
BRANCH  14  15
ATOM     15  N   UNL     1       7.395   5.533  15.824  0.00  0.00    +0.000 N 
ATOM     16  C   UNL     1       6.954   4.780  14.784  0.00  0.00    +0.000 C 
ATOM     17  N   UNL     1       7.072   5.425  13.596  0.00  0.00    +0.000 N 
ATOM     18  O   UNL     1       6.512   3.646  14.881  0.00  0.00    +0.000 OA
ATOM     19  H   UNL     1       7.316   6.534  15.695  0.00  0.00    +0.000 HD
ATOM     20  H   UNL     1       7.856   6.054  13.489  0.00  0.00    +0.000 HD
ATOM     21  H   UNL     1       6.882   4.843  12.789  0.00  0.00    +0.000 HD
ENDBRANCH  14  15
BRANCH  14  23
ATOM     22  C   UNL     1       7.619   5.877  19.604  0.00  0.00    +0.000 C 
ATOM     23  C   UNL     1       7.998   6.098  18.137  0.00  0.00    +0.000 C 
ATOM     24  C   UNL     1       7.654   7.535  17.733  0.00  0.00    +0.000 C 
ENDBRANCH  14  23
ENDBRANCH   1  14
TORSDOF 5
ENDMDL
MODEL 4
REMARK VINA RESULT:      -6.8      2.649      6.785
REMARK  Name = 
REMARK  7 active torsions:
REMARK  status: ('A' for Active; 'I' for Inactive)
REMARK    1  A    between atoms: C_1  and  C_2
REMARK    2  A    between atoms: C_2  and  C_3
REMARK    3  A    between atoms: C_2  and  C_4
REMARK    4  A    between atoms: C_4  and  N_5
REMARK    5  A    between atoms: C_4  and  C_9
REMARK    6  A    between atoms: N_11  and  C_12
REMARK    7  A    between atoms: C_16  and  N_17
REMARK                            x       y       z     vdW  Elec       q    Type
REMARK                         _______ _______ _______ _____ _____    ______ ____
ROOT
ATOM      1  C   UNL     1       5.656   4.351  18.034  0.00  0.00    +0.000 C 
ATOM      2  O   UNL     1       5.902   4.343  19.243  0.00  0.00    +0.000 OA
ATOM      3  N   UNL     1       4.416   4.064  17.467  0.00  0.00    +0.000 N 
ATOM      4  H   UNL     1       4.351   4.088  16.452  0.00  0.00    +0.000 HD
ENDROOT
BRANCH   3   5
ATOM      5  C   UNL     1       3.252   3.699  18.196  0.00  0.00    +0.000 A 
ATOM      6  C   UNL     1       1.968   3.780  17.642  0.00  0.00    +0.000 A 
ATOM      7  C   UNL     1       0.826   3.445  18.372  0.00  0.00    +0.000 A 
ATOM      8  C   UNL     1       0.946   3.014  19.684  0.00  0.00    +0.000 A 
ATOM      9  C   UNL     1       2.221   2.913  20.253  0.00  0.00    +0.000 A 
ATOM     10  C   UNL     1       3.380   3.240  19.514  0.00  0.00    +0.000 A 
BRANCH   9  11
ATOM     11  N   UNL     1       2.336   2.466  21.647  0.00  0.00    +0.000 N 
ATOM     12  O   UNL     1       3.429   2.023  22.024  0.00  0.00    +0.000 OA
ATOM     13  O   UNL     1       1.330   2.554  22.366  0.00  0.00    +0.000 OA
ENDBRANCH   9  11
ENDBRANCH   3   5
BRANCH   1  14
ATOM     14  C   UNL     1       6.775   4.751  17.046  0.00  0.00    +0.000 C 
BRANCH  14  15
ATOM     15  N   UNL     1       6.370   4.260  15.726  0.00  0.00    +0.000 N 
ATOM     16  C   UNL     1       7.008   4.651  14.593  0.00  0.00    +0.000 C 
ATOM     17  N   UNL     1       6.499   4.056  13.485  0.00  0.00    +0.000 N 
ATOM     18  O   UNL     1       7.926   5.455  14.551  0.00  0.00    +0.000 OA
ATOM     19  H   UNL     1       5.971   3.331  15.696  0.00  0.00    +0.000 HD
ATOM     20  H   UNL     1       5.508   3.857  13.484  0.00  0.00    +0.000 HD
ATOM     21  H   UNL     1       6.858   4.428  12.614  0.00  0.00    +0.000 HD
ENDBRANCH  14  15
BRANCH  14  23
ATOM     22  C   UNL     1       7.779   6.843  18.113  0.00  0.00    +0.000 C 
ATOM     23  C   UNL     1       6.886   6.299  16.994  0.00  0.00    +0.000 C 
ATOM     24  C   UNL     1       5.515   6.981  17.059  0.00  0.00    +0.000 C 
ENDBRANCH  14  23
ENDBRANCH   1  14
TORSDOF 5
ENDMDL
MODEL 5
REMARK VINA RESULT:      -6.8      2.659      6.638
REMARK  Name = 
REMARK  7 active torsions:
REMARK  status: ('A' for Active; 'I' for Inactive)
REMARK    1  A    between atoms: C_1  and  C_2
REMARK    2  A    between atoms: C_2  and  C_3
REMARK    3  A    between atoms: C_2  and  C_4
REMARK    4  A    between atoms: C_4  and  N_5
REMARK    5  A    between atoms: C_4  and  C_9
REMARK    6  A    between atoms: N_11  and  C_12
REMARK    7  A    between atoms: C_16  and  N_17
REMARK                            x       y       z     vdW  Elec       q    Type
REMARK                         _______ _______ _______ _____ _____    ______ ____
ROOT
ATOM      1  C   UNL     1       5.282   4.274  16.170  0.00  0.00    +0.000 C 
ATOM      2  O   UNL     1       5.666   3.105  16.259  0.00  0.00    +0.000 OA
ATOM      3  N   UNL     1       4.198   4.815  16.856  0.00  0.00    +0.000 N 
ATOM      4  H   UNL     1       3.973   5.792  16.679  0.00  0.00    +0.000 HD
ENDROOT
BRANCH   3   5
ATOM      5  C   UNL     1       3.356   4.095  17.748  0.00  0.00    +0.000 A 
ATOM      6  C   UNL     1       1.994   3.892  17.490  0.00  0.00    +0.000 A 
ATOM      7  C   UNL     1       1.167   3.207  18.381  0.00  0.00    +0.000 A 
ATOM      8  C   UNL     1       1.692   2.703  19.562  0.00  0.00    +0.000 A 
ATOM      9  C   UNL     1       3.053   2.883  19.833  0.00  0.00    +0.000 A 
ATOM     10  C   UNL     1       3.896   3.565  18.928  0.00  0.00    +0.000 A 
BRANCH   9  11
ATOM     11  N   UNL     1       3.596   2.355  21.092  0.00  0.00    +0.000 N 
ATOM     12  O   UNL     1       4.758   1.928  21.086  0.00  0.00    +0.000 OA
ATOM     13  O   UNL     1       2.856   2.363  22.086  0.00  0.00    +0.000 OA
ENDBRANCH   9  11
ENDBRANCH   3   5
BRANCH   1  14
ATOM     14  C   UNL     1       6.072   5.254  15.272  0.00  0.00    +0.000 C 
BRANCH  14  15
ATOM     15  N   UNL     1       7.095   5.872  16.121  0.00  0.00    +0.000 N 
ATOM     16  C   UNL     1       6.784   6.837  17.024  0.00  0.00    +0.000 C 
ATOM     17  N   UNL     1       7.868   7.250  17.727  0.00  0.00    +0.000 N 
ATOM     18  O   UNL     1       5.668   7.304  17.190  0.00  0.00    +0.000 OA
ATOM     19  H   UNL     1       7.885   5.290  16.368  0.00  0.00    +0.000 HD
ATOM     20  H   UNL     1       8.757   7.253  17.245  0.00  0.00    +0.000 HD
ATOM     21  H   UNL     1       7.699   8.062  18.309  0.00  0.00    +0.000 HD
ENDBRANCH  14  15
BRANCH  14  23
ATOM     22  C   UNL     1       7.785   5.324  13.380  0.00  0.00    +0.000 C 
ATOM     23  C   UNL     1       6.773   4.460  14.137  0.00  0.00    +0.000 C 
ATOM     24  C   UNL     1       5.771   3.861  13.144  0.00  0.00    +0.000 C 
ENDBRANCH  14  23
ENDBRANCH   1  14
TORSDOF 5
ENDMDL
MODEL 6
REMARK VINA RESULT:      -6.6      3.009      4.838
REMARK  Name = 
REMARK  7 active torsions:
REMARK  status: ('A' for Active; 'I' for Inactive)
REMARK    1  A    between atoms: C_1  and  C_2
REMARK    2  A    between atoms: C_2  and  C_3
REMARK    3  A    between atoms: C_2  and  C_4
REMARK    4  A    between atoms: C_4  and  N_5
REMARK    5  A    between atoms: C_4  and  C_9
REMARK    6  A    between atoms: N_11  and  C_12
REMARK    7  A    between atoms: C_16  and  N_17
REMARK                            x       y       z     vdW  Elec       q    Type
REMARK                         _______ _______ _______ _____ _____    ______ ____
ROOT
ATOM      1  C   UNL     1       2.475   3.555  18.219  0.00  0.00    +0.000 C 
ATOM      2  O   UNL     1       1.621   3.852  17.379  0.00  0.00    +0.000 OA
ATOM      3  N   UNL     1       3.786   4.024  18.229  0.00  0.00    +0.000 N 
ATOM      4  H   UNL     1       4.397   3.687  18.970  0.00  0.00    +0.000 HD
ENDROOT
BRANCH   3   5
ATOM      5  C   UNL     1       4.345   4.901  17.260  0.00  0.00    +0.000 A 
ATOM      6  C   UNL     1       4.131   6.285  17.292  0.00  0.00    +0.000 A 
ATOM      7  C   UNL     1       4.661   7.138  16.322  0.00  0.00    +0.000 A 
ATOM      8  C   UNL     1       5.428   6.618  15.290  0.00  0.00    +0.000 A 
ATOM      9  C   UNL     1       5.665   5.240  15.247  0.00  0.00    +0.000 A 
ATOM     10  C   UNL     1       5.141   4.375  16.232  0.00  0.00    +0.000 A 
BRANCH   9  11
ATOM     11  N   UNL     1       6.470   4.699  14.143  0.00  0.00    +0.000 N 
ATOM     12  O   UNL     1       7.435   5.366  13.750  0.00  0.00    +0.000 OA
ATOM     13  O   UNL     1       6.131   3.606  13.665  0.00  0.00    +0.000 OA
ENDBRANCH   9  11
ENDBRANCH   3   5
BRANCH   1  14
ATOM     14  C   UNL     1       2.079   2.630  19.393  0.00  0.00    +0.000 C 
BRANCH  14  15
ATOM     15  N   UNL     1       3.318   2.282  20.094  0.00  0.00    +0.000 N 
ATOM     16  C   UNL     1       4.222   1.422  19.558  0.00  0.00    +0.000 C 
ATOM     17  N   UNL     1       5.311   1.263  20.351  0.00  0.00    +0.000 N 
ATOM     18  O   UNL     1       4.085   0.838  18.495  0.00  0.00    +0.000 OA
ATOM     19  H   UNL     1       3.707   2.994  20.698  0.00  0.00    +0.000 HD
ATOM     20  H   UNL     1       5.165   1.311  21.350  0.00  0.00    +0.000 HD
ATOM     21  H   UNL     1       5.938   0.526  20.049  0.00  0.00    +0.000 HD
ENDBRANCH  14  15
BRANCH  14  23
ATOM     22  C   UNL     1       1.534   4.884  20.463  0.00  0.00    +0.000 C 
ATOM     23  C   UNL     1       1.150   3.404  20.367  0.00  0.00    +0.000 C 
ATOM     24  C   UNL     1       1.138   2.789  21.770  0.00  0.00    +0.000 C 
ENDBRANCH  14  23
ENDBRANCH   1  14
TORSDOF 5
ENDMDL
MODEL 7
REMARK VINA RESULT:      -6.6      2.525      6.716
REMARK  Name = 
REMARK  7 active torsions:
REMARK  status: ('A' for Active; 'I' for Inactive)
REMARK    1  A    between atoms: C_1  and  C_2
REMARK    2  A    between atoms: C_2  and  C_3
REMARK    3  A    between atoms: C_2  and  C_4
REMARK    4  A    between atoms: C_4  and  N_5
REMARK    5  A    between atoms: C_4  and  C_9
REMARK    6  A    between atoms: N_11  and  C_12
REMARK    7  A    between atoms: C_16  and  N_17
REMARK                            x       y       z     vdW  Elec       q    Type
REMARK                         _______ _______ _______ _____ _____    ______ ____
ROOT
ATOM      1  C   UNL     1       6.103   4.307  17.730  0.00  0.00    +0.000 C 
ATOM      2  O   UNL     1       6.466   4.323  18.910  0.00  0.00    +0.000 OA
ATOM      3  N   UNL     1       4.882   3.819  17.274  0.00  0.00    +0.000 N 
ATOM      4  H   UNL     1       4.713   3.848  16.270  0.00  0.00    +0.000 HD
ENDROOT
BRANCH   3   5
ATOM      5  C   UNL     1       3.875   3.244  18.097  0.00  0.00    +0.000 A 
ATOM      6  C   UNL     1       3.168   2.095  17.719  0.00  0.00    +0.000 A 
ATOM      7  C   UNL     1       2.163   1.550  18.520  0.00  0.00    +0.000 A 
ATOM      8  C   UNL     1       1.843   2.148  19.729  0.00  0.00    +0.000 A 
ATOM      9  C   UNL     1       2.546   3.289  20.132  0.00  0.00    +0.000 A 
ATOM     10  C   UNL     1       3.572   3.836  19.330  0.00  0.00    +0.000 A 
BRANCH   9  11
ATOM     11  N   UNL     1       2.192   3.920  21.410  0.00  0.00    +0.000 N 
ATOM     12  O   UNL     1       1.881   5.118  21.396  0.00  0.00    +0.000 OA
ATOM     13  O   UNL     1       2.229   3.217  22.430  0.00  0.00    +0.000 OA
ENDBRANCH   9  11
ENDBRANCH   3   5
BRANCH   1  14
ATOM     14  C   UNL     1       7.034   4.914  16.655  0.00  0.00    +0.000 C 
BRANCH  14  15
ATOM     15  N   UNL     1       6.583   4.391  15.362  0.00  0.00    +0.000 N 
ATOM     16  C   UNL     1       7.177   4.759  14.198  0.00  0.00    +0.000 C 
ATOM     17  N   UNL     1       6.631   4.136  13.123  0.00  0.00    +0.000 N 
ATOM     18  O   UNL     1       8.089   5.566  14.104  0.00  0.00    +0.000 OA
ATOM     19  H   UNL     1       6.189   3.459  15.368  0.00  0.00    +0.000 HD
ATOM     20  H   UNL     1       5.642   3.932  13.163  0.00  0.00    +0.000 HD
ATOM     21  H   UNL     1       6.956   4.490  12.231  0.00  0.00    +0.000 HD
ENDBRANCH  14  15
BRANCH  14  23
ATOM     22  C   UNL     1       7.694   7.113  17.773  0.00  0.00    +0.000 C 
ATOM     23  C   UNL     1       6.879   6.459  16.653  0.00  0.00    +0.000 C 
ATOM     24  C   UNL     1       5.415   6.896  16.767  0.00  0.00    +0.000 C 
ENDBRANCH  14  23
ENDBRANCH   1  14
TORSDOF 5
ENDMDL
MODEL 8
REMARK VINA RESULT:      -6.6      4.580      8.036
REMARK  Name = 
REMARK  7 active torsions:
REMARK  status: ('A' for Active; 'I' for Inactive)
REMARK    1  A    between atoms: C_1  and  C_2
REMARK    2  A    between atoms: C_2  and  C_3
REMARK    3  A    between atoms: C_2  and  C_4
REMARK    4  A    between atoms: C_4  and  N_5
REMARK    5  A    between atoms: C_4  and  C_9
REMARK    6  A    between atoms: N_11  and  C_12
REMARK    7  A    between atoms: C_16  and  N_17
REMARK                            x       y       z     vdW  Elec       q    Type
REMARK                         _______ _______ _______ _____ _____    ______ ____
ROOT
ATOM      1  C   UNL     1       3.899   6.229  17.755  0.00  0.00    +0.000 C 
ATOM      2  O   UNL     1       4.650   7.172  17.489  0.00  0.00    +0.000 OA
ATOM      3  N   UNL     1       2.653   6.346  18.365  0.00  0.00    +0.000 N 
ATOM      4  H   UNL     1       2.139   5.486  18.546  0.00  0.00    +0.000 HD
ENDROOT
BRANCH   3   5
ATOM      5  C   UNL     1       2.067   7.568  18.793  0.00  0.00    +0.000 A 
ATOM      6  C   UNL     1       1.794   8.618  17.906  0.00  0.00    +0.000 A 
ATOM      7  C   UNL     1       1.242   9.825  18.336  0.00  0.00    +0.000 A 
ATOM      8  C   UNL     1       0.945  10.009  19.678  0.00  0.00    +0.000 A 
ATOM      9  C   UNL     1       1.196   8.969  20.579  0.00  0.00    +0.000 A 
ATOM     10  C   UNL     1       1.744   7.741  20.146  0.00  0.00    +0.000 A 
BRANCH   9  11
ATOM     11  N   UNL     1       0.888   9.179  22.000  0.00  0.00    +0.000 N 
ATOM     12  O   UNL     1      -0.282   9.016  22.368  0.00  0.00    +0.000 OA
ATOM     13  O   UNL     1       1.818   9.513  22.749  0.00  0.00    +0.000 OA
ENDBRANCH   9  11
ENDBRANCH   3   5
BRANCH   1  14
ATOM     14  C   UNL     1       4.323   4.799  17.350  0.00  0.00    +0.000 C 
BRANCH  14  15
ATOM     15  N   UNL     1       5.765   4.701  17.592  0.00  0.00    +0.000 N 
ATOM     16  C   UNL     1       6.625   4.299  16.621  0.00  0.00    +0.000 C 
ATOM     17  N   UNL     1       7.915   4.309  17.041  0.00  0.00    +0.000 N 
ATOM     18  O   UNL     1       6.296   3.950  15.498  0.00  0.00    +0.000 OA
ATOM     19  H   UNL     1       6.151   5.346  18.269  0.00  0.00    +0.000 HD
ATOM     20  H   UNL     1       8.085   4.089  18.013  0.00  0.00    +0.000 HD
ATOM     21  H   UNL     1       8.565   3.886  16.390  0.00  0.00    +0.000 HD
ENDBRANCH  14  15
BRANCH  14  23
ATOM     22  C   UNL     1       4.467   3.315  19.423  0.00  0.00    +0.000 C 
ATOM     23  C   UNL     1       3.590   3.770  18.253  0.00  0.00    +0.000 C 
ATOM     24  C   UNL     1       3.113   2.544  17.467  0.00  0.00    +0.000 C 
ENDBRANCH  14  23
ENDBRANCH   1  14
TORSDOF 5
ENDMDL
MODEL 9
REMARK VINA RESULT:      -6.6      4.660      7.860
REMARK  Name = 
REMARK  7 active torsions:
REMARK  status: ('A' for Active; 'I' for Inactive)
REMARK    1  A    between atoms: C_1  and  C_2
REMARK    2  A    between atoms: C_2  and  C_3
REMARK    3  A    between atoms: C_2  and  C_4
REMARK    4  A    between atoms: C_4  and  N_5
REMARK    5  A    between atoms: C_4  and  C_9
REMARK    6  A    between atoms: N_11  and  C_12
REMARK    7  A    between atoms: C_16  and  N_17
REMARK                            x       y       z     vdW  Elec       q    Type
REMARK                         _______ _______ _______ _____ _____    ______ ____
ROOT
ATOM      1  C   UNL     1       3.202   5.605  18.165  0.00  0.00    +0.000 C 
ATOM      2  O   UNL     1       2.109   5.131  17.842  0.00  0.00    +0.000 OA
ATOM      3  N   UNL     1       3.397   6.878  18.695  0.00  0.00    +0.000 N 
ATOM      4  H   UNL     1       4.354   7.155  18.904  0.00  0.00    +0.000 HD
ENDROOT
BRANCH   3   5
ATOM      5  C   UNL     1       2.368   7.832  18.923  0.00  0.00    +0.000 A 
ATOM      6  C   UNL     1       1.893   8.675  17.910  0.00  0.00    +0.000 A 
ATOM      7  C   UNL     1       0.901   9.628  18.147  0.00  0.00    +0.000 A 
ATOM      8  C   UNL     1       0.356   9.757  19.415  0.00  0.00    +0.000 A 
ATOM      9  C   UNL     1       0.806   8.916  20.438  0.00  0.00    +0.000 A 
ATOM     10  C   UNL     1       1.802   7.942  20.201  0.00  0.00    +0.000 A 
BRANCH   9  11
ATOM     11  N   UNL     1       0.230   9.068  21.781  0.00  0.00    +0.000 N 
ATOM     12  O   UNL     1      -0.735   8.353  22.081  0.00  0.00    +0.000 OA
ATOM     13  O   UNL     1       0.740   9.910  22.535  0.00  0.00    +0.000 OA
ENDBRANCH   9  11
ENDBRANCH   3   5
BRANCH   1  14
ATOM     14  C   UNL     1       4.467   4.726  18.030  0.00  0.00    +0.000 C 
BRANCH  14  15
ATOM     15  N   UNL     1       4.006   3.352  17.817  0.00  0.00    +0.000 N 
ATOM     16  C   UNL     1       4.173   2.390  18.761  0.00  0.00    +0.000 C 
ATOM     17  N   UNL     1       3.647   1.199  18.378  0.00  0.00    +0.000 N 
ATOM     18  O   UNL     1       4.740   2.552  19.830  0.00  0.00    +0.000 OA
ATOM     19  H   UNL     1       3.193   3.238  17.226  0.00  0.00    +0.000 HD
ATOM     20  H   UNL     1       3.680   0.975  17.393  0.00  0.00    +0.000 HD
ATOM     21  H   UNL     1       3.875   0.429  18.996  0.00  0.00    +0.000 HD
ENDBRANCH  14  15
BRANCH  14  23
ATOM     22  C   UNL     1       5.156   4.187  15.631  0.00  0.00    +0.000 C 
ATOM     23  C   UNL     1       5.279   5.183  16.788  0.00  0.00    +0.000 C 
ATOM     24  C   UNL     1       6.760   5.406  17.113  0.00  0.00    +0.000 C 
ENDBRANCH  14  23
ENDBRANCH   1  14
TORSDOF 5
ENDMDL
