MODEL 1
REMARK VINA RESULT:      -8.7      0.000      0.000
REMARK  Name = 
REMARK  9 active torsions:
REMARK  status: ('A' for Active; 'I' for Inactive)
REMARK    1  A    between atoms: C_2  and  C_3
REMARK    2  A    between atoms: N_5  and  C_6
REMARK    3  A    between atoms: C_11  and  O_12
REMARK    4  A    between atoms: O_12  and  C_13
REMARK    5  A    between atoms: N_16  and  C_17
REMARK    6  A    between atoms: C_20  and  N_21
REMARK    7  A    between atoms: N_24  and  C_25
REMARK    8  A    between atoms: C_29  and  O_30
REMARK    9  A    between atoms: O_30  and  C_31
REMARK                            x       y       z     vdW  Elec       q    Type
REMARK                         _______ _______ _______ _____ _____    ______ ____
ROOT
ATOM      1  C   UNL     1       4.494   4.245  18.513  0.00  0.00    +0.000 A 
ATOM      2  N   UNL     1       4.397   5.520  18.966  0.00  0.00    +0.000 NA
ATOM      3  C   UNL     1       3.180   5.976  19.272  0.00  0.00    +0.000 A 
ATOM      4  N   UNL     1       3.111   7.310  19.670  0.00  0.00    +0.000 N 
ATOM      5  N   UNL     1       2.072   5.239  19.112  0.00  0.00    +0.000 NA
ATOM      6  C   UNL     1       2.216   3.952  18.712  0.00  0.00    +0.000 A 
ATOM      7  C   UNL     1       3.426   3.380  18.423  0.00  0.00    +0.000 A 
ATOM      8 CL   UNL     1       3.536   1.743  17.936  0.00  0.00    +0.000 Cl
ATOM      9  H   UNL     1       4.033   7.721  19.597  0.00  0.00    +0.000 HD
ENDROOT
BRANCH   4  10
ATOM     10  C   UNL     1       2.052   8.204  19.425  0.00  0.00    +0.000 A 
ATOM     11  C   UNL     1       1.822   8.666  18.114  0.00  0.00    +0.000 A 
ATOM     12  C   UNL     1       0.738   9.487  17.788  0.00  0.00    +0.000 A 
ATOM     13  C   UNL     1      -0.185   9.871  18.754  0.00  0.00    +0.000 A 
ATOM     14  C   UNL     1       0.086   9.459  20.063  0.00  0.00    +0.000 A 
ATOM     15  C   UNL     1       1.202   8.682  20.427  0.00  0.00    +0.000 A 
BRANCH  13  16
ATOM     16  N   UNL     1      -1.277  10.659  18.476  0.00  0.00    +0.000 N 
ATOM     17  C   UNL     1      -1.462  11.982  19.079  0.00  0.00    +0.000 C 
ATOM     18  C   UNL     1      -2.942  12.145  19.493  0.00  0.00    +0.000 C 
ATOM     19  N   UNL     1      -3.871  11.949  18.358  0.00  0.00    +0.000 NA
ATOM     20  C   UNL     1      -5.254  12.106  18.799  0.00  0.00    +0.000 C 
ATOM     21  C   UNL     1      -3.651  10.603  17.779  0.00  0.00    +0.000 C 
ATOM     22  C   UNL     1      -2.182  10.370  17.348  0.00  0.00    +0.000 C 
ENDBRANCH  13  16
BRANCH  15  23
ATOM     23  O   UNL     1       1.222   8.490  21.779  0.00  0.00    +0.000 OA
ATOM     24  C   UNL     1       0.471   9.298  22.660  0.00  0.00    +0.000 C 
ENDBRANCH  15  23
ENDBRANCH   4  10
BRANCH   1  25
ATOM     25  O   UNL     1       5.725   3.819  18.052  0.00  0.00    +0.000 OA
BRANCH  25  31
ATOM     26  C   UNL     1       6.942   5.216  16.373  0.00  0.00    +0.000 A 
ATOM     27  C   UNL     1       7.134   5.477  15.007  0.00  0.00    +0.000 A 
ATOM     28  C   UNL     1       6.514   4.695  14.035  0.00  0.00    +0.000 A 
ATOM     29  C   UNL     1       5.676   3.655  14.420  0.00  0.00    +0.000 A 
ATOM     30  C   UNL     1       5.476   3.386  15.776  0.00  0.00    +0.000 A 
ATOM     31  C   UNL     1       6.127   4.136  16.766  0.00  0.00    +0.000 A 
BRANCH  26  34
ATOM     32  C   UNL     1       7.311   7.343  17.522  0.00  0.00    +0.000 C 
ATOM     33  O   UNL     1       6.295   7.909  17.129  0.00  0.00    +0.000 OA
ATOM     34  N   UNL     1       7.634   6.037  17.284  0.00  0.00    +0.000 N 
ATOM     35  H   UNL     1       8.280   5.571  17.914  0.00  0.00    +0.000 HD
BRANCH  32  37
ATOM     36  C   UNL     1       8.511   9.352  18.234  0.00  0.00    +0.000 C 
ATOM     37  C   UNL     1       8.292   8.041  18.386  0.00  0.00    +0.000 C 
ENDBRANCH  32  37
ENDBRANCH  26  34
ENDBRANCH  25  31
ENDBRANCH   1  25
TORSDOF 7
ENDMDL
MODEL 2
REMARK VINA RESULT:      -8.1      2.292      3.826
REMARK  Name = 
REMARK  9 active torsions:
REMARK  status: ('A' for Active; 'I' for Inactive)
REMARK    1  A    between atoms: C_2  and  C_3
REMARK    2  A    between atoms: N_5  and  C_6
REMARK    3  A    between atoms: C_11  and  O_12
REMARK    4  A    between atoms: O_12  and  C_13
REMARK    5  A    between atoms: N_16  and  C_17
REMARK    6  A    between atoms: C_20  and  N_21
REMARK    7  A    between atoms: N_24  and  C_25
REMARK    8  A    between atoms: C_29  and  O_30
REMARK    9  A    between atoms: O_30  and  C_31
REMARK                            x       y       z     vdW  Elec       q    Type
REMARK                         _______ _______ _______ _____ _____    ______ ____
ROOT
ATOM      1  C   UNL     1       2.980   4.549  19.052  0.00  0.00    +0.000 A 
ATOM      2  N   UNL     1       3.142   5.829  19.469  0.00  0.00    +0.000 NA
ATOM      3  C   UNL     1       2.202   6.344  20.265  0.00  0.00    +0.000 A 
ATOM      4  N   UNL     1       2.369   7.682  20.619  0.00  0.00    +0.000 N 
ATOM      5  N   UNL     1       1.109   5.659  20.627  0.00  0.00    +0.000 NA
ATOM      6  C   UNL     1       1.011   4.365  20.237  0.00  0.00    +0.000 A 
ATOM      7  C   UNL     1       1.947   3.735  19.462  0.00  0.00    +0.000 A 
ATOM      8 CL   UNL     1       1.766   2.091  19.019  0.00  0.00    +0.000 Cl
ATOM      9  H   UNL     1       3.181   8.049  20.137  0.00  0.00    +0.000 HD
ENDROOT
BRANCH   4  10
ATOM     10  C   UNL     1       1.347   8.624  20.840  0.00  0.00    +0.000 A 
ATOM     11  C   UNL     1       0.746   8.712  22.111  0.00  0.00    +0.000 A 
ATOM     12  C   UNL     1      -0.213   9.680  22.423  0.00  0.00    +0.000 A 
ATOM     13  C   UNL     1      -0.606  10.626  21.482  0.00  0.00    +0.000 A 
ATOM     14  C   UNL     1      -0.051  10.493  20.205  0.00  0.00    +0.000 A 
ATOM     15  C   UNL     1       0.872   9.491  19.851  0.00  0.00    +0.000 A 
BRANCH  13  16
ATOM     16  N   UNL     1      -1.530  11.609  21.748  0.00  0.00    +0.000 N 
ATOM     17  C   UNL     1      -2.240  12.325  20.686  0.00  0.00    +0.000 C 
ATOM     18  C   UNL     1      -2.302  13.828  21.044  0.00  0.00    +0.000 C 
ATOM     19  N   UNL     1      -2.938  14.069  22.359  0.00  0.00    +0.000 NA
ATOM     20  C   UNL     1      -2.967  15.499  22.655  0.00  0.00    +0.000 C 
ATOM     21  C   UNL     1      -2.190  13.328  23.401  0.00  0.00    +0.000 C 
ATOM     22  C   UNL     1      -2.084  11.814  23.100  0.00  0.00    +0.000 C 
ENDBRANCH  13  16
BRANCH  15  23
ATOM     23  O   UNL     1       1.186   9.587  18.525  0.00  0.00    +0.000 OA
ATOM     24  C   UNL     1       1.846  10.715  17.993  0.00  0.00    +0.000 C 
ENDBRANCH  15  23
ENDBRANCH   4  10
BRANCH   1  25
ATOM     25  O   UNL     1       3.865   4.062  18.109  0.00  0.00    +0.000 OA
BRANCH  25  31
ATOM     26  C   UNL     1       6.132   4.314  17.084  0.00  0.00    +0.000 A 
ATOM     27  C   UNL     1       7.462   4.708  17.301  0.00  0.00    +0.000 A 
ATOM     28  C   UNL     1       7.853   5.270  18.514  0.00  0.00    +0.000 A 
ATOM     29  C   UNL     1       6.921   5.424  19.533  0.00  0.00    +0.000 A 
ATOM     30  C   UNL     1       5.595   5.034  19.331  0.00  0.00    +0.000 A 
ATOM     31  C   UNL     1       5.175   4.507  18.101  0.00  0.00    +0.000 A 
BRANCH  26  34
ATOM     32  C   UNL     1       6.085   4.430  14.642  0.00  0.00    +0.000 C 
ATOM     33  O   UNL     1       6.776   5.438  14.522  0.00  0.00    +0.000 OA
ATOM     34  N   UNL     1       5.820   3.785  15.817  0.00  0.00    +0.000 N 
ATOM     35  H   UNL     1       5.553   2.806  15.788  0.00  0.00    +0.000 HD
BRANCH  32  37
ATOM     36  C   UNL     1       6.282   3.432  12.417  0.00  0.00    +0.000 C 
ATOM     37  C   UNL     1       5.505   3.752  13.459  0.00  0.00    +0.000 C 
ENDBRANCH  32  37
ENDBRANCH  26  34
ENDBRANCH  25  31
ENDBRANCH   1  25
TORSDOF 7
ENDMDL
MODEL 3
REMARK VINA RESULT:      -7.9      2.383      3.770
REMARK  Name = 
REMARK  9 active torsions:
REMARK  status: ('A' for Active; 'I' for Inactive)
REMARK    1  A    between atoms: C_2  and  C_3
REMARK    2  A    between atoms: N_5  and  C_6
REMARK    3  A    between atoms: C_11  and  O_12
REMARK    4  A    between atoms: O_12  and  C_13
REMARK    5  A    between atoms: N_16  and  C_17
REMARK    6  A    between atoms: C_20  and  N_21
REMARK    7  A    between atoms: N_24  and  C_25
REMARK    8  A    between atoms: C_29  and  O_30
REMARK    9  A    between atoms: O_30  and  C_31
REMARK                            x       y       z     vdW  Elec       q    Type
REMARK                         _______ _______ _______ _____ _____    ______ ____
ROOT
ATOM      1  C   UNL     1       2.927   5.077  18.917  0.00  0.00    +0.000 A 
ATOM      2  N   UNL     1       3.047   6.375  19.290  0.00  0.00    +0.000 NA
ATOM      3  C   UNL     1       2.153   6.854  20.159  0.00  0.00    +0.000 A 
ATOM      4  N   UNL     1       2.268   8.209  20.467  0.00  0.00    +0.000 N 
ATOM      5  N   UNL     1       1.141   6.115  20.633  0.00  0.00    +0.000 NA
ATOM      6  C   UNL     1       1.088   4.808  20.282  0.00  0.00    +0.000 A 
ATOM      7  C   UNL     1       1.987   4.214  19.438  0.00  0.00    +0.000 A 
ATOM      8 CL   UNL     1       1.869   2.551  19.048  0.00  0.00    +0.000 Cl
ATOM      9  H   UNL     1       3.009   8.610  19.906  0.00  0.00    +0.000 HD
ENDROOT
BRANCH   4  10
ATOM     10  C   UNL     1       1.215   9.094  20.761  0.00  0.00    +0.000 A 
ATOM     11  C   UNL     1       0.494   8.942  21.962  0.00  0.00    +0.000 A 
ATOM     12  C   UNL     1      -0.506   9.836  22.355  0.00  0.00    +0.000 A 
ATOM     13  C   UNL     1      -0.823  10.943  21.575  0.00  0.00    +0.000 A 
ATOM     14  C   UNL     1      -0.147  11.051  20.355  0.00  0.00    +0.000 A 
ATOM     15  C   UNL     1       0.821  10.132  19.910  0.00  0.00    +0.000 A 
BRANCH  13  16
ATOM     16  N   UNL     1      -1.784  11.860  21.930  0.00  0.00    +0.000 N 
ATOM     17  C   UNL     1      -1.952  12.325  23.310  0.00  0.00    +0.000 C 
ATOM     18  C   UNL     1      -3.460  12.392  23.640  0.00  0.00    +0.000 C 
ATOM     19  N   UNL     1      -4.207  13.257  22.698  0.00  0.00    +0.000 NA
ATOM     20  C   UNL     1      -5.624  13.284  23.047  0.00  0.00    +0.000 C 
ATOM     21  C   UNL     1      -4.010  12.753  21.319  0.00  0.00    +0.000 C 
ATOM     22  C   UNL     1      -2.516  12.654  20.925  0.00  0.00    +0.000 C 
ENDBRANCH  13  16
BRANCH  15  23
ATOM     23  O   UNL     1       1.259  10.475  18.663  0.00  0.00    +0.000 OA
ATOM     24  C   UNL     1       1.822  11.740  18.390  0.00  0.00    +0.000 C 
ENDBRANCH  15  23
ENDBRANCH   4  10
BRANCH   1  25
ATOM     25  O   UNL     1       3.752   4.618  17.908  0.00  0.00    +0.000 OA
BRANCH  25  31
ATOM     26  C   UNL     1       6.085   4.488  17.019  0.00  0.00    +0.000 A 
ATOM     27  C   UNL     1       7.446   4.670  17.312  0.00  0.00    +0.000 A 
ATOM     28  C   UNL     1       7.851   5.184  18.541  0.00  0.00    +0.000 A 
ATOM     29  C   UNL     1       6.898   5.503  19.501  0.00  0.00    +0.000 A 
ATOM     30  C   UNL     1       5.541   5.325  19.223  0.00  0.00    +0.000 A 
ATOM     31  C   UNL     1       5.115   4.849  17.975  0.00  0.00    +0.000 A 
BRANCH  26  34
ATOM     32  C   UNL     1       6.236   4.537  14.579  0.00  0.00    +0.000 C 
ATOM     33  O   UNL     1       7.118   5.387  14.495  0.00  0.00    +0.000 OA
ATOM     34  N   UNL     1       5.767   3.992  15.740  0.00  0.00    +0.000 N 
ATOM     35  H   UNL     1       5.316   3.083  15.706  0.00  0.00    +0.000 HD
BRANCH  32  37
ATOM     36  C   UNL     1       6.391   3.506  12.366  0.00  0.00    +0.000 C 
ATOM     37  C   UNL     1       5.620   3.949  13.366  0.00  0.00    +0.000 C 
ENDBRANCH  32  37
ENDBRANCH  26  34
ENDBRANCH  25  31
ENDBRANCH   1  25
TORSDOF 7
ENDMDL
MODEL 4
REMARK VINA RESULT:      -7.9      2.324      4.107
REMARK  Name = 
REMARK  9 active torsions:
REMARK  status: ('A' for Active; 'I' for Inactive)
REMARK    1  A    between atoms: C_2  and  C_3
REMARK    2  A    between atoms: N_5  and  C_6
REMARK    3  A    between atoms: C_11  and  O_12
REMARK    4  A    between atoms: O_12  and  C_13
REMARK    5  A    between atoms: N_16  and  C_17
REMARK    6  A    between atoms: C_20  and  N_21
REMARK    7  A    between atoms: N_24  and  C_25
REMARK    8  A    between atoms: C_29  and  O_30
REMARK    9  A    between atoms: O_30  and  C_31
REMARK                            x       y       z     vdW  Elec       q    Type
REMARK                         _______ _______ _______ _____ _____    ______ ____
ROOT
ATOM      1  C   UNL     1       2.562   7.059  18.311  0.00  0.00    +0.000 A 
ATOM      2  N   UNL     1       2.003   8.144  17.722  0.00  0.00    +0.000 NA
ATOM      3  C   UNL     1       1.332   8.995  18.502  0.00  0.00    +0.000 A 
ATOM      4  N   UNL     1       0.715  10.062  17.852  0.00  0.00    +0.000 N 
ATOM      5  N   UNL     1       1.169   8.793  19.817  0.00  0.00    +0.000 NA
ATOM      6  C   UNL     1       1.791   7.728  20.378  0.00  0.00    +0.000 A 
ATOM      7  C   UNL     1       2.541   6.828  19.670  0.00  0.00    +0.000 A 
ATOM      8 CL   UNL     1       3.312   5.512  20.447  0.00  0.00    +0.000 Cl
ATOM      9  H   UNL     1       0.849   9.958  16.853  0.00  0.00    +0.000 HD
ENDROOT
BRANCH   4  10
ATOM     10  C   UNL     1      -0.496  10.679  18.216  0.00  0.00    +0.000 A 
ATOM     11  C   UNL     1      -1.696  10.271  17.602  0.00  0.00    +0.000 A 
ATOM     12  C   UNL     1      -2.942  10.781  17.978  0.00  0.00    +0.000 A 
ATOM     13  C   UNL     1      -3.054  11.712  19.005  0.00  0.00    +0.000 A 
ATOM     14  C   UNL     1      -1.853  12.158  19.566  0.00  0.00    +0.000 A 
ATOM     15  C   UNL     1      -0.582  11.703  19.164  0.00  0.00    +0.000 A 
BRANCH  13  16
ATOM     16  N   UNL     1      -4.259  12.227  19.422  0.00  0.00    +0.000 N 
ATOM     17  C   UNL     1      -4.350  13.314  20.401  0.00  0.00    +0.000 C 
ATOM     18  C   UNL     1      -5.490  13.002  21.397  0.00  0.00    +0.000 C 
ATOM     19  N   UNL     1      -6.790  12.791  20.720  0.00  0.00    +0.000 NA
ATOM     20  C   UNL     1      -7.831  12.494  21.699  0.00  0.00    +0.000 C 
ATOM     21  C   UNL     1      -6.653  11.687  19.742  0.00  0.00    +0.000 C 
ATOM     22  C   UNL     1      -5.520  11.933  18.716  0.00  0.00    +0.000 C 
ENDBRANCH  13  16
BRANCH  15  23
ATOM     23  O   UNL     1       0.394  12.362  19.856  0.00  0.00    +0.000 OA
ATOM     24  C   UNL     1       0.296  13.736  20.162  0.00  0.00    +0.000 C 
ENDBRANCH  15  23
ENDBRANCH   4  10
BRANCH   1  25
ATOM     25  O   UNL     1       3.124   6.099  17.491  0.00  0.00    +0.000 OA
BRANCH  25  31
ATOM     26  C   UNL     1       3.814   3.696  17.534  0.00  0.00    +0.000 A 
ATOM     27  C   UNL     1       3.385   2.373  17.726  0.00  0.00    +0.000 A 
ATOM     28  C   UNL     1       2.077   2.094  18.115  0.00  0.00    +0.000 A 
ATOM     29  C   UNL     1       1.177   3.136  18.297  0.00  0.00    +0.000 A 
ATOM     30  C   UNL     1       1.590   4.457  18.107  0.00  0.00    +0.000 A 
ATOM     31  C   UNL     1       2.914   4.757  17.757  0.00  0.00    +0.000 A 
BRANCH  26  34
ATOM     32  C   UNL     1       6.135   4.268  18.049  0.00  0.00    +0.000 C 
ATOM     33  O   UNL     1       6.015   4.317  19.270  0.00  0.00    +0.000 OA
ATOM     34  N   UNL     1       5.161   3.885  17.171  0.00  0.00    +0.000 N 
ATOM     35  H   UNL     1       5.436   3.543  16.255  0.00  0.00    +0.000 HD
BRANCH  32  37
ATOM     36  C   UNL     1       7.467   4.898  16.096  0.00  0.00    +0.000 C 
ATOM     37  C   UNL     1       7.429   4.570  17.393  0.00  0.00    +0.000 C 
ENDBRANCH  32  37
ENDBRANCH  26  34
ENDBRANCH  25  31
ENDBRANCH   1  25
TORSDOF 7
ENDMDL
MODEL 5
REMARK VINA RESULT:      -7.9      1.868      3.352
REMARK  Name = 
REMARK  9 active torsions:
REMARK  status: ('A' for Active; 'I' for Inactive)
REMARK    1  A    between atoms: C_2  and  C_3
REMARK    2  A    between atoms: N_5  and  C_6
REMARK    3  A    between atoms: C_11  and  O_12
REMARK    4  A    between atoms: O_12  and  C_13
REMARK    5  A    between atoms: N_16  and  C_17
REMARK    6  A    between atoms: C_20  and  N_21
REMARK    7  A    between atoms: N_24  and  C_25
REMARK    8  A    between atoms: C_29  and  O_30
REMARK    9  A    between atoms: O_30  and  C_31
REMARK                            x       y       z     vdW  Elec       q    Type
REMARK                         _______ _______ _______ _____ _____    ______ ____
ROOT
ATOM      1  C   UNL     1       3.215   4.131  19.174  0.00  0.00    +0.000 A 
ATOM      2  N   UNL     1       3.338   5.416  19.590  0.00  0.00    +0.000 NA
ATOM      3  C   UNL     1       2.268   5.992  20.143  0.00  0.00    +0.000 A 
ATOM      4  N   UNL     1       2.411   7.333  20.497  0.00  0.00    +0.000 N 
ATOM      5  N   UNL     1       1.091   5.362  20.262  0.00  0.00    +0.000 NA
ATOM      6  C   UNL     1       1.024   4.062  19.887  0.00  0.00    +0.000 A 
ATOM      7  C   UNL     1       2.080   3.371  19.358  0.00  0.00    +0.000 A 
ATOM      8 CL   UNL     1       1.929   1.723  18.920  0.00  0.00    +0.000 Cl
ATOM      9  H   UNL     1       3.327   7.651  20.204  0.00  0.00    +0.000 HD
ENDROOT
BRANCH   4  10
ATOM     10  C   UNL     1       1.410   8.321  20.461  0.00  0.00    +0.000 A 
ATOM     11  C   UNL     1       0.720   8.653  21.643  0.00  0.00    +0.000 A 
ATOM     12  C   UNL     1      -0.225   9.682  21.696  0.00  0.00    +0.000 A 
ATOM     13  C   UNL     1      -0.512  10.448  20.572  0.00  0.00    +0.000 A 
ATOM     14  C   UNL     1       0.132  10.071  19.389  0.00  0.00    +0.000 A 
ATOM     15  C   UNL     1       1.042   9.002  19.297  0.00  0.00    +0.000 A 
BRANCH  13  16
ATOM     16  N   UNL     1      -1.417  11.483  20.581  0.00  0.00    +0.000 N 
ATOM     17  C   UNL     1      -1.675  12.288  21.778  0.00  0.00    +0.000 C 
ATOM     18  C   UNL     1      -3.196  12.530  21.906  0.00  0.00    +0.000 C 
ATOM     19  N   UNL     1      -3.768  13.176  20.704  0.00  0.00    +0.000 NA
ATOM     20  C   UNL     1      -5.205  13.378  20.869  0.00  0.00    +0.000 C 
ATOM     21  C   UNL     1      -3.485  12.332  19.519  0.00  0.00    +0.000 C 
ATOM     22  C   UNL     1      -1.975  12.044  19.337  0.00  0.00    +0.000 C 
ENDBRANCH  13  16
BRANCH  15  23
ATOM     23  O   UNL     1       1.458   8.846  18.005  0.00  0.00    +0.000 OA
ATOM     24  C   UNL     1       2.822   8.902  17.647  0.00  0.00    +0.000 C 
ENDBRANCH  15  23
ENDBRANCH   4  10
BRANCH   1  25
ATOM     25  O   UNL     1       4.267   3.580  18.467  0.00  0.00    +0.000 OA
BRANCH  25  31
ATOM     26  C   UNL     1       6.230   4.343  17.120  0.00  0.00    +0.000 A 
ATOM     27  C   UNL     1       7.456   5.028  17.147  0.00  0.00    +0.000 A 
ATOM     28  C   UNL     1       7.896   5.662  18.307  0.00  0.00    +0.000 A 
ATOM     29  C   UNL     1       7.123   5.598  19.460  0.00  0.00    +0.000 A 
ATOM     30  C   UNL     1       5.904   4.918  19.447  0.00  0.00    +0.000 A 
ATOM     31  C   UNL     1       5.426   4.311  18.276  0.00  0.00    +0.000 A 
BRANCH  26  34
ATOM     32  C   UNL     1       6.019   4.366  14.684  0.00  0.00    +0.000 C 
ATOM     33  O   UNL     1       6.670   5.388  14.482  0.00  0.00    +0.000 OA
ATOM     34  N   UNL     1       5.851   3.759  15.896  0.00  0.00    +0.000 N 
ATOM     35  H   UNL     1       5.613   2.772  15.919  0.00  0.00    +0.000 HD
BRANCH  32  37
ATOM     36  C   UNL     1       6.045   3.440  12.420  0.00  0.00    +0.000 C 
ATOM     37  C   UNL     1       5.382   3.630  13.567  0.00  0.00    +0.000 C 
ENDBRANCH  32  37
ENDBRANCH  26  34
ENDBRANCH  25  31
ENDBRANCH   1  25
TORSDOF 7
ENDMDL
MODEL 6
REMARK VINA RESULT:      -7.8      1.467      2.784
REMARK  Name = 
REMARK  9 active torsions:
REMARK  status: ('A' for Active; 'I' for Inactive)
REMARK    1  A    between atoms: C_2  and  C_3
REMARK    2  A    between atoms: N_5  and  C_6
REMARK    3  A    between atoms: C_11  and  O_12
REMARK    4  A    between atoms: O_12  and  C_13
REMARK    5  A    between atoms: N_16  and  C_17
REMARK    6  A    between atoms: C_20  and  N_21
REMARK    7  A    between atoms: N_24  and  C_25
REMARK    8  A    between atoms: C_29  and  O_30
REMARK    9  A    between atoms: O_30  and  C_31
REMARK                            x       y       z     vdW  Elec       q    Type
REMARK                         _______ _______ _______ _____ _____    ______ ____
ROOT
ATOM      1  C   UNL     1       3.457   4.332  19.240  0.00  0.00    +0.000 A 
ATOM      2  N   UNL     1       3.498   5.652  19.548  0.00  0.00    +0.000 NA
ATOM      3  C   UNL     1       2.360   6.230  19.941  0.00  0.00    +0.000 A 
ATOM      4  N   UNL     1       2.425   7.601  20.185  0.00  0.00    +0.000 N 
ATOM      5  N   UNL     1       1.197   5.567  20.002  0.00  0.00    +0.000 NA
ATOM      6  C   UNL     1       1.210   4.237  19.742  0.00  0.00    +0.000 A 
ATOM      7  C   UNL     1       2.335   3.546  19.380  0.00  0.00    +0.000 A 
ATOM      8 CL   UNL     1       2.280   1.862  19.080  0.00  0.00    +0.000 Cl
ATOM      9  H   UNL     1       3.355   7.930  19.955  0.00  0.00    +0.000 HD
ENDROOT
BRANCH   4  10
ATOM     10  C   UNL     1       1.402   8.541  19.965  0.00  0.00    +0.000 A 
ATOM     11  C   UNL     1       1.196   9.053  18.669  0.00  0.00    +0.000 A 
ATOM     12  C   UNL     1       0.145   9.924  18.364  0.00  0.00    +0.000 A 
ATOM     13  C   UNL     1      -0.769  10.310  19.339  0.00  0.00    +0.000 A 
ATOM     14  C   UNL     1      -0.520   9.847  20.635  0.00  0.00    +0.000 A 
ATOM     15  C   UNL     1       0.564   9.019  20.978  0.00  0.00    +0.000 A 
BRANCH  13  16
ATOM     16  N   UNL     1      -1.829  11.147  19.082  0.00  0.00    +0.000 N 
ATOM     17  C   UNL     1      -1.993  12.436  19.760  0.00  0.00    +0.000 C 
ATOM     18  C   UNL     1      -3.479  12.618  20.145  0.00  0.00    +0.000 C 
ATOM     19  N   UNL     1      -4.381  12.520  18.976  0.00  0.00    +0.000 NA
ATOM     20  C   UNL     1      -5.771  12.693  19.390  0.00  0.00    +0.000 C 
ATOM     21  C   UNL     1      -4.183  11.206  18.321  0.00  0.00    +0.000 C 
ATOM     22  C   UNL     1      -2.711  10.955  17.915  0.00  0.00    +0.000 C 
ENDBRANCH  13  16
BRANCH  15  23
ATOM     23  O   UNL     1       0.570   8.783  22.324  0.00  0.00    +0.000 OA
ATOM     24  C   UNL     1      -0.156   9.589  23.227  0.00  0.00    +0.000 C 
ENDBRANCH  15  23
ENDBRANCH   4  10
BRANCH   1  25
ATOM     25  O   UNL     1       4.591   3.766  18.689  0.00  0.00    +0.000 OA
BRANCH  25  31
ATOM     26  C   UNL     1       6.359   4.698  17.186  0.00  0.00    +0.000 A 
ATOM     27  C   UNL     1       7.555   5.431  17.123  0.00  0.00    +0.000 A 
ATOM     28  C   UNL     1       8.104   6.004  18.267  0.00  0.00    +0.000 A 
ATOM     29  C   UNL     1       7.473   5.831  19.493  0.00  0.00    +0.000 A 
ATOM     30  C   UNL     1       6.284   5.103  19.570  0.00  0.00    +0.000 A 
ATOM     31  C   UNL     1       5.695   4.556  18.421  0.00  0.00    +0.000 A 
BRANCH  26  34
ATOM     32  C   UNL     1       6.361   4.513  14.748  0.00  0.00    +0.000 C 
ATOM     33  O   UNL     1       7.398   5.139  14.546  0.00  0.00    +0.000 OA
ATOM     34  N   UNL     1       5.861   4.181  15.974  0.00  0.00    +0.000 N 
ATOM     35  H   UNL     1       5.224   3.393  16.046  0.00  0.00    +0.000 HD
BRANCH  32  37
ATOM     36  C   UNL     1       6.163   3.447  12.555  0.00  0.00    +0.000 C 
ATOM     37  C   UNL     1       5.558   3.978  13.623  0.00  0.00    +0.000 C 
ENDBRANCH  32  37
ENDBRANCH  26  34
ENDBRANCH  25  31
ENDBRANCH   1  25
TORSDOF 7
ENDMDL
MODEL 7
REMARK VINA RESULT:      -7.8      3.614     10.466
REMARK  Name = 
REMARK  9 active torsions:
REMARK  status: ('A' for Active; 'I' for Inactive)
REMARK    1  A    between atoms: C_2  and  C_3
REMARK    2  A    between atoms: N_5  and  C_6
REMARK    3  A    between atoms: C_11  and  O_12
REMARK    4  A    between atoms: O_12  and  C_13
REMARK    5  A    between atoms: N_16  and  C_17
REMARK    6  A    between atoms: C_20  and  N_21
REMARK    7  A    between atoms: N_24  and  C_25
REMARK    8  A    between atoms: C_29  and  O_30
REMARK    9  A    between atoms: O_30  and  C_31
REMARK                            x       y       z     vdW  Elec       q    Type
REMARK                         _______ _______ _______ _____ _____    ______ ____
ROOT
ATOM      1  C   UNL     1      -1.456  12.971  20.789  0.00  0.00    +0.000 A 
ATOM      2  N   UNL     1      -1.440  11.623  20.643  0.00  0.00    +0.000 NA
ATOM      3  C   UNL     1      -0.275  10.995  20.820  0.00  0.00    +0.000 A 
ATOM      4  N   UNL     1      -0.283   9.619  20.595  0.00  0.00    +0.000 N 
ATOM      5  N   UNL     1       0.862  11.649  21.095  0.00  0.00    +0.000 NA
ATOM      6  C   UNL     1       0.794  12.988  21.291  0.00  0.00    +0.000 A 
ATOM      7  C   UNL     1      -0.363  13.712  21.181  0.00  0.00    +0.000 A 
ATOM      8 CL   UNL     1      -0.379  15.402  21.456  0.00  0.00    +0.000 Cl
ATOM      9  H   UNL     1      -1.202   9.347  20.270  0.00  0.00    +0.000 HD
ENDROOT
BRANCH   4  10
ATOM     10  C   UNL     1       0.773   8.849  20.074  0.00  0.00    +0.000 A 
ATOM     11  C   UNL     1       1.228   7.722  20.786  0.00  0.00    +0.000 A 
ATOM     12  C   UNL     1       2.213   6.866  20.285  0.00  0.00    +0.000 A 
ATOM     13  C   UNL     1       2.780   7.082  19.033  0.00  0.00    +0.000 A 
ATOM     14  C   UNL     1       2.367   8.237  18.362  0.00  0.00    +0.000 A 
ATOM     15  C   UNL     1       1.421   9.146  18.871  0.00  0.00    +0.000 A 
BRANCH  13  16
ATOM     16  N   UNL     1       3.736   6.256  18.491  0.00  0.00    +0.000 N 
ATOM     17  C   UNL     1       4.032   4.932  19.042  0.00  0.00    +0.000 C 
ATOM     18  C   UNL     1       5.563   4.722  19.059  0.00  0.00    +0.000 C 
ATOM     19  N   UNL     1       6.169   4.881  17.718  0.00  0.00    +0.000 NA
ATOM     20  C   UNL     1       7.614   4.680  17.785  0.00  0.00    +0.000 C 
ATOM     21  C   UNL     1       5.846   6.231  17.199  0.00  0.00    +0.000 C 
ATOM     22  C   UNL     1       4.324   6.510  17.162  0.00  0.00    +0.000 C 
ENDBRANCH  13  16
BRANCH  15  23
ATOM     23  O   UNL     1       1.269  10.199  18.014  0.00  0.00    +0.000 OA
ATOM     24  C   UNL     1       2.196  11.262  17.964  0.00  0.00    +0.000 C 
ENDBRANCH  15  23
ENDBRANCH   4  10
BRANCH   1  25
ATOM     25  O   UNL     1      -2.620  13.640  20.460  0.00  0.00    +0.000 OA
BRANCH  25  31
ATOM     26  C   UNL     1      -4.455  12.349  19.356  0.00  0.00    +0.000 A 
ATOM     27  C   UNL     1      -5.751  11.828  19.500  0.00  0.00    +0.000 A 
ATOM     28  C   UNL     1      -6.432  11.927  20.711  0.00  0.00    +0.000 A 
ATOM     29  C   UNL     1      -5.830  12.569  21.788  0.00  0.00    +0.000 A 
ATOM     30  C   UNL     1      -4.543  13.092  21.657  0.00  0.00    +0.000 A 
ATOM     31  C   UNL     1      -3.826  12.963  20.458  0.00  0.00    +0.000 A 
BRANCH  26  34
ATOM     32  C   UNL     1      -3.481  10.957  17.598  0.00  0.00    +0.000 C 
ATOM     33  O   UNL     1      -3.816   9.869  18.058  0.00  0.00    +0.000 OA
ATOM     34  N   UNL     1      -3.831  12.175  18.106  0.00  0.00    +0.000 N 
ATOM     35  H   UNL     1      -3.814  12.984  17.492  0.00  0.00    +0.000 HD
BRANCH  32  37
ATOM     36  C   UNL     1      -2.730  10.065  15.447  0.00  0.00    +0.000 C 
ATOM     37  C   UNL     1      -2.682  11.050  16.353  0.00  0.00    +0.000 C 
ENDBRANCH  32  37
ENDBRANCH  26  34
ENDBRANCH  25  31
ENDBRANCH   1  25
TORSDOF 7
ENDMDL
MODEL 8
REMARK VINA RESULT:      -7.8      2.319      4.445
REMARK  Name = 
REMARK  9 active torsions:
REMARK  status: ('A' for Active; 'I' for Inactive)
REMARK    1  A    between atoms: C_2  and  C_3
REMARK    2  A    between atoms: N_5  and  C_6
REMARK    3  A    between atoms: C_11  and  O_12
REMARK    4  A    between atoms: O_12  and  C_13
REMARK    5  A    between atoms: N_16  and  C_17
REMARK    6  A    between atoms: C_20  and  N_21
REMARK    7  A    between atoms: N_24  and  C_25
REMARK    8  A    between atoms: C_29  and  O_30
REMARK    9  A    between atoms: O_30  and  C_31
REMARK                            x       y       z     vdW  Elec       q    Type
REMARK                         _______ _______ _______ _____ _____    ______ ____
ROOT
ATOM      1  C   UNL     1       2.466   7.524  18.405  0.00  0.00    +0.000 A 
ATOM      2  N   UNL     1       1.837   8.600  17.870  0.00  0.00    +0.000 NA
ATOM      3  C   UNL     1       1.042   9.314  18.672  0.00  0.00    +0.000 A 
ATOM      4  N   UNL     1       0.362  10.372  18.071  0.00  0.00    +0.000 N 
ATOM      5  N   UNL     1       0.824   8.982  19.952  0.00  0.00    +0.000 NA
ATOM      6  C   UNL     1       1.514   7.935  20.465  0.00  0.00    +0.000 A 
ATOM      7  C   UNL     1       2.388   7.175  19.736  0.00  0.00    +0.000 A 
ATOM      8 CL   UNL     1       3.239   5.873  20.453  0.00  0.00    +0.000 Cl
ATOM      9  H   UNL     1       0.563  10.368  17.078  0.00  0.00    +0.000 HD
ENDROOT
BRANCH   4  10
ATOM     10  C   UNL     1      -0.923  10.838  18.404  0.00  0.00    +0.000 A 
ATOM     11  C   UNL     1      -1.093  11.653  19.541  0.00  0.00    +0.000 A 
ATOM     12  C   UNL     1      -2.326  12.220  19.880  0.00  0.00    +0.000 A 
ATOM     13  C   UNL     1      -3.449  12.017  19.085  0.00  0.00    +0.000 A 
ATOM     14  C   UNL     1      -3.285  11.158  17.994  0.00  0.00    +0.000 A 
ATOM     15  C   UNL     1      -2.070  10.528  17.666  0.00  0.00    +0.000 A 
BRANCH  13  16
ATOM     16  N   UNL     1      -4.676  12.571  19.367  0.00  0.00    +0.000 N 
ATOM     17  C   UNL     1      -5.818  12.449  18.458  0.00  0.00    +0.000 C 
ATOM     18  C   UNL     1      -6.551  13.807  18.382  0.00  0.00    +0.000 C 
ATOM     19  N   UNL     1      -6.986  14.289  19.713  0.00  0.00    +0.000 NA
ATOM     20  C   UNL     1      -7.666  15.575  19.591  0.00  0.00    +0.000 C 
ATOM     21  C   UNL     1      -5.803  14.397  20.598  0.00  0.00    +0.000 C 
ATOM     22  C   UNL     1      -5.017  13.069  20.713  0.00  0.00    +0.000 C 
ENDBRANCH  13  16
BRANCH  15  23
ATOM     23  O   UNL     1      -2.239   9.710  16.585  0.00  0.00    +0.000 OA
ATOM     24  C   UNL     1      -2.766  10.183  15.365  0.00  0.00    +0.000 C 
ENDBRANCH  15  23
ENDBRANCH   4  10
BRANCH   1  25
ATOM     25  O   UNL     1       3.166   6.696  17.548  0.00  0.00    +0.000 OA
BRANCH  25  31
ATOM     26  C   UNL     1       4.133   4.391  17.572  0.00  0.00    +0.000 A 
ATOM     27  C   UNL     1       3.847   3.017  17.612  0.00  0.00    +0.000 A 
ATOM     28  C   UNL     1       2.538   2.562  17.754  0.00  0.00    +0.000 A 
ATOM     29  C   UNL     1       1.497   3.480  17.837  0.00  0.00    +0.000 A 
ATOM     30  C   UNL     1       1.768   4.848  17.797  0.00  0.00    +0.000 A 
ATOM     31  C   UNL     1       3.084   5.323  17.697  0.00  0.00    +0.000 A 
BRANCH  26  34
ATOM     32  C   UNL     1       6.302   4.989  18.530  0.00  0.00    +0.000 C 
ATOM     33  O   UNL     1       6.030   4.736  19.700  0.00  0.00    +0.000 OA
ATOM     34  N   UNL     1       5.487   4.759  17.458  0.00  0.00    +0.000 N 
ATOM     35  H   UNL     1       5.906   4.667  16.537  0.00  0.00    +0.000 HD
BRANCH  32  37
ATOM     36  C   UNL     1       7.885   6.838  18.290  0.00  0.00    +0.000 C 
ATOM     37  C   UNL     1       7.628   5.533  18.151  0.00  0.00    +0.000 C 
ENDBRANCH  32  37
ENDBRANCH  26  34
ENDBRANCH  25  31
ENDBRANCH   1  25
TORSDOF 7
ENDMDL
MODEL 9
REMARK VINA RESULT:      -7.8      2.335      4.263
REMARK  Name = 
REMARK  9 active torsions:
REMARK  status: ('A' for Active; 'I' for Inactive)
REMARK    1  A    between atoms: C_2  and  C_3
REMARK    2  A    between atoms: N_5  and  C_6
REMARK    3  A    between atoms: C_11  and  O_12
REMARK    4  A    between atoms: O_12  and  C_13
REMARK    5  A    between atoms: N_16  and  C_17
REMARK    6  A    between atoms: C_20  and  N_21
REMARK    7  A    between atoms: N_24  and  C_25
REMARK    8  A    between atoms: C_29  and  O_30
REMARK    9  A    between atoms: O_30  and  C_31
REMARK                            x       y       z     vdW  Elec       q    Type
REMARK                         _______ _______ _______ _____ _____    ______ ____
ROOT
ATOM      1  C   UNL     1       2.738   6.957  18.378  0.00  0.00    +0.000 A 
ATOM      2  N   UNL     1       2.270   8.107  17.833  0.00  0.00    +0.000 NA
ATOM      3  C   UNL     1       1.516   8.895  18.604  0.00  0.00    +0.000 A 
ATOM      4  N   UNL     1       0.998  10.034  17.990  0.00  0.00    +0.000 N 
ATOM      5  N   UNL     1       1.187   8.571  19.862  0.00  0.00    +0.000 NA
ATOM      6  C   UNL     1       1.722   7.443  20.389  0.00  0.00    +0.000 A 
ATOM      7  C   UNL     1       2.544   6.599  19.694  0.00  0.00    +0.000 A 
ATOM      8 CL   UNL     1       3.197   5.196  20.428  0.00  0.00    +0.000 Cl
ATOM      9  H   UNL     1       1.255  10.023  17.011  0.00  0.00    +0.000 HD
ENDROOT
BRANCH   4  10
ATOM     10  C   UNL     1      -0.242  10.641  18.261  0.00  0.00    +0.000 A 
ATOM     11  C   UNL     1      -1.397  10.192  17.590  0.00  0.00    +0.000 A 
ATOM     12  C   UNL     1      -2.672  10.693  17.873  0.00  0.00    +0.000 A 
ATOM     13  C   UNL     1      -2.859  11.655  18.860  0.00  0.00    +0.000 A 
ATOM     14  C   UNL     1      -1.701  12.139  19.477  0.00  0.00    +0.000 A 
ATOM     15  C   UNL     1      -0.402  11.694  19.167  0.00  0.00    +0.000 A 
BRANCH  13  16
ATOM     16  N   UNL     1      -4.095  12.161  19.187  0.00  0.00    +0.000 N 
ATOM     17  C   UNL     1      -5.320  11.745  18.499  0.00  0.00    +0.000 C 
ATOM     18  C   UNL     1      -6.198  12.990  18.235  0.00  0.00    +0.000 C 
ATOM     19  N   UNL     1      -6.517  13.729  19.476  0.00  0.00    +0.000 NA
ATOM     20  C   UNL     1      -7.341  14.897  19.176  0.00  0.00    +0.000 C 
ATOM     21  C   UNL     1      -5.254  14.130  20.139  0.00  0.00    +0.000 C 
ATOM     22  C   UNL     1      -4.321  12.927  20.427  0.00  0.00    +0.000 C 
ENDBRANCH  13  16
BRANCH  15  23
ATOM     23  O   UNL     1       0.521  12.391  19.894  0.00  0.00    +0.000 OA
ATOM     24  C   UNL     1       0.468  12.457  21.303  0.00  0.00    +0.000 C 
ENDBRANCH  15  23
ENDBRANCH   4  10
BRANCH   1  25
ATOM     25  O   UNL     1       3.388   6.068  17.543  0.00  0.00    +0.000 OA
BRANCH  25  31
ATOM     26  C   UNL     1       5.514   4.887  18.121  0.00  0.00    +0.000 A 
ATOM     27  C   UNL     1       6.910   5.001  18.224  0.00  0.00    +0.000 A 
ATOM     28  C   UNL     1       7.563   6.167  17.830  0.00  0.00    +0.000 A 
ATOM     29  C   UNL     1       6.824   7.240  17.347  0.00  0.00    +0.000 A 
ATOM     30  C   UNL     1       5.435   7.140  17.242  0.00  0.00    +0.000 A 
ATOM     31  C   UNL     1       4.766   5.958  17.593  0.00  0.00    +0.000 A 
BRANCH  26  34
ATOM     32  C   UNL     1       4.126   2.916  17.711  0.00  0.00    +0.000 C 
ATOM     33  O   UNL     1       3.933   3.108  16.514  0.00  0.00    +0.000 OA
ATOM     34  N   UNL     1       4.943   3.661  18.514  0.00  0.00    +0.000 N 
ATOM     35  H   UNL     1       5.310   3.242  19.362  0.00  0.00    +0.000 HD
BRANCH  32  37
ATOM     36  C   UNL     1       2.268   1.851  18.893  0.00  0.00    +0.000 C 
ATOM     37  C   UNL     1       3.513   1.762  18.411  0.00  0.00    +0.000 C 
ENDBRANCH  32  37
ENDBRANCH  26  34
ENDBRANCH  25  31
ENDBRANCH   1  25
TORSDOF 7
ENDMDL
