MODEL 1
REMARK VINA RESULT:      -7.8      0.000      0.000
REMARK  Name = 
REMARK  6 active torsions:
REMARK  status: ('A' for Active; 'I' for Inactive)
REMARK    1  A    between atoms: N_10  and  C_11
REMARK    2  A    between atoms: C_11  and  C_12
REMARK    3  A    between atoms: C_16  and  O_17
REMARK    4  A    between atoms: O_17  and  C_18
REMARK    5  A    between atoms: C_18  and  C_19
REMARK    6  A    between atoms: C_19  and  O_20
REMARK                            x       y       z     vdW  Elec       q    Type
REMARK                         _______ _______ _______ _____ _____    ______ ____
ROOT
ATOM      1  C   UNL     1       3.169   3.761  17.146  0.00  0.00    +0.000 C 
ENDROOT
BRANCH   1  11
ATOM      2  O   UNL     1       1.577   2.599  22.196  0.00  0.00    +0.000 OA
ATOM      3  C   UNL     1       2.432   3.184  21.535  0.00  0.00    +0.000 C 
ATOM      4  C   UNL     1       3.479   2.470  20.700  0.00  0.00    +0.000 C 
ATOM      5  C   UNL     1       3.102   2.428  19.202  0.00  0.00    +0.000 C 
ATOM      6  C   UNL     1       1.748   1.765  18.964  0.00  0.00    +0.000 C 
ATOM      7  C   UNL     1       0.739   2.904  19.039  0.00  0.00    +0.000 C 
ATOM      8  C   UNL     1       1.562   4.198  18.955  0.00  0.00    +0.000 C 
ATOM      9  C   UNL     1       1.537   5.030  20.273  0.00  0.00    +0.000 C 
ATOM     10  N   UNL     1       2.437   4.549  21.315  0.00  0.00    +0.000 N 
ATOM     11  N   UNL     1       2.956   3.786  18.614  0.00  0.00    +0.000 NA
ATOM     12  H   UNL     1       3.368   4.903  21.138  0.00  0.00    +0.000 HD
ENDBRANCH   1  11
BRANCH   1  13
ATOM     13  C   UNL     1       4.544   4.271  16.757  0.00  0.00    +0.000 A 
ATOM     14  C   UNL     1       5.220   3.756  15.643  0.00  0.00    +0.000 A 
ATOM     15  C   UNL     1       6.443   4.304  15.253  0.00  0.00    +0.000 A 
ATOM     16  C   UNL     1       6.996   5.368  15.969  0.00  0.00    +0.000 A 
ATOM     17  C   UNL     1       6.342   5.884  17.089  0.00  0.00    +0.000 A 
ATOM     18  C   UNL     1       5.131   5.316  17.488  0.00  0.00    +0.000 A 
BRANCH  17  19
ATOM     19  O   UNL     1       6.959   6.945  17.702  0.00  0.00    +0.000 OA
BRANCH  19  20
ATOM     20  C   UNL     1       7.982   6.602  18.648  0.00  0.00    +0.000 C 
BRANCH  20  21
ATOM     21  C   UNL     1       7.420   5.616  19.667  0.00  0.00    +0.000 C 
BRANCH  21  22
ATOM     22  O   UNL     1       8.383   5.326  20.676  0.00  0.00    +0.000 OA
ATOM     23  H   UNL     1       8.273   6.011  21.361  0.00  0.00    +0.000 HD
ENDBRANCH  21  22
ENDBRANCH  20  21
ENDBRANCH  19  20
ENDBRANCH  17  19
ENDBRANCH   1  13
TORSDOF 6
ENDMDL
MODEL 2
REMARK VINA RESULT:      -7.7      1.153      1.303
REMARK  Name = 
REMARK  6 active torsions:
REMARK  status: ('A' for Active; 'I' for Inactive)
REMARK    1  A    between atoms: N_10  and  C_11
REMARK    2  A    between atoms: C_11  and  C_12
REMARK    3  A    between atoms: C_16  and  O_17
REMARK    4  A    between atoms: O_17  and  C_18
REMARK    5  A    between atoms: C_18  and  C_19
REMARK    6  A    between atoms: C_19  and  O_20
REMARK                            x       y       z     vdW  Elec       q    Type
REMARK                         _______ _______ _______ _____ _____    ______ ____
ROOT
ATOM      1  C   UNL     1       3.037   4.041  17.200  0.00  0.00    +0.000 C 
ENDROOT
BRANCH   1  11
ATOM      2  O   UNL     1       1.698   2.540  22.234  0.00  0.00    +0.000 OA
ATOM      3  C   UNL     1       2.491   3.209  21.576  0.00  0.00    +0.000 C 
ATOM      4  C   UNL     1       3.551   2.604  20.674  0.00  0.00    +0.000 C 
ATOM      5  C   UNL     1       3.126   2.610  19.189  0.00  0.00    +0.000 C 
ATOM      6  C   UNL     1       1.808   1.873  18.961  0.00  0.00    +0.000 C 
ATOM      7  C   UNL     1       0.733   2.941  19.124  0.00  0.00    +0.000 C 
ATOM      8  C   UNL     1       1.470   4.288  19.079  0.00  0.00    +0.000 C 
ATOM      9  C   UNL     1       1.439   5.052  20.437  0.00  0.00    +0.000 C 
ATOM     10  N   UNL     1       2.403   4.581  21.424  0.00  0.00    +0.000 N 
ATOM     11  N   UNL     1       2.874   3.982  18.674  0.00  0.00    +0.000 NA
ATOM     12  H   UNL     1       3.303   5.001  21.236  0.00  0.00    +0.000 HD
ENDBRANCH   1  11
BRANCH   1  13
ATOM     13  C   UNL     1       4.437   4.461  16.793  0.00  0.00    +0.000 A 
ATOM     14  C   UNL     1       5.256   3.615  16.035  0.00  0.00    +0.000 A 
ATOM     15  C   UNL     1       6.504   4.058  15.596  0.00  0.00    +0.000 A 
ATOM     16  C   UNL     1       6.941   5.347  15.911  0.00  0.00    +0.000 A 
ATOM     17  C   UNL     1       6.144   6.198  16.678  0.00  0.00    +0.000 A 
ATOM     18  C   UNL     1       4.906   5.739  17.133  0.00  0.00    +0.000 A 
BRANCH  17  19
ATOM     19  O   UNL     1       6.657   7.450  16.906  0.00  0.00    +0.000 OA
BRANCH  19  20
ATOM     20  C   UNL     1       7.698   7.521  17.891  0.00  0.00    +0.000 C 
BRANCH  20  21
ATOM     21  C   UNL     1       8.197   8.958  17.998  0.00  0.00    +0.000 C 
BRANCH  21  22
ATOM     22  O   UNL     1       9.037   9.118  19.137  0.00  0.00    +0.000 OA
ATOM     23  H   UNL     1       9.681   9.813  18.905  0.00  0.00    +0.000 HD
ENDBRANCH  21  22
ENDBRANCH  20  21
ENDBRANCH  19  20
ENDBRANCH  17  19
ENDBRANCH   1  13
TORSDOF 6
ENDMDL
MODEL 3
REMARK VINA RESULT:      -7.6      1.684      3.012
REMARK  Name = 
REMARK  6 active torsions:
REMARK  status: ('A' for Active; 'I' for Inactive)
REMARK    1  A    between atoms: N_10  and  C_11
REMARK    2  A    between atoms: C_11  and  C_12
REMARK    3  A    between atoms: C_16  and  O_17
REMARK    4  A    between atoms: O_17  and  C_18
REMARK    5  A    between atoms: C_18  and  C_19
REMARK    6  A    between atoms: C_19  and  O_20
REMARK                            x       y       z     vdW  Elec       q    Type
REMARK                         _______ _______ _______ _____ _____    ______ ____
ROOT
ATOM      1  C   UNL     1       3.448   4.170  17.495  0.00  0.00    +0.000 C 
ENDROOT
BRANCH   1  11
ATOM      2  O   UNL     1       1.402   2.240  22.129  0.00  0.00    +0.000 OA
ATOM      3  C   UNL     1       2.272   2.967  21.656  0.00  0.00    +0.000 C 
ATOM      4  C   UNL     1       3.465   2.447  20.875  0.00  0.00    +0.000 C 
ATOM      5  C   UNL     1       3.265   2.576  19.348  0.00  0.00    +0.000 C 
ATOM      6  C   UNL     1       2.010   1.854  18.866  0.00  0.00    +0.000 C 
ATOM      7  C   UNL     1       0.904   2.898  18.954  0.00  0.00    +0.000 C 
ATOM      8  C   UNL     1       1.614   4.248  19.131  0.00  0.00    +0.000 C 
ATOM      9  C   UNL     1       1.368   4.895  20.529  0.00  0.00    +0.000 C 
ATOM     10  N   UNL     1       2.183   4.346  21.606  0.00  0.00    +0.000 N 
ATOM     11  N   UNL     1       3.069   3.985  18.918  0.00  0.00    +0.000 NA
ATOM     12  H   UNL     1       3.093   4.786  21.591  0.00  0.00    +0.000 HD
ENDBRANCH   1  11
BRANCH   1  13
ATOM     13  C   UNL     1       4.787   4.868  17.343  0.00  0.00    +0.000 A 
ATOM     14  C   UNL     1       5.423   5.461  18.441  0.00  0.00    +0.000 A 
ATOM     15  C   UNL     1       6.695   6.017  18.296  0.00  0.00    +0.000 A 
ATOM     16  C   UNL     1       7.338   5.982  17.056  0.00  0.00    +0.000 A 
ATOM     17  C   UNL     1       6.712   5.407  15.949  0.00  0.00    +0.000 A 
ATOM     18  C   UNL     1       5.431   4.874  16.096  0.00  0.00    +0.000 A 
BRANCH  17  19
ATOM     19  O   UNL     1       7.444   5.402  14.788  0.00  0.00    +0.000 OA
BRANCH  19  20
ATOM     20  C   UNL     1       6.917   4.590  13.730  0.00  0.00    +0.000 C 
BRANCH  20  21
ATOM     21  C   UNL     1       7.647   4.914  12.431  0.00  0.00    +0.000 C 
BRANCH  21  22
ATOM     22  O   UNL     1       8.398   6.118  12.559  0.00  0.00    +0.000 OA
ATOM     23  H   UNL     1       9.191   6.005  12.003  0.00  0.00    +0.000 HD
ENDBRANCH  21  22
ENDBRANCH  20  21
ENDBRANCH  19  20
ENDBRANCH  17  19
ENDBRANCH   1  13
TORSDOF 6
ENDMDL
MODEL 4
REMARK VINA RESULT:      -7.6      2.001      3.621
REMARK  Name = 
REMARK  6 active torsions:
REMARK  status: ('A' for Active; 'I' for Inactive)
REMARK    1  A    between atoms: N_10  and  C_11
REMARK    2  A    between atoms: C_11  and  C_12
REMARK    3  A    between atoms: C_16  and  O_17
REMARK    4  A    between atoms: O_17  and  C_18
REMARK    5  A    between atoms: C_18  and  C_19
REMARK    6  A    between atoms: C_19  and  O_20
REMARK                            x       y       z     vdW  Elec       q    Type
REMARK                         _______ _______ _______ _____ _____    ______ ____
ROOT
ATOM      1  C   UNL     1       5.198   4.353  19.963  0.00  0.00    +0.000 C 
ENDROOT
BRANCH   1  11
ATOM      2  O   UNL     1       0.295   2.320  18.858  0.00  0.00    +0.000 OA
ATOM      3  C   UNL     1       1.305   2.804  18.353  0.00  0.00    +0.000 C 
ATOM      4  C   UNL     1       1.698   4.263  18.499  0.00  0.00    +0.000 C 
ATOM      5  C   UNL     1       2.778   4.470  19.584  0.00  0.00    +0.000 C 
ATOM      6  C   UNL     1       2.339   3.941  20.947  0.00  0.00    +0.000 C 
ATOM      7  C   UNL     1       2.801   2.490  20.968  0.00  0.00    +0.000 C 
ATOM      8  C   UNL     1       3.785   2.347  19.797  0.00  0.00    +0.000 C 
ATOM      9  C   UNL     1       3.256   1.424  18.657  0.00  0.00    +0.000 C 
ATOM     10  N   UNL     1       2.302   2.057  17.753  0.00  0.00    +0.000 N 
ATOM     11  N   UNL     1       4.032   3.729  19.288  0.00  0.00    +0.000 NA
ATOM     12  H   UNL     1       2.808   2.586  17.056  0.00  0.00    +0.000 HD
ENDBRANCH   1  11
BRANCH   1  13
ATOM     13  C   UNL     1       5.975   5.268  19.036  0.00  0.00    +0.000 A 
ATOM     14  C   UNL     1       7.194   5.835  19.431  0.00  0.00    +0.000 A 
ATOM     15  C   UNL     1       7.934   6.600  18.530  0.00  0.00    +0.000 A 
ATOM     16  C   UNL     1       7.464   6.803  17.229  0.00  0.00    +0.000 A 
ATOM     17  C   UNL     1       6.245   6.257  16.824  0.00  0.00    +0.000 A 
ATOM     18  C   UNL     1       5.498   5.512  17.739  0.00  0.00    +0.000 A 
BRANCH  17  19
ATOM     19  O   UNL     1       5.891   6.495  15.520  0.00  0.00    +0.000 OA
BRANCH  19  20
ATOM     20  C   UNL     1       5.517   5.337  14.761  0.00  0.00    +0.000 C 
BRANCH  20  21
ATOM     21  C   UNL     1       6.772   4.584  14.333  0.00  0.00    +0.000 C 
BRANCH  21  22
ATOM     22  O   UNL     1       7.806   5.493  13.966  0.00  0.00    +0.000 OA
ATOM     23  H   UNL     1       8.400   5.002  13.367  0.00  0.00    +0.000 HD
ENDBRANCH  21  22
ENDBRANCH  20  21
ENDBRANCH  19  20
ENDBRANCH  17  19
ENDBRANCH   1  13
TORSDOF 6
ENDMDL
MODEL 5
REMARK VINA RESULT:      -7.6      2.380      6.016
REMARK  Name = 
REMARK  6 active torsions:
REMARK  status: ('A' for Active; 'I' for Inactive)
REMARK    1  A    between atoms: N_10  and  C_11
REMARK    2  A    between atoms: C_11  and  C_12
REMARK    3  A    between atoms: C_16  and  O_17
REMARK    4  A    between atoms: O_17  and  C_18
REMARK    5  A    between atoms: C_18  and  C_19
REMARK    6  A    between atoms: C_19  and  O_20
REMARK                            x       y       z     vdW  Elec       q    Type
REMARK                         _______ _______ _______ _____ _____    ______ ____
ROOT
ATOM      1  C   UNL     1       3.964   3.730  16.899  0.00  0.00    +0.000 C 
ENDROOT
BRANCH   1  11
ATOM      2  O   UNL     1       7.958   7.387  16.639  0.00  0.00    +0.000 OA
ATOM      3  C   UNL     1       7.115   6.890  17.382  0.00  0.00    +0.000 C 
ATOM      4  C   UNL     1       5.623   7.127  17.232  0.00  0.00    +0.000 C 
ATOM      5  C   UNL     1       4.916   5.956  16.513  0.00  0.00    +0.000 C 
ATOM      6  C   UNL     1       5.510   5.681  15.134  0.00  0.00    +0.000 C 
ATOM      7  C   UNL     1       6.620   4.667  15.385  0.00  0.00    +0.000 C 
ATOM      8  C   UNL     1       6.388   4.136  16.807  0.00  0.00    +0.000 C 
ATOM      9  C   UNL     1       7.507   4.552  17.810  0.00  0.00    +0.000 C 
ATOM     10  N   UNL     1       7.393   5.913  18.320  0.00  0.00    +0.000 N 
ATOM     11  N   UNL     1       5.062   4.669  17.241  0.00  0.00    +0.000 NA
ATOM     12  H   UNL     1       6.735   5.925  19.088  0.00  0.00    +0.000 HD
ENDBRANCH   1  11
BRANCH   1  13
ATOM     13  C   UNL     1       2.893   3.685  17.972  0.00  0.00    +0.000 A 
ATOM     14  C   UNL     1       2.199   2.502  18.255  0.00  0.00    +0.000 A 
ATOM     15  C   UNL     1       1.282   2.463  19.307  0.00  0.00    +0.000 A 
ATOM     16  C   UNL     1       1.054   3.603  20.081  0.00  0.00    +0.000 A 
ATOM     17  C   UNL     1       1.726   4.794  19.803  0.00  0.00    +0.000 A 
ATOM     18  C   UNL     1       2.625   4.832  18.735  0.00  0.00    +0.000 A 
BRANCH  17  19
ATOM     19  O   UNL     1       1.448   5.844  20.642  0.00  0.00    +0.000 OA
BRANCH  19  20
ATOM     20  C   UNL     1       2.033   7.101  20.273  0.00  0.00    +0.000 C 
BRANCH  20  21
ATOM     21  C   UNL     1       1.241   8.236  20.914  0.00  0.00    +0.000 C 
BRANCH  21  22
ATOM     22  O   UNL     1       1.794   8.586  22.180  0.00  0.00    +0.000 OA
ATOM     23  H   UNL     1       1.868   9.559  22.184  0.00  0.00    +0.000 HD
ENDBRANCH  21  22
ENDBRANCH  20  21
ENDBRANCH  19  20
ENDBRANCH  17  19
ENDBRANCH   1  13
TORSDOF 6
ENDMDL
MODEL 6
REMARK VINA RESULT:      -7.4      4.313      6.873
REMARK  Name = 
REMARK  6 active torsions:
REMARK  status: ('A' for Active; 'I' for Inactive)
REMARK    1  A    between atoms: N_10  and  C_11
REMARK    2  A    between atoms: C_11  and  C_12
REMARK    3  A    between atoms: C_16  and  O_17
REMARK    4  A    between atoms: O_17  and  C_18
REMARK    5  A    between atoms: C_18  and  C_19
REMARK    6  A    between atoms: C_19  and  O_20
REMARK                            x       y       z     vdW  Elec       q    Type
REMARK                         _______ _______ _______ _____ _____    ______ ____
ROOT
ATOM      1  C   UNL     1       3.425   7.141  17.170  0.00  0.00    +0.000 C 
ENDROOT
BRANCH   1  11
ATOM      2  O   UNL     1       8.047   4.388  17.840  0.00  0.00    +0.000 OA
ATOM      3  C   UNL     1       7.337   5.267  18.323  0.00  0.00    +0.000 C 
ATOM      4  C   UNL     1       7.149   6.634  17.691  0.00  0.00    +0.000 C 
ATOM      5  C   UNL     1       5.827   6.734  16.898  0.00  0.00    +0.000 C 
ATOM      6  C   UNL     1       5.725   5.671  15.807  0.00  0.00    +0.000 C 
ATOM      7  C   UNL     1       5.060   4.480  16.486  0.00  0.00    +0.000 C 
ATOM      8  C   UNL     1       4.488   5.017  17.807  0.00  0.00    +0.000 C 
ATOM      9  C   UNL     1       5.201   4.439  19.067  0.00  0.00    +0.000 C 
ATOM     10  N   UNL     1       6.477   5.066  19.387  0.00  0.00    +0.000 N 
ATOM     11  N   UNL     1       4.632   6.503  17.751  0.00  0.00    +0.000 NA
ATOM     12  H   UNL     1       6.307   5.918  19.905  0.00  0.00    +0.000 HD
ENDBRANCH   1  11
BRANCH   1  13
ATOM     13  C   UNL     1       2.542   7.769  18.232  0.00  0.00    +0.000 A 
ATOM     14  C   UNL     1       2.421   7.199  19.505  0.00  0.00    +0.000 A 
ATOM     15  C   UNL     1       1.675   7.843  20.493  0.00  0.00    +0.000 A 
ATOM     16  C   UNL     1       1.047   9.060  20.216  0.00  0.00    +0.000 A 
ATOM     17  C   UNL     1       1.146   9.635  18.949  0.00  0.00    +0.000 A 
ATOM     18  C   UNL     1       1.874   8.974  17.959  0.00  0.00    +0.000 A 
BRANCH  17  19
ATOM     19  O   UNL     1       0.514  10.844  18.793  0.00  0.00    +0.000 OA
BRANCH  19  20
ATOM     20  C   UNL     1      -0.889  10.851  19.095  0.00  0.00    +0.000 C 
BRANCH  20  21
ATOM     21  C   UNL     1      -1.681  11.101  17.816  0.00  0.00    +0.000 C 
BRANCH  21  22
ATOM     22  O   UNL     1      -1.450  12.420  17.329  0.00  0.00    +0.000 OA
ATOM     23  H   UNL     1      -2.036  13.007  17.843  0.00  0.00    +0.000 HD
ENDBRANCH  21  22
ENDBRANCH  20  21
ENDBRANCH  19  20
ENDBRANCH  17  19
ENDBRANCH   1  13
TORSDOF 6
ENDMDL
MODEL 7
REMARK VINA RESULT:      -7.4      0.824      1.326
REMARK  Name = 
REMARK  6 active torsions:
REMARK  status: ('A' for Active; 'I' for Inactive)
REMARK    1  A    between atoms: N_10  and  C_11
REMARK    2  A    between atoms: C_11  and  C_12
REMARK    3  A    between atoms: C_16  and  O_17
REMARK    4  A    between atoms: O_17  and  C_18
REMARK    5  A    between atoms: C_18  and  C_19
REMARK    6  A    between atoms: C_19  and  O_20
REMARK                            x       y       z     vdW  Elec       q    Type
REMARK                         _______ _______ _______ _____ _____    ______ ____
ROOT
ATOM      1  C   UNL     1       3.222   3.725  17.237  0.00  0.00    +0.000 C 
ENDROOT
BRANCH   1  11
ATOM      2  O   UNL     1       1.452   2.635  22.244  0.00  0.00    +0.000 OA
ATOM      3  C   UNL     1       2.352   3.177  21.606  0.00  0.00    +0.000 C 
ATOM      4  C   UNL     1       3.381   2.412  20.794  0.00  0.00    +0.000 C 
ATOM      5  C   UNL     1       3.038   2.393  19.287  0.00  0.00    +0.000 C 
ATOM      6  C   UNL     1       1.658   1.800  19.015  0.00  0.00    +0.000 C 
ATOM      7  C   UNL     1       0.707   2.989  19.069  0.00  0.00    +0.000 C 
ATOM      8  C   UNL     1       1.596   4.240  19.009  0.00  0.00    +0.000 C 
ATOM      9  C   UNL     1       1.582   5.069  20.329  0.00  0.00    +0.000 C 
ATOM     10  N   UNL     1       2.431   4.540  21.390  0.00  0.00    +0.000 N 
ATOM     11  N   UNL     1       2.976   3.757  18.700  0.00  0.00    +0.000 NA
ATOM     12  H   UNL     1       3.383   4.847  21.237  0.00  0.00    +0.000 HD
ENDBRANCH   1  11
BRANCH   1  13
ATOM     13  C   UNL     1       4.679   3.971  16.895  0.00  0.00    +0.000 A 
ATOM     14  C   UNL     1       5.125   3.957  15.568  0.00  0.00    +0.000 A 
ATOM     15  C   UNL     1       6.451   4.275  15.271  0.00  0.00    +0.000 A 
ATOM     16  C   UNL     1       7.338   4.610  16.297  0.00  0.00    +0.000 A 
ATOM     17  C   UNL     1       6.914   4.615  17.627  0.00  0.00    +0.000 A 
ATOM     18  C   UNL     1       5.592   4.273  17.918  0.00  0.00    +0.000 A 
BRANCH  17  19
ATOM     19  O   UNL     1       7.859   4.984  18.551  0.00  0.00    +0.000 OA
BRANCH  19  20
ATOM     20  C   UNL     1       7.948   6.391  18.814  0.00  0.00    +0.000 C 
BRANCH  20  21
ATOM     21  C   UNL     1       7.121   7.153  17.783  0.00  0.00    +0.000 C 
BRANCH  21  22
ATOM     22  O   UNL     1       7.901   8.170  17.161  0.00  0.00    +0.000 OA
ATOM     23  H   UNL     1       8.002   8.879  17.823  0.00  0.00    +0.000 HD
ENDBRANCH  21  22
ENDBRANCH  20  21
ENDBRANCH  19  20
ENDBRANCH  17  19
ENDBRANCH   1  13
TORSDOF 6
ENDMDL
MODEL 8
REMARK VINA RESULT:      -7.3      2.217      3.963
REMARK  Name = 
REMARK  6 active torsions:
REMARK  status: ('A' for Active; 'I' for Inactive)
REMARK    1  A    between atoms: N_10  and  C_11
REMARK    2  A    between atoms: C_11  and  C_12
REMARK    3  A    between atoms: C_16  and  O_17
REMARK    4  A    between atoms: O_17  and  C_18
REMARK    5  A    between atoms: C_18  and  C_19
REMARK    6  A    between atoms: C_19  and  O_20
REMARK                            x       y       z     vdW  Elec       q    Type
REMARK                         _______ _______ _______ _____ _____    ______ ____
ROOT
ATOM      1  C   UNL     1       5.273   4.359  19.538  0.00  0.00    +0.000 C 
ENDROOT
BRANCH   1  11
ATOM      2  O   UNL     1       0.255   2.399  18.931  0.00  0.00    +0.000 OA
ATOM      3  C   UNL     1       1.250   2.784  18.322  0.00  0.00    +0.000 C 
ATOM      4  C   UNL     1       1.696   4.234  18.278  0.00  0.00    +0.000 C 
ATOM      5  C   UNL     1       2.841   4.523  19.275  0.00  0.00    +0.000 C 
ATOM      6  C   UNL     1       2.462   4.168  20.711  0.00  0.00    +0.000 C 
ATOM      7  C   UNL     1       2.880   2.713  20.874  0.00  0.00    +0.000 C 
ATOM      8  C   UNL     1       3.792   2.401  19.678  0.00  0.00    +0.000 C 
ATOM      9  C   UNL     1       3.171   1.375  18.681  0.00  0.00    +0.000 C 
ATOM     10  N   UNL     1       2.188   1.937  17.762  0.00  0.00    +0.000 N 
ATOM     11  N   UNL     1       4.053   3.707  19.001  0.00  0.00    +0.000 NA
ATOM     12  H   UNL     1       2.670   2.365  16.982  0.00  0.00    +0.000 HD
ENDBRANCH   1  11
BRANCH   1  13
ATOM     13  C   UNL     1       5.989   5.188  18.489  0.00  0.00    +0.000 A 
ATOM     14  C   UNL     1       6.878   6.208  18.853  0.00  0.00    +0.000 A 
ATOM     15  C   UNL     1       7.593   6.897  17.872  0.00  0.00    +0.000 A 
ATOM     16  C   UNL     1       7.426   6.571  16.524  0.00  0.00    +0.000 A 
ATOM     17  C   UNL     1       6.534   5.567  16.143  0.00  0.00    +0.000 A 
ATOM     18  C   UNL     1       5.805   4.898  17.128  0.00  0.00    +0.000 A 
BRANCH  17  19
ATOM     19  O   UNL     1       6.467   5.310  14.797  0.00  0.00    +0.000 OA
BRANCH  19  20
ATOM     20  C   UNL     1       6.260   3.936  14.440  0.00  0.00    +0.000 C 
BRANCH  20  21
ATOM     21  C   UNL     1       5.986   3.837  12.943  0.00  0.00    +0.000 C 
BRANCH  21  22
ATOM     22  O   UNL     1       6.288   2.532  12.459  0.00  0.00    +0.000 OA
ATOM     23  H   UNL     1       7.257   2.499  12.351  0.00  0.00    +0.000 HD
ENDBRANCH  21  22
ENDBRANCH  20  21
ENDBRANCH  19  20
ENDBRANCH  17  19
ENDBRANCH   1  13
TORSDOF 6
ENDMDL
MODEL 9
REMARK VINA RESULT:      -7.3      2.852      4.483
REMARK  Name = 
REMARK  6 active torsions:
REMARK  status: ('A' for Active; 'I' for Inactive)
REMARK    1  A    between atoms: N_10  and  C_11
REMARK    2  A    between atoms: C_11  and  C_12
REMARK    3  A    between atoms: C_16  and  O_17
REMARK    4  A    between atoms: O_17  and  C_18
REMARK    5  A    between atoms: C_18  and  C_19
REMARK    6  A    between atoms: C_19  and  O_20
REMARK                            x       y       z     vdW  Elec       q    Type
REMARK                         _______ _______ _______ _____ _____    ______ ____
ROOT
ATOM      1  C   UNL     1       4.799   5.310  17.877  0.00  0.00    +0.000 C 
ENDROOT
BRANCH   1  11
ATOM      2  O   UNL     1       0.401   2.569  19.470  0.00  0.00    +0.000 OA
ATOM      3  C   UNL     1       1.186   2.731  18.539  0.00  0.00    +0.000 C 
ATOM      4  C   UNL     1       1.243   3.996  17.702  0.00  0.00    +0.000 C 
ATOM      5  C   UNL     1       2.390   4.934  18.140  0.00  0.00    +0.000 C 
ATOM      6  C   UNL     1       2.289   5.323  19.613  0.00  0.00    +0.000 C 
ATOM      7  C   UNL     1       3.076   4.250  20.353  0.00  0.00    +0.000 C 
ATOM      8  C   UNL     1       3.886   3.508  19.280  0.00  0.00    +0.000 C 
ATOM      9  C   UNL     1       3.428   2.032  19.073  0.00  0.00    +0.000 C 
ATOM     10  N   UNL     1       2.232   1.874  18.254  0.00  0.00    +0.000 N 
ATOM     11  N   UNL     1       3.726   4.294  18.019  0.00  0.00    +0.000 NA
ATOM     12  H   UNL     1       2.494   1.903  17.277  0.00  0.00    +0.000 HD
ENDBRANCH   1  11
BRANCH   1  13
ATOM     13  C   UNL     1       5.576   5.147  16.585  0.00  0.00    +0.000 A 
ATOM     14  C   UNL     1       6.925   5.514  16.498  0.00  0.00    +0.000 A 
ATOM     15  C   UNL     1       7.643   5.271  15.327  0.00  0.00    +0.000 A 
ATOM     16  C   UNL     1       7.020   4.658  14.237  0.00  0.00    +0.000 A 
ATOM     17  C   UNL     1       5.673   4.299  14.301  0.00  0.00    +0.000 A 
ATOM     18  C   UNL     1       4.955   4.566  15.468  0.00  0.00    +0.000 A 
BRANCH  17  19
ATOM     19  O   UNL     1       5.168   3.680  13.185  0.00  0.00    +0.000 OA
BRANCH  19  20
ATOM     20  C   UNL     1       6.135   3.321  12.188  0.00  0.00    +0.000 C 
BRANCH  20  21
ATOM     21  C   UNL     1       5.689   2.042  11.487  0.00  0.00    +0.000 C 
BRANCH  21  22
ATOM     22  O   UNL     1       6.810   1.224  11.165  0.00  0.00    +0.000 OA
ATOM     23  H   UNL     1       6.811   1.133  10.194  0.00  0.00    +0.000 HD
ENDBRANCH  21  22
ENDBRANCH  20  21
ENDBRANCH  19  20
ENDBRANCH  17  19
ENDBRANCH   1  13
TORSDOF 6
ENDMDL
