MODEL 1
REMARK VINA RESULT:      -5.5      0.000      0.000
REMARK  Name = 
REMARK  1 active torsions:
REMARK  status: ('A' for Active; 'I' for Inactive)
REMARK    1  A    between atoms: C_1  and  C_2
REMARK                            x       y       z     vdW  Elec       q    Type
REMARK                         _______ _______ _______ _____ _____    ______ ____
ROOT
ATOM      1  C   UNL     1       7.976   5.932  19.448  0.00  0.00    +0.000 C 
ATOM      2  C   UNL     1       7.244   5.209  18.350  0.00  0.00    +0.000 C 
ATOM      3  O   UNL     1       6.552   4.226  18.596  0.00  0.00    +0.000 OA
ATOM      4  N   UNL     1       7.444   5.744  17.104  0.00  0.00    +0.000 N 
ATOM      5  C   UNL     1       6.917   5.200  15.925  0.00  0.00    +0.000 A 
ATOM      6  C   UNL     1       5.703   4.508  15.859  0.00  0.00    +0.000 A 
ATOM      7  N   UNL     1       5.245   3.925  14.721  0.00  0.00    +0.000 NA
ATOM      8  C   UNL     1       6.056   4.039  13.649  0.00  0.00    +0.000 A 
ATOM      9 BR   UNL     1       5.563   3.167  12.044  0.00  0.00    +0.000 Br
ATOM     10  C   UNL     1       7.246   4.754  13.708  0.00  0.00    +0.000 A 
ATOM     11  N   UNL     1       7.688   5.377  14.832  0.00  0.00    +0.000 NA
ATOM     12  H   UNL     1       8.248   6.332  16.946  0.00  0.00    +0.000 HD
ENDROOT
TORSDOF 0
ENDMDL
MODEL 2
REMARK VINA RESULT:      -5.3      4.382      5.457
REMARK  Name = 
REMARK  1 active torsions:
REMARK  status: ('A' for Active; 'I' for Inactive)
REMARK    1  A    between atoms: C_1  and  C_2
REMARK                            x       y       z     vdW  Elec       q    Type
REMARK                         _______ _______ _______ _____ _____    ______ ____
ROOT
ATOM      1  C   UNL     1       0.787   2.237  18.897  0.00  0.00    +0.000 C 
ATOM      2  C   UNL     1       1.699   3.314  18.377  0.00  0.00    +0.000 C 
ATOM      3  O   UNL     1       1.415   3.946  17.365  0.00  0.00    +0.000 OA
ATOM      4  N   UNL     1       2.836   3.486  19.123  0.00  0.00    +0.000 N 
ATOM      5  C   UNL     1       3.860   4.385  18.794  0.00  0.00    +0.000 A 
ATOM      6  C   UNL     1       3.652   5.593  18.122  0.00  0.00    +0.000 A 
ATOM      7  N   UNL     1       4.666   6.415  17.748  0.00  0.00    +0.000 NA
ATOM      8  C   UNL     1       5.905   5.977  18.051  0.00  0.00    +0.000 A 
ATOM      9 BR   UNL     1       7.392   6.994  17.474  0.00  0.00    +0.000 Br
ATOM     10  C   UNL     1       6.108   4.792  18.747  0.00  0.00    +0.000 A 
ATOM     11  N   UNL     1       5.095   3.986  19.163  0.00  0.00    +0.000 NA
ATOM     12  H   UNL     1       3.141   2.742  19.732  0.00  0.00    +0.000 HD
ENDROOT
TORSDOF 0
ENDMDL
MODEL 3
REMARK VINA RESULT:      -5.3      3.248      3.955
REMARK  Name = 
REMARK  1 active torsions:
REMARK  status: ('A' for Active; 'I' for Inactive)
REMARK    1  A    between atoms: C_1  and  C_2
REMARK                            x       y       z     vdW  Elec       q    Type
REMARK                         _______ _______ _______ _____ _____    ______ ____
ROOT
ATOM      1  C   UNL     1       8.219   8.141  17.959  0.00  0.00    +0.000 C 
ATOM      2  C   UNL     1       7.155   7.162  17.543  0.00  0.00    +0.000 C 
ATOM      3  O   UNL     1       6.457   7.373  16.556  0.00  0.00    +0.000 OA
ATOM      4  N   UNL     1       7.053   6.070  18.365  0.00  0.00    +0.000 N 
ATOM      5  C   UNL     1       6.092   5.062  18.212  0.00  0.00    +0.000 A 
ATOM      6  C   UNL     1       5.563   4.669  16.978  0.00  0.00    +0.000 A 
ATOM      7  N   UNL     1       4.580   3.740  16.858  0.00  0.00    +0.000 NA
ATOM      8  C   UNL     1       4.123   3.230  18.020  0.00  0.00    +0.000 A 
ATOM      9 BR   UNL     1       2.676   2.012  17.969  0.00  0.00    +0.000 Br
ATOM     10  C   UNL     1       4.672   3.599  19.242  0.00  0.00    +0.000 A 
ATOM     11  N   UNL     1       5.686   4.494  19.367  0.00  0.00    +0.000 NA
ATOM     12  H   UNL     1       7.428   6.124  19.300  0.00  0.00    +0.000 HD
ENDROOT
TORSDOF 0
ENDMDL
MODEL 4
REMARK VINA RESULT:      -5.2      4.194      4.791
REMARK  Name = 
REMARK  1 active torsions:
REMARK  status: ('A' for Active; 'I' for Inactive)
REMARK    1  A    between atoms: C_1  and  C_2
REMARK                            x       y       z     vdW  Elec       q    Type
REMARK                         _______ _______ _______ _____ _____    ______ ____
ROOT
ATOM      1  C   UNL     1       1.618   2.629  21.530  0.00  0.00    +0.000 C 
ATOM      2  C   UNL     1       2.243   2.795  20.172  0.00  0.00    +0.000 C 
ATOM      3  O   UNL     1       1.851   2.138  19.213  0.00  0.00    +0.000 OA
ATOM      4  N   UNL     1       3.263   3.711  20.139  0.00  0.00    +0.000 N 
ATOM      5  C   UNL     1       4.033   3.985  19.001  0.00  0.00    +0.000 A 
ATOM      6  C   UNL     1       3.550   3.896  17.692  0.00  0.00    +0.000 A 
ATOM      7  N   UNL     1       4.333   4.094  16.600  0.00  0.00    +0.000 NA
ATOM      8  C   UNL     1       5.629   4.364  16.861  0.00  0.00    +0.000 A 
ATOM      9 BR   UNL     1       6.827   4.546  15.408  0.00  0.00    +0.000 Br
ATOM     10  C   UNL     1       6.099   4.483  18.163  0.00  0.00    +0.000 A 
ATOM     11  N   UNL     1       5.312   4.330  19.260  0.00  0.00    +0.000 NA
ATOM     12  H   UNL     1       3.721   3.966  21.001  0.00  0.00    +0.000 HD
ENDROOT
TORSDOF 0
ENDMDL
MODEL 5
REMARK VINA RESULT:      -5.2      3.459      3.926
REMARK  Name = 
REMARK  1 active torsions:
REMARK  status: ('A' for Active; 'I' for Inactive)
REMARK    1  A    between atoms: C_1  and  C_2
REMARK                            x       y       z     vdW  Elec       q    Type
REMARK                         _______ _______ _______ _____ _____    ______ ____
ROOT
ATOM      1  C   UNL     1       8.024   8.415  17.589  0.00  0.00    +0.000 C 
ATOM      2  C   UNL     1       7.462   7.109  18.078  0.00  0.00    +0.000 C 
ATOM      3  O   UNL     1       8.120   6.373  18.807  0.00  0.00    +0.000 OA
ATOM      4  N   UNL     1       6.196   6.844  17.624  0.00  0.00    +0.000 N 
ATOM      5  C   UNL     1       5.498   5.660  17.896  0.00  0.00    +0.000 A 
ATOM      6  C   UNL     1       5.651   4.916  19.070  0.00  0.00    +0.000 A 
ATOM      7  N   UNL     1       5.020   3.732  19.282  0.00  0.00    +0.000 NA
ATOM      8  C   UNL     1       4.242   3.303  18.267  0.00  0.00    +0.000 A 
ATOM      9 BR   UNL     1       3.407   1.612  18.417  0.00  0.00    +0.000 Br
ATOM     10  C   UNL     1       4.066   4.060  17.115  0.00  0.00    +0.000 A 
ATOM     11  N   UNL     1       4.660   5.266  16.914  0.00  0.00    +0.000 NA
ATOM     12  H   UNL     1       5.859   7.326  16.804  0.00  0.00    +0.000 HD
ENDROOT
TORSDOF 0
ENDMDL
MODEL 6
REMARK VINA RESULT:      -5.2      4.541      5.548
REMARK  Name = 
REMARK  1 active torsions:
REMARK  status: ('A' for Active; 'I' for Inactive)
REMARK    1  A    between atoms: C_1  and  C_2
REMARK                            x       y       z     vdW  Elec       q    Type
REMARK                         _______ _______ _______ _____ _____    ______ ____
ROOT
ATOM      1  C   UNL     1       6.990   4.424  15.459  0.00  0.00    +0.000 C 
ATOM      2  C   UNL     1       6.169   4.498  16.717  0.00  0.00    +0.000 C 
ATOM      3  O   UNL     1       6.491   5.245  17.636  0.00  0.00    +0.000 OA
ATOM      4  N   UNL     1       5.081   3.663  16.721  0.00  0.00    +0.000 N 
ATOM      5  C   UNL     1       4.211   3.515  17.809  0.00  0.00    +0.000 A 
ATOM      6  C   UNL     1       3.918   4.537  18.718  0.00  0.00    +0.000 A 
ATOM      7  N   UNL     1       3.129   4.352  19.808  0.00  0.00    +0.000 NA
ATOM      8  C   UNL     1       2.658   3.099  19.973  0.00  0.00    +0.000 A 
ATOM      9 BR   UNL     1       1.641   2.709  21.520  0.00  0.00    +0.000 Br
ATOM     10  C   UNL     1       2.924   2.094  19.051  0.00  0.00    +0.000 A 
ATOM     11  N   UNL     1       3.676   2.283  17.935  0.00  0.00    +0.000 NA
ATOM     12  H   UNL     1       5.064   2.878  16.088  0.00  0.00    +0.000 HD
ENDROOT
TORSDOF 0
ENDMDL
MODEL 7
REMARK VINA RESULT:      -5.2      3.946      4.625
REMARK  Name = 
REMARK  1 active torsions:
REMARK  status: ('A' for Active; 'I' for Inactive)
REMARK    1  A    between atoms: C_1  and  C_2
REMARK                            x       y       z     vdW  Elec       q    Type
REMARK                         _______ _______ _______ _____ _____    ______ ____
ROOT
ATOM      1  C   UNL     1       7.855   6.730  18.254  0.00  0.00    +0.000 C 
ATOM      2  C   UNL     1       6.723   5.903  18.801  0.00  0.00    +0.000 C 
ATOM      3  O   UNL     1       6.838   5.304  19.865  0.00  0.00    +0.000 OA
ATOM      4  N   UNL     1       5.610   5.889  18.002  0.00  0.00    +0.000 N 
ATOM      5  C   UNL     1       4.460   5.137  18.275  0.00  0.00    +0.000 A 
ATOM      6  C   UNL     1       4.013   4.834  19.565  0.00  0.00    +0.000 A 
ATOM      7  N   UNL     1       2.937   4.042  19.808  0.00  0.00    +0.000 NA
ATOM      8  C   UNL     1       2.330   3.542  18.713  0.00  0.00    +0.000 A 
ATOM      9 BR   UNL     1       0.889   2.338  18.945  0.00  0.00    +0.000 Br
ATOM     10  C   UNL     1       2.756   3.870  17.431  0.00  0.00    +0.000 A 
ATOM     11  N   UNL     1       3.804   4.697  17.180  0.00  0.00    +0.000 NA
ATOM     12  H   UNL     1       5.703   6.135  17.028  0.00  0.00    +0.000 HD
ENDROOT
TORSDOF 0
ENDMDL
MODEL 8
REMARK VINA RESULT:      -5.1      3.206      5.119
REMARK  Name = 
REMARK  1 active torsions:
REMARK  status: ('A' for Active; 'I' for Inactive)
REMARK    1  A    between atoms: C_1  and  C_2
REMARK                            x       y       z     vdW  Elec       q    Type
REMARK                         _______ _______ _______ _____ _____    ______ ____
ROOT
ATOM      1  C   UNL     1       5.038   2.864  11.530  0.00  0.00    +0.000 C 
ATOM      2  C   UNL     1       5.868   3.522  12.597  0.00  0.00    +0.000 C 
ATOM      3  O   UNL     1       7.066   3.727  12.427  0.00  0.00    +0.000 OA
ATOM      4  N   UNL     1       5.166   3.836  13.732  0.00  0.00    +0.000 N 
ATOM      5  C   UNL     1       5.743   4.394  14.881  0.00  0.00    +0.000 A 
ATOM      6  C   UNL     1       6.850   5.249  14.861  0.00  0.00    +0.000 A 
ATOM      7  N   UNL     1       7.439   5.721  15.990  0.00  0.00    +0.000 NA
ATOM      8  C   UNL     1       6.896   5.290  17.148  0.00  0.00    +0.000 A 
ATOM      9 BR   UNL     1       7.711   5.800  18.777  0.00  0.00    +0.000 Br
ATOM     10  C   UNL     1       5.777   4.466  17.164  0.00  0.00    +0.000 A 
ATOM     11  N   UNL     1       5.155   4.026  16.038  0.00  0.00    +0.000 NA
ATOM     12  H   UNL     1       4.293   3.365  13.914  0.00  0.00    +0.000 HD
ENDROOT
TORSDOF 0
ENDMDL
MODEL 9
REMARK VINA RESULT:      -5.1      3.838      5.060
REMARK  Name = 
REMARK  1 active torsions:
REMARK  status: ('A' for Active; 'I' for Inactive)
REMARK    1  A    between atoms: C_1  and  C_2
REMARK                            x       y       z     vdW  Elec       q    Type
REMARK                         _______ _______ _______ _____ _____    ______ ____
ROOT
ATOM      1  C   UNL     1       7.133   4.803  14.367  0.00  0.00    +0.000 C 
ATOM      2  C   UNL     1       6.680   4.578  15.783  0.00  0.00    +0.000 C 
ATOM      3  O   UNL     1       7.493   4.468  16.695  0.00  0.00    +0.000 OA
ATOM      4  N   UNL     1       5.319   4.498  15.924  0.00  0.00    +0.000 N 
ATOM      5  C   UNL     1       4.672   4.228  17.138  0.00  0.00    +0.000 A 
ATOM      6  C   UNL     1       5.169   4.608  18.389  0.00  0.00    +0.000 A 
ATOM      7  N   UNL     1       4.564   4.273  19.557  0.00  0.00    +0.000 NA
ATOM      8  C   UNL     1       3.449   3.523  19.435  0.00  0.00    +0.000 A 
ATOM      9 BR   UNL     1       2.593   2.909  21.006  0.00  0.00    +0.000 Br
ATOM     10  C   UNL     1       2.940   3.174  18.190  0.00  0.00    +0.000 A 
ATOM     11  N   UNL     1       3.515   3.544  17.016  0.00  0.00    +0.000 NA
ATOM     12  H   UNL     1       4.754   4.286  15.116  0.00  0.00    +0.000 HD
ENDROOT
TORSDOF 0
ENDMDL
