MODEL 1
REMARK VINA RESULT:      -8.7      0.000      0.000
REMARK  Name = 
REMARK  5 active torsions:
REMARK  status: ('A' for Active; 'I' for Inactive)
REMARK    1  A    between atoms: C_1  and  C_2
REMARK    2  A    between atoms: C_5  and  C_6
REMARK    3  A    between atoms: C_6  and  N_7
REMARK    4  A    between atoms: C_10  and  C_11
REMARK    5  A    between atoms: C_18  and  C_19
REMARK                            x       y       z     vdW  Elec       q    Type
REMARK                         _______ _______ _______ _____ _____    ______ ____
ROOT
ATOM      1  N   UNL     1       4.934   7.081  16.498  0.00  0.00    +0.000 N 
ATOM      2  C   UNL     1       4.021   6.954  17.558  0.00  0.00    +0.000 A 
ATOM      3  C   UNL     1       3.182   8.019  17.798  0.00  0.00    +0.000 A 
ATOM      4  C   UNL     1       2.246   7.886  18.805  0.00  0.00    +0.000 A 
ATOM      5  N   UNL     1       2.143   6.750  19.519  0.00  0.00    +0.000 NA
ATOM      6  C   UNL     1       2.988   5.744  19.211  0.00  0.00    +0.000 A 
ATOM      7  N   UNL     1       3.930   5.815  18.250  0.00  0.00    +0.000 NA
ATOM      8  H   UNL     1       4.441   6.891  15.626  0.00  0.00    +0.000 HD
ENDROOT
BRANCH   4   9
ATOM      9  C   UNL     1       1.291   8.957  19.154  0.00  0.00    +0.000 A 
ATOM     10  C   UNL     1       0.723   9.778  18.165  0.00  0.00    +0.000 A 
ATOM     11  C   UNL     1      -0.185  10.788  18.493  0.00  0.00    +0.000 A 
ATOM     12  C   UNL     1      -0.547  10.993  19.820  0.00  0.00    +0.000 A 
ATOM     13  C   UNL     1      -0.006  10.188  20.818  0.00  0.00    +0.000 A 
ATOM     14  C   UNL     1       0.904   9.179  20.489  0.00  0.00    +0.000 A 
ENDBRANCH   4   9
BRANCH   6  15
ATOM     15  C   UNL     1       2.862   4.494  20.003  0.00  0.00    +0.000 A 
ATOM     16  C   UNL     1       1.829   4.323  20.932  0.00  0.00    +0.000 A 
ATOM     17  C   UNL     1       1.772   3.164  21.701  0.00  0.00    +0.000 A 
ATOM     18  C   UNL     1       2.739   2.189  21.522  0.00  0.00    +0.000 A 
ATOM     19  C   UNL     1       3.721   2.407  20.571  0.00  0.00    +0.000 A 
ATOM     20  N   UNL     1       3.802   3.523  19.817  0.00  0.00    +0.000 NA
ENDBRANCH   6  15
BRANCH   1  21
ATOM     21  C   UNL     1       6.102   6.205  16.601  0.00  0.00    +0.000 C 
BRANCH  21  26
ATOM     22  C   UNL     1       6.622   3.087  11.816  0.00  0.00    +0.000 C 
ATOM     23  C   UNL     1       6.498   3.897  13.060  0.00  0.00    +0.000 A 
ATOM     24  C   UNL     1       7.470   4.780  13.479  0.00  0.00    +0.000 A 
ATOM     25  N   UNL     1       7.379   5.519  14.602  0.00  0.00    +0.000 NA
ATOM     26  C   UNL     1       6.256   5.369  15.336  0.00  0.00    +0.000 A 
ATOM     27  N   UNL     1       5.238   4.538  15.009  0.00  0.00    +0.000 NA
ATOM     28  C   UNL     1       5.392   3.820  13.879  0.00  0.00    +0.000 A 
ENDBRANCH  21  26
ENDBRANCH   1  21
TORSDOF 4
ENDMDL
MODEL 2
REMARK VINA RESULT:      -8.6      0.102      1.297
REMARK  Name = 
REMARK  5 active torsions:
REMARK  status: ('A' for Active; 'I' for Inactive)
REMARK    1  A    between atoms: C_1  and  C_2
REMARK    2  A    between atoms: C_5  and  C_6
REMARK    3  A    between atoms: C_6  and  N_7
REMARK    4  A    between atoms: C_10  and  C_11
REMARK    5  A    between atoms: C_18  and  C_19
REMARK                            x       y       z     vdW  Elec       q    Type
REMARK                         _______ _______ _______ _____ _____    ______ ____
ROOT
ATOM      1  N   UNL     1       4.901   7.007  16.487  0.00  0.00    +0.000 N 
ATOM      2  C   UNL     1       4.001   6.899  17.560  0.00  0.00    +0.000 A 
ATOM      3  C   UNL     1       3.183   7.978  17.808  0.00  0.00    +0.000 A 
ATOM      4  C   UNL     1       2.259   7.864  18.827  0.00  0.00    +0.000 A 
ATOM      5  N   UNL     1       2.146   6.731  19.546  0.00  0.00    +0.000 NA
ATOM      6  C   UNL     1       2.970   5.710  19.229  0.00  0.00    +0.000 A 
ATOM      7  N   UNL     1       3.900   5.763  18.255  0.00  0.00    +0.000 NA
ATOM      8  H   UNL     1       4.393   6.824  15.621  0.00  0.00    +0.000 HD
ENDROOT
BRANCH   4   9
ATOM      9  C   UNL     1       1.327   8.951  19.187  0.00  0.00    +0.000 A 
ATOM     10  C   UNL     1       0.836   9.087  20.497  0.00  0.00    +0.000 A 
ATOM     11  C   UNL     1      -0.043  10.118  20.839  0.00  0.00    +0.000 A 
ATOM     12  C   UNL     1      -0.445  11.038  19.877  0.00  0.00    +0.000 A 
ATOM     13  C   UNL     1       0.034  10.931  18.574  0.00  0.00    +0.000 A 
ATOM     14  C   UNL     1       0.911   9.898  18.232  0.00  0.00    +0.000 A 
ENDBRANCH   4   9
BRANCH   6  15
ATOM     15  C   UNL     1       2.833   4.464  20.025  0.00  0.00    +0.000 A 
ATOM     16  C   UNL     1       1.773   4.287  20.922  0.00  0.00    +0.000 A 
ATOM     17  C   UNL     1       1.705   3.133  21.698  0.00  0.00    +0.000 A 
ATOM     18  C   UNL     1       2.688   2.168  21.556  0.00  0.00    +0.000 A 
ATOM     19  C   UNL     1       3.697   2.391  20.635  0.00  0.00    +0.000 A 
ATOM     20  N   UNL     1       3.789   3.503  19.876  0.00  0.00    +0.000 NA
ENDBRANCH   6  15
BRANCH   1  21
ATOM     21  C   UNL     1       6.056   6.112  16.576  0.00  0.00    +0.000 C 
BRANCH  21  26
ATOM     22  C   UNL     1       6.722   3.106  11.738  0.00  0.00    +0.000 C 
ATOM     23  C   UNL     1       6.538   3.886  12.993  0.00  0.00    +0.000 A 
ATOM     24  C   UNL     1       5.419   3.772  13.789  0.00  0.00    +0.000 A 
ATOM     25  N   UNL     1       5.231   4.470  14.926  0.00  0.00    +0.000 NA
ATOM     26  C   UNL     1       6.217   5.320  15.284  0.00  0.00    +0.000 A 
ATOM     27  N   UNL     1       7.360   5.500  14.580  0.00  0.00    +0.000 NA
ATOM     28  C   UNL     1       7.485   4.779  13.448  0.00  0.00    +0.000 A 
ENDBRANCH  21  26
ENDBRANCH   1  21
TORSDOF 4
ENDMDL
MODEL 3
REMARK VINA RESULT:      -8.4      3.522      7.287
REMARK  Name = 
REMARK  5 active torsions:
REMARK  status: ('A' for Active; 'I' for Inactive)
REMARK    1  A    between atoms: C_1  and  C_2
REMARK    2  A    between atoms: C_5  and  C_6
REMARK    3  A    between atoms: C_6  and  N_7
REMARK    4  A    between atoms: C_10  and  C_11
REMARK    5  A    between atoms: C_18  and  C_19
REMARK                            x       y       z     vdW  Elec       q    Type
REMARK                         _______ _______ _______ _____ _____    ______ ____
ROOT
ATOM      1  N   UNL     1       6.600   7.934  17.926  0.00  0.00    +0.000 N 
ATOM      2  C   UNL     1       6.029   6.798  17.329  0.00  0.00    +0.000 A 
ATOM      3  C   UNL     1       4.990   6.189  17.997  0.00  0.00    +0.000 A 
ATOM      4  C   UNL     1       4.388   5.102  17.395  0.00  0.00    +0.000 A 
ATOM      5  N   UNL     1       4.789   4.659  16.189  0.00  0.00    +0.000 NA
ATOM      6  C   UNL     1       5.801   5.321  15.589  0.00  0.00    +0.000 A 
ATOM      7  N   UNL     1       6.437   6.380  16.128  0.00  0.00    +0.000 NA
ATOM      8  H   UNL     1       6.001   8.736  17.729  0.00  0.00    +0.000 HD
ENDROOT
BRANCH   4   9
ATOM      9  C   UNL     1       3.265   4.369  18.011  0.00  0.00    +0.000 A 
ATOM     10  C   UNL     1       2.457   4.964  18.996  0.00  0.00    +0.000 A 
ATOM     11  C   UNL     1       1.391   4.273  19.575  0.00  0.00    +0.000 A 
ATOM     12  C   UNL     1       1.108   2.971  19.179  0.00  0.00    +0.000 A 
ATOM     13  C   UNL     1       1.885   2.361  18.198  0.00  0.00    +0.000 A 
ATOM     14  C   UNL     1       2.954   3.053  17.621  0.00  0.00    +0.000 A 
ENDBRANCH   4   9
BRANCH   6  15
ATOM     15  C   UNL     1       6.231   4.826  14.256  0.00  0.00    +0.000 A 
ATOM     16  C   UNL     1       5.523   3.817  13.592  0.00  0.00    +0.000 A 
ATOM     17  C   UNL     1       5.985   3.333  12.372  0.00  0.00    +0.000 A 
ATOM     18  C   UNL     1       7.138   3.872  11.826  0.00  0.00    +0.000 A 
ATOM     19  C   UNL     1       7.780   4.884  12.521  0.00  0.00    +0.000 A 
ATOM     20  N   UNL     1       7.356   5.366  13.708  0.00  0.00    +0.000 NA
ENDBRANCH   6  15
BRANCH   1  21
ATOM     21  C   UNL     1       7.966   8.223  17.488  0.00  0.00    +0.000 C 
BRANCH  21  26
ATOM     22  C   UNL     1       9.767  13.140  19.825  0.00  0.00    +0.000 C 
ATOM     23  C   UNL     1       9.308  11.858  19.223  0.00  0.00    +0.000 A 
ATOM     24  C   UNL     1       9.501  10.635  19.828  0.00  0.00    +0.000 A 
ATOM     25  N   UNL     1       9.096   9.463  19.299  0.00  0.00    +0.000 NA
ATOM     26  C   UNL     1       8.462   9.524  18.109  0.00  0.00    +0.000 A 
ATOM     27  N   UNL     1       8.213  10.672  17.437  0.00  0.00    +0.000 NA
ATOM     28  C   UNL     1       8.649  11.810  18.013  0.00  0.00    +0.000 A 
ENDBRANCH  21  26
ENDBRANCH   1  21
TORSDOF 4
ENDMDL
MODEL 4
REMARK VINA RESULT:      -8.4      0.523      1.308
REMARK  Name = 
REMARK  5 active torsions:
REMARK  status: ('A' for Active; 'I' for Inactive)
REMARK    1  A    between atoms: C_1  and  C_2
REMARK    2  A    between atoms: C_5  and  C_6
REMARK    3  A    between atoms: C_6  and  N_7
REMARK    4  A    between atoms: C_10  and  C_11
REMARK    5  A    between atoms: C_18  and  C_19
REMARK                            x       y       z     vdW  Elec       q    Type
REMARK                         _______ _______ _______ _____ _____    ______ ____
ROOT
ATOM      1  N   UNL     1       4.921   7.010  16.415  0.00  0.00    +0.000 N 
ATOM      2  C   UNL     1       4.042   6.903  17.505  0.00  0.00    +0.000 A 
ATOM      3  C   UNL     1       3.195   7.962  17.739  0.00  0.00    +0.000 A 
ATOM      4  C   UNL     1       2.292   7.847  18.776  0.00  0.00    +0.000 A 
ATOM      5  N   UNL     1       2.226   6.731  19.526  0.00  0.00    +0.000 NA
ATOM      6  C   UNL     1       3.076   5.729  19.223  0.00  0.00    +0.000 A 
ATOM      7  N   UNL     1       3.988   5.784  18.232  0.00  0.00    +0.000 NA
ATOM      8  H   UNL     1       4.406   6.788  15.563  0.00  0.00    +0.000 HD
ENDROOT
BRANCH   4   9
ATOM      9  C   UNL     1       1.332   8.914  19.122  0.00  0.00    +0.000 A 
ATOM     10  C   UNL     1       0.939   9.139  20.453  0.00  0.00    +0.000 A 
ATOM     11  C   UNL     1       0.035  10.151  20.782  0.00  0.00    +0.000 A 
ATOM     12  C   UNL     1      -0.493  10.964  19.785  0.00  0.00    +0.000 A 
ATOM     13  C   UNL     1      -0.114  10.769  18.460  0.00  0.00    +0.000 A 
ATOM     14  C   UNL     1       0.790   9.754  18.132  0.00  0.00    +0.000 A 
ENDBRANCH   4   9
BRANCH   6  15
ATOM     15  C   UNL     1       2.991   4.501  20.054  0.00  0.00    +0.000 A 
ATOM     16  C   UNL     1       3.854   3.419  19.845  0.00  0.00    +0.000 A 
ATOM     17  C   UNL     1       3.710   2.259  20.601  0.00  0.00    +0.000 A 
ATOM     18  C   UNL     1       2.716   2.202  21.563  0.00  0.00    +0.000 A 
ATOM     19  C   UNL     1       1.910   3.314  21.739  0.00  0.00    +0.000 A 
ATOM     20  N   UNL     1       2.024   4.447  21.015  0.00  0.00    +0.000 NA
ENDBRANCH   6  15
BRANCH   1  21
ATOM     21  C   UNL     1       6.105   6.153  16.509  0.00  0.00    +0.000 C 
BRANCH  21  26
ATOM     22  C   UNL     1       6.648   3.059  11.711  0.00  0.00    +0.000 C 
ATOM     23  C   UNL     1       6.518   3.862  12.958  0.00  0.00    +0.000 A 
ATOM     24  C   UNL     1       7.472   4.768  13.368  0.00  0.00    +0.000 A 
ATOM     25  N   UNL     1       7.376   5.503  14.494  0.00  0.00    +0.000 NA
ATOM     26  C   UNL     1       6.265   5.324  15.239  0.00  0.00    +0.000 A 
ATOM     27  N   UNL     1       5.264   4.468  14.922  0.00  0.00    +0.000 NA
ATOM     28  C   UNL     1       5.423   3.756  13.789  0.00  0.00    +0.000 A 
ENDBRANCH  21  26
ENDBRANCH   1  21
TORSDOF 4
ENDMDL
MODEL 5
REMARK VINA RESULT:      -8.4      3.572      7.348
REMARK  Name = 
REMARK  5 active torsions:
REMARK  status: ('A' for Active; 'I' for Inactive)
REMARK    1  A    between atoms: C_1  and  C_2
REMARK    2  A    between atoms: C_5  and  C_6
REMARK    3  A    between atoms: C_6  and  N_7
REMARK    4  A    between atoms: C_10  and  C_11
REMARK    5  A    between atoms: C_18  and  C_19
REMARK                            x       y       z     vdW  Elec       q    Type
REMARK                         _______ _______ _______ _____ _____    ______ ____
ROOT
ATOM      1  N   UNL     1       6.669   7.905  17.981  0.00  0.00    +0.000 N 
ATOM      2  C   UNL     1       6.130   6.745  17.399  0.00  0.00    +0.000 A 
ATOM      3  C   UNL     1       5.155   6.079  18.106  0.00  0.00    +0.000 A 
ATOM      4  C   UNL     1       4.583   4.967  17.522  0.00  0.00    +0.000 A 
ATOM      5  N   UNL     1       4.950   4.554  16.294  0.00  0.00    +0.000 NA
ATOM      6  C   UNL     1       5.899   5.271  15.657  0.00  0.00    +0.000 A 
ATOM      7  N   UNL     1       6.504   6.357  16.177  0.00  0.00    +0.000 NA
ATOM      8  H   UNL     1       6.021   8.676  17.819  0.00  0.00    +0.000 HD
ENDROOT
BRANCH   4   9
ATOM      9  C   UNL     1       3.527   4.172  18.180  0.00  0.00    +0.000 A 
ATOM     10  C   UNL     1       2.192   4.229  17.743  0.00  0.00    +0.000 A 
ATOM     11  C   UNL     1       1.193   3.474  18.363  0.00  0.00    +0.000 A 
ATOM     12  C   UNL     1       1.510   2.642  19.430  0.00  0.00    +0.000 A 
ATOM     13  C   UNL     1       2.826   2.559  19.876  0.00  0.00    +0.000 A 
ATOM     14  C   UNL     1       3.825   3.317  19.258  0.00  0.00    +0.000 A 
ENDBRANCH   4   9
BRANCH   6  15
ATOM     15  C   UNL     1       6.293   4.809  14.301  0.00  0.00    +0.000 A 
ATOM     16  C   UNL     1       5.584   3.798  13.643  0.00  0.00    +0.000 A 
ATOM     17  C   UNL     1       6.013   3.345  12.399  0.00  0.00    +0.000 A 
ATOM     18  C   UNL     1       7.135   3.918  11.825  0.00  0.00    +0.000 A 
ATOM     19  C   UNL     1       7.780   4.930  12.515  0.00  0.00    +0.000 A 
ATOM     20  N   UNL     1       7.387   5.383  13.724  0.00  0.00    +0.000 NA
ENDBRANCH   6  15
BRANCH   1  21
ATOM     21  C   UNL     1       7.997   8.267  17.485  0.00  0.00    +0.000 C 
BRANCH  21  26
ATOM     22  C   UNL     1       9.837  13.133  19.897  0.00  0.00    +0.000 C 
ATOM     23  C   UNL     1       9.351  11.875  19.266  0.00  0.00    +0.000 A 
ATOM     24  C   UNL     1       8.709  11.848  18.046  0.00  0.00    +0.000 A 
ATOM     25  N   UNL     1       8.260  10.722  17.459  0.00  0.00    +0.000 NA
ATOM     26  C   UNL     1       8.470   9.567  18.125  0.00  0.00    +0.000 A 
ATOM     27  N   UNL     1       9.097   9.481  19.322  0.00  0.00    +0.000 NA
ATOM     28  C   UNL     1       9.516  10.643  19.862  0.00  0.00    +0.000 A 
ENDBRANCH  21  26
ENDBRANCH   1  21
TORSDOF 4
ENDMDL
MODEL 6
REMARK VINA RESULT:      -8.3      0.525      1.292
REMARK  Name = 
REMARK  5 active torsions:
REMARK  status: ('A' for Active; 'I' for Inactive)
REMARK    1  A    between atoms: C_1  and  C_2
REMARK    2  A    between atoms: C_5  and  C_6
REMARK    3  A    between atoms: C_6  and  N_7
REMARK    4  A    between atoms: C_10  and  C_11
REMARK    5  A    between atoms: C_18  and  C_19
REMARK                            x       y       z     vdW  Elec       q    Type
REMARK                         _______ _______ _______ _____ _____    ______ ____
ROOT
ATOM      1  N   UNL     1       4.891   7.120  16.462  0.00  0.00    +0.000 N 
ATOM      2  C   UNL     1       4.010   6.991  17.549  0.00  0.00    +0.000 A 
ATOM      3  C   UNL     1       3.153   8.041  17.794  0.00  0.00    +0.000 A 
ATOM      4  C   UNL     1       2.248   7.905  18.827  0.00  0.00    +0.000 A 
ATOM      5  N   UNL     1       2.189   6.778  19.562  0.00  0.00    +0.000 NA
ATOM      6  C   UNL     1       3.049   5.787  19.248  0.00  0.00    +0.000 A 
ATOM      7  N   UNL     1       3.963   5.862  18.260  0.00  0.00    +0.000 NA
ATOM      8  H   UNL     1       4.379   6.905  15.606  0.00  0.00    +0.000 HD
ENDROOT
BRANCH   4   9
ATOM      9  C   UNL     1       1.278   8.959  19.185  0.00  0.00    +0.000 A 
ATOM     10  C   UNL     1       0.745   9.820  18.210  0.00  0.00    +0.000 A 
ATOM     11  C   UNL     1      -0.176  10.815  18.546  0.00  0.00    +0.000 A 
ATOM     12  C   UNL     1      -0.586  10.967  19.866  0.00  0.00    +0.000 A 
ATOM     13  C   UNL     1      -0.081  10.121  20.849  0.00  0.00    +0.000 A 
ATOM     14  C   UNL     1       0.843   9.127  20.512  0.00  0.00    +0.000 A 
ENDBRANCH   4   9
BRANCH   6  15
ATOM     15  C   UNL     1       2.971   4.547  20.063  0.00  0.00    +0.000 A 
ATOM     16  C   UNL     1       3.818   3.461  19.817  0.00  0.00    +0.000 A 
ATOM     17  C   UNL     1       3.681   2.291  20.558  0.00  0.00    +0.000 A 
ATOM     18  C   UNL     1       2.710   2.229  21.543  0.00  0.00    +0.000 A 
ATOM     19  C   UNL     1       1.918   3.345  21.754  0.00  0.00    +0.000 A 
ATOM     20  N   UNL     1       2.027   4.488  21.045  0.00  0.00    +0.000 NA
ENDBRANCH   6  15
BRANCH   1  21
ATOM     21  C   UNL     1       6.081   6.272  16.548  0.00  0.00    +0.000 C 
BRANCH  21  26
ATOM     22  C   UNL     1       6.651   3.026  11.855  0.00  0.00    +0.000 C 
ATOM     23  C   UNL     1       6.492   3.870  13.072  0.00  0.00    +0.000 A 
ATOM     24  C   UNL     1       5.366   3.834  13.866  0.00  0.00    +0.000 A 
ATOM     25  N   UNL     1       5.201   4.590  14.970  0.00  0.00    +0.000 NA
ATOM     26  C   UNL     1       6.217   5.417  15.294  0.00  0.00    +0.000 A 
ATOM     27  N   UNL     1       7.369   5.521  14.589  0.00  0.00    +0.000 NA
ATOM     28  C   UNL     1       7.471   4.745  13.491  0.00  0.00    +0.000 A 
ENDBRANCH  21  26
ENDBRANCH   1  21
TORSDOF 4
ENDMDL
MODEL 7
REMARK VINA RESULT:      -8.2      0.857      1.282
REMARK  Name = 
REMARK  5 active torsions:
REMARK  status: ('A' for Active; 'I' for Inactive)
REMARK    1  A    between atoms: C_1  and  C_2
REMARK    2  A    between atoms: C_5  and  C_6
REMARK    3  A    between atoms: C_6  and  N_7
REMARK    4  A    between atoms: C_10  and  C_11
REMARK    5  A    between atoms: C_18  and  C_19
REMARK                            x       y       z     vdW  Elec       q    Type
REMARK                         _______ _______ _______ _____ _____    ______ ____
ROOT
ATOM      1  N   UNL     1       4.934   7.083  16.607  0.00  0.00    +0.000 N 
ATOM      2  C   UNL     1       3.912   7.056  17.570  0.00  0.00    +0.000 A 
ATOM      3  C   UNL     1       3.236   8.232  17.806  0.00  0.00    +0.000 A 
ATOM      4  C   UNL     1       2.196   8.205  18.713  0.00  0.00    +0.000 A 
ATOM      5  N   UNL     1       1.839   7.066  19.336  0.00  0.00    +0.000 NA
ATOM      6  C   UNL     1       2.538   5.951  19.037  0.00  0.00    +0.000 A 
ATOM      7  N   UNL     1       3.570   5.914  18.171  0.00  0.00    +0.000 NA
ATOM      8  H   UNL     1       4.507   7.025  15.683  0.00  0.00    +0.000 HD
ENDROOT
BRANCH   4   9
ATOM      9  C   UNL     1       1.396   9.400  19.047  0.00  0.00    +0.000 A 
ATOM     10  C   UNL     1       1.586  10.618  18.371  0.00  0.00    +0.000 A 
ATOM     11  C   UNL     1       0.827  11.748  18.683  0.00  0.00    +0.000 A 
ATOM     12  C   UNL     1      -0.143  11.682  19.676  0.00  0.00    +0.000 A 
ATOM     13  C   UNL     1      -0.359  10.485  20.355  0.00  0.00    +0.000 A 
ATOM     14  C   UNL     1       0.403   9.356  20.044  0.00  0.00    +0.000 A 
ENDBRANCH   4   9
BRANCH   6  15
ATOM     15  C   UNL     1       2.132   4.699  19.727  0.00  0.00    +0.000 A 
ATOM     16  C   UNL     1       2.338   4.526  21.100  0.00  0.00    +0.000 A 
ATOM     17  C   UNL     1       2.001   3.319  21.706  0.00  0.00    +0.000 A 
ATOM     18  C   UNL     1       1.453   2.309  20.935  0.00  0.00    +0.000 A 
ATOM     19  C   UNL     1       1.252   2.550  19.586  0.00  0.00    +0.000 A 
ATOM     20  N   UNL     1       1.575   3.708  18.974  0.00  0.00    +0.000 NA
ENDBRANCH   6  15
BRANCH   1  21
ATOM     21  C   UNL     1       5.930   6.020  16.755  0.00  0.00    +0.000 C 
BRANCH  21  26
ATOM     22  C   UNL     1       6.658   3.173  11.830  0.00  0.00    +0.000 C 
ATOM     23  C   UNL     1       6.458   3.913  13.108  0.00  0.00    +0.000 A 
ATOM     24  C   UNL     1       5.332   3.768  13.888  0.00  0.00    +0.000 A 
ATOM     25  N   UNL     1       5.129   4.428  15.045  0.00  0.00    +0.000 NA
ATOM     26  C   UNL     1       6.108   5.270  15.440  0.00  0.00    +0.000 A 
ATOM     27  N   UNL     1       7.257   5.478  14.753  0.00  0.00    +0.000 NA
ATOM     28  C   UNL     1       7.396   4.794  13.600  0.00  0.00    +0.000 A 
ENDBRANCH  21  26
ENDBRANCH   1  21
TORSDOF 4
ENDMDL
MODEL 8
REMARK VINA RESULT:      -8.0      1.009      1.012
REMARK  Name = 
REMARK  5 active torsions:
REMARK  status: ('A' for Active; 'I' for Inactive)
REMARK    1  A    between atoms: C_1  and  C_2
REMARK    2  A    between atoms: C_5  and  C_6
REMARK    3  A    between atoms: C_6  and  N_7
REMARK    4  A    between atoms: C_10  and  C_11
REMARK    5  A    between atoms: C_18  and  C_19
REMARK                            x       y       z     vdW  Elec       q    Type
REMARK                         _______ _______ _______ _____ _____    ______ ____
ROOT
ATOM      1  N   UNL     1       5.253   7.062  16.691  0.00  0.00    +0.000 N 
ATOM      2  C   UNL     1       4.125   6.961  17.522  0.00  0.00    +0.000 A 
ATOM      3  C   UNL     1       3.464   8.128  17.834  0.00  0.00    +0.000 A 
ATOM      4  C   UNL     1       2.325   8.035  18.608  0.00  0.00    +0.000 A 
ATOM      5  N   UNL     1       1.862   6.845  19.031  0.00  0.00    +0.000 NA
ATOM      6  C   UNL     1       2.554   5.745  18.668  0.00  0.00    +0.000 A 
ATOM      7  N   UNL     1       3.678   5.769  17.925  0.00  0.00    +0.000 NA
ATOM      8  H   UNL     1       4.934   7.142  15.725  0.00  0.00    +0.000 HD
ENDROOT
BRANCH   4   9
ATOM      9  C   UNL     1       1.531   9.215  19.005  0.00  0.00    +0.000 A 
ATOM     10  C   UNL     1       1.478  10.364  18.197  0.00  0.00    +0.000 A 
ATOM     11  C   UNL     1       0.723  11.479  18.570  0.00  0.00    +0.000 A 
ATOM     12  C   UNL     1       0.001  11.465  19.758  0.00  0.00    +0.000 A 
ATOM     13  C   UNL     1       0.029  10.336  20.572  0.00  0.00    +0.000 A 
ATOM     14  C   UNL     1       0.787   9.221  20.199  0.00  0.00    +0.000 A 
ENDBRANCH   4   9
BRANCH   6  15
ATOM     15  C   UNL     1       2.030   4.436  19.137  0.00  0.00    +0.000 A 
ATOM     16  C   UNL     1       1.762   4.203  20.491  0.00  0.00    +0.000 A 
ATOM     17  C   UNL     1       1.329   2.948  20.907  0.00  0.00    +0.000 A 
ATOM     18  C   UNL     1       1.157   1.948  19.964  0.00  0.00    +0.000 A 
ATOM     19  C   UNL     1       1.416   2.248  18.638  0.00  0.00    +0.000 A 
ATOM     20  N   UNL     1       1.842   3.454  18.209  0.00  0.00    +0.000 NA
ENDBRANCH   6  15
BRANCH   1  21
ATOM     21  C   UNL     1       6.189   5.943  16.807  0.00  0.00    +0.000 C 
BRANCH  21  26
ATOM     22  C   UNL     1       6.613   3.230  11.772  0.00  0.00    +0.000 C 
ATOM     23  C   UNL     1       6.514   3.935  13.081  0.00  0.00    +0.000 A 
ATOM     24  C   UNL     1       7.479   4.807  13.537  0.00  0.00    +0.000 A 
ATOM     25  N   UNL     1       7.410   5.453  14.717  0.00  0.00    +0.000 NA
ATOM     26  C   UNL     1       6.318   5.215  15.474  0.00  0.00    +0.000 A 
ATOM     27  N   UNL     1       5.309   4.385  15.116  0.00  0.00    +0.000 NA
ATOM     28  C   UNL     1       5.440   3.763  13.927  0.00  0.00    +0.000 A 
ENDBRANCH  21  26
ENDBRANCH   1  21
TORSDOF 4
ENDMDL
MODEL 9
REMARK VINA RESULT:      -8.0      1.322      1.782
REMARK  Name = 
REMARK  5 active torsions:
REMARK  status: ('A' for Active; 'I' for Inactive)
REMARK    1  A    between atoms: C_1  and  C_2
REMARK    2  A    between atoms: C_5  and  C_6
REMARK    3  A    between atoms: C_6  and  N_7
REMARK    4  A    between atoms: C_10  and  C_11
REMARK    5  A    between atoms: C_18  and  C_19
REMARK                            x       y       z     vdW  Elec       q    Type
REMARK                         _______ _______ _______ _____ _____    ______ ____
ROOT
ATOM      1  N   UNL     1       5.699   7.050  16.502  0.00  0.00    +0.000 N 
ATOM      2  C   UNL     1       4.545   6.790  17.261  0.00  0.00    +0.000 A 
ATOM      3  C   UNL     1       3.801   7.874  17.669  0.00  0.00    +0.000 A 
ATOM      4  C   UNL     1       2.639   7.628  18.372  0.00  0.00    +0.000 A 
ATOM      5  N   UNL     1       2.233   6.372  18.637  0.00  0.00    +0.000 NA
ATOM      6  C   UNL     1       3.007   5.362  18.187  0.00  0.00    +0.000 A 
ATOM      7  N   UNL     1       4.158   5.536  17.507  0.00  0.00    +0.000 NA
ATOM      8  H   UNL     1       5.416   7.222  15.538  0.00  0.00    +0.000 HD
ENDROOT
BRANCH   4   9
ATOM      9  C   UNL     1       1.756   8.707  18.860  0.00  0.00    +0.000 A 
ATOM     10  C   UNL     1       1.289   8.723  20.186  0.00  0.00    +0.000 A 
ATOM     11  C   UNL     1       0.458   9.746  20.649  0.00  0.00    +0.000 A 
ATOM     12  C   UNL     1       0.081  10.776  19.797  0.00  0.00    +0.000 A 
ATOM     13  C   UNL     1       0.537  10.790  18.481  0.00  0.00    +0.000 A 
ATOM     14  C   UNL     1       1.367   9.764  18.017  0.00  0.00    +0.000 A 
ENDBRANCH   4   9
BRANCH   6  15
ATOM     15  C   UNL     1       2.547   3.981  18.481  0.00  0.00    +0.000 A 
ATOM     16  C   UNL     1       3.382   2.877  18.274  0.00  0.00    +0.000 A 
ATOM     17  C   UNL     1       2.902   1.591  18.502  0.00  0.00    +0.000 A 
ATOM     18  C   UNL     1       1.601   1.427  18.948  0.00  0.00    +0.000 A 
ATOM     19  C   UNL     1       0.833   2.560  19.157  0.00  0.00    +0.000 A 
ATOM     20  N   UNL     1       1.272   3.816  18.937  0.00  0.00    +0.000 NA
ENDBRANCH   6  15
BRANCH   1  21
ATOM     21  C   UNL     1       6.698   5.981  16.538  0.00  0.00    +0.000 C 
BRANCH  21  26
ATOM     22  C   UNL     1       6.620   3.079  11.592  0.00  0.00    +0.000 C 
ATOM     23  C   UNL     1       6.651   3.834  12.876  0.00  0.00    +0.000 A 
ATOM     24  C   UNL     1       7.590   4.805  13.152  0.00  0.00    +0.000 A 
ATOM     25  N   UNL     1       7.638   5.497  14.307  0.00  0.00    +0.000 NA
ATOM     26  C   UNL     1       6.694   5.204  15.226  0.00  0.00    +0.000 A 
ATOM     27  N   UNL     1       5.722   4.277  15.052  0.00  0.00    +0.000 NA
ATOM     28  C   UNL     1       5.733   3.613  13.879  0.00  0.00    +0.000 A 
ENDBRANCH  21  26
ENDBRANCH   1  21
TORSDOF 4
ENDMDL
