MODEL 1
REMARK VINA RESULT:      -8.2      0.000      0.000
REMARK  Name = 
REMARK  5 active torsions:
REMARK  status: ('A' for Active; 'I' for Inactive)
REMARK    1  A    between atoms: C_2  and  C_3
REMARK    2  A    between atoms: C_3  and  C_4
REMARK    3  A    between atoms: C_4  and  N_5
REMARK    4  A    between atoms: C_9  and  C_11
REMARK    5  A    between atoms: N_18  and  C_19
REMARK                            x       y       z     vdW  Elec       q    Type
REMARK                         _______ _______ _______ _____ _____    ______ ____
ROOT
ATOM      1  C   UNL     1       7.325   6.281  16.921  0.00  0.00    +0.000 C 
ENDROOT
BRANCH   1   2
ATOM      2  N   UNL     1       5.905   6.414  16.536  0.00  0.00    +0.000 NA
ATOM      3  C   UNL     1       5.389   5.302  15.707  0.00  0.00    +0.000 C 
ATOM      4  C   UNL     1       5.126   3.977  16.451  0.00  0.00    +0.000 C 
ATOM      5  N   UNL     1       4.317   4.166  17.653  0.00  0.00    +0.000 N 
ATOM      6  C   UNL     1       3.640   3.039  18.151  0.00  0.00    +0.000 C 
ATOM      7  O   UNL     1       3.772   1.940  17.608  0.00  0.00    +0.000 OA
ATOM      8  C   UNL     1       4.770   5.264  18.515  0.00  0.00    +0.000 C 
ATOM      9  C   UNL     1       5.025   6.560  17.720  0.00  0.00    +0.000 C 
BRANCH   6  10
ATOM     10  C   UNL     1       2.776   3.201  19.313  0.00  0.00    +0.000 A 
ATOM     11  C   UNL     1       1.512   3.755  19.415  0.00  0.00    +0.000 A 
ATOM     12  C   UNL     1       1.144   3.690  20.781  0.00  0.00    +0.000 A 
ATOM     13  C   UNL     1       2.219   3.142  21.437  0.00  0.00    +0.000 A 
ATOM     14  O   UNL     1       3.217   2.857  20.563  0.00  0.00    +0.000 OA
ENDBRANCH   6  10
ENDBRANCH   1   2
BRANCH   1  15
ATOM     15  C   UNL     1       7.640   7.008  18.235  0.00  0.00    +0.000 C 
BRANCH  15  17
ATOM     16  O   UNL     1       7.565   9.143  17.115  0.00  0.00    +0.000 OA
ATOM     17  C   UNL     1       8.014   8.469  18.035  0.00  0.00    +0.000 C 
ATOM     18  N   UNL     1       8.901   8.898  19.016  0.00  0.00    +0.000 N 
ATOM     19  H   UNL     1       9.286   8.181  19.619  0.00  0.00    +0.000 HD
BRANCH  18  20
ATOM     20  C   UNL     1       9.426  10.195  19.190  0.00  0.00    +0.000 A 
ATOM     21  C   UNL     1       9.969  10.960  18.154  0.00  0.00    +0.000 A 
ATOM     22  C   UNL     1      10.503  12.227  18.415  0.00  0.00    +0.000 A 
ATOM     23  C   UNL     1      10.487  12.729  19.708  0.00  0.00    +0.000 A 
ATOM     24  F   UNL     1      11.023  13.930  19.960  0.00  0.00    +0.000 F 
ATOM     25  C   UNL     1       9.922  12.000  20.747  0.00  0.00    +0.000 A 
ATOM     26  C   UNL     1       9.384  10.737  20.485  0.00  0.00    +0.000 A 
ENDBRANCH  18  20
ENDBRANCH  15  17
ENDBRANCH   1  15
TORSDOF 5
ENDMDL
MODEL 2
REMARK VINA RESULT:      -7.9      1.179      1.779
REMARK  Name = 
REMARK  5 active torsions:
REMARK  status: ('A' for Active; 'I' for Inactive)
REMARK    1  A    between atoms: C_2  and  C_3
REMARK    2  A    between atoms: C_3  and  C_4
REMARK    3  A    between atoms: C_4  and  N_5
REMARK    4  A    between atoms: C_9  and  C_11
REMARK    5  A    between atoms: N_18  and  C_19
REMARK                            x       y       z     vdW  Elec       q    Type
REMARK                         _______ _______ _______ _____ _____    ______ ____
ROOT
ATOM      1  C   UNL     1       6.471   7.694  17.752  0.00  0.00    +0.000 C 
ENDROOT
BRANCH   1   2
ATOM      2  N   UNL     1       6.109   6.557  16.880  0.00  0.00    +0.000 NA
ATOM      3  C   UNL     1       6.815   5.296  17.195  0.00  0.00    +0.000 C 
ATOM      4  C   UNL     1       6.336   4.556  18.459  0.00  0.00    +0.000 C 
ATOM      5  N   UNL     1       4.886   4.375  18.482  0.00  0.00    +0.000 N 
ATOM      6  C   UNL     1       4.383   3.356  19.308  0.00  0.00    +0.000 C 
ATOM      7  O   UNL     1       5.144   2.685  20.009  0.00  0.00    +0.000 OA
ATOM      8  C   UNL     1       4.124   5.589  18.165  0.00  0.00    +0.000 C 
ATOM      9  C   UNL     1       4.651   6.292  16.898  0.00  0.00    +0.000 C 
BRANCH   6  10
ATOM     10  C   UNL     1       2.947   3.105  19.311  0.00  0.00    +0.000 A 
ATOM     11  C   UNL     1       1.975   3.495  20.215  0.00  0.00    +0.000 A 
ATOM     12  C   UNL     1       0.749   2.954  19.759  0.00  0.00    +0.000 A 
ATOM     13  C   UNL     1       1.049   2.233  18.630  0.00  0.00    +0.000 A 
ATOM     14  O   UNL     1       2.377   2.303  18.359  0.00  0.00    +0.000 OA
ENDBRANCH   6  10
ENDBRANCH   1   2
BRANCH   1  15
ATOM     15  C   UNL     1       7.979   7.975  17.742  0.00  0.00    +0.000 C 
BRANCH  15  17
ATOM     16  O   UNL     1       7.882  10.353  17.357  0.00  0.00    +0.000 OA
ATOM     17  C   UNL     1       8.319   9.430  18.032  0.00  0.00    +0.000 C 
ATOM     18  N   UNL     1       9.161   9.537  19.134  0.00  0.00    +0.000 N 
ATOM     19  H   UNL     1       9.545   8.671  19.493  0.00  0.00    +0.000 HD
BRANCH  18  20
ATOM     20  C   UNL     1       9.644  10.719  19.732  0.00  0.00    +0.000 A 
ATOM     21  C   UNL     1       9.178  11.221  20.949  0.00  0.00    +0.000 A 
ATOM     22  C   UNL     1       9.683  12.423  21.459  0.00  0.00    +0.000 A 
ATOM     23  C   UNL     1      10.657  13.115  20.755  0.00  0.00    +0.000 A 
ATOM     24  F   UNL     1      11.120  14.277  21.232  0.00  0.00    +0.000 F 
ATOM     25  C   UNL     1      11.159  12.617  19.560  0.00  0.00    +0.000 A 
ATOM     26  C   UNL     1      10.658  11.415  19.053  0.00  0.00    +0.000 A 
ENDBRANCH  18  20
ENDBRANCH  15  17
ENDBRANCH   1  15
TORSDOF 5
ENDMDL
MODEL 3
REMARK VINA RESULT:      -7.9      0.858      1.271
REMARK  Name = 
REMARK  5 active torsions:
REMARK  status: ('A' for Active; 'I' for Inactive)
REMARK    1  A    between atoms: C_2  and  C_3
REMARK    2  A    between atoms: C_3  and  C_4
REMARK    3  A    between atoms: C_4  and  N_5
REMARK    4  A    between atoms: C_9  and  C_11
REMARK    5  A    between atoms: N_18  and  C_19
REMARK                            x       y       z     vdW  Elec       q    Type
REMARK                         _______ _______ _______ _____ _____    ______ ____
ROOT
ATOM      1  C   UNL     1       6.831   6.311  17.199  0.00  0.00    +0.000 C 
ENDROOT
BRANCH   1   2
ATOM      2  N   UNL     1       5.416   6.263  16.776  0.00  0.00    +0.000 NA
ATOM      3  C   UNL     1       5.062   5.083  15.957  0.00  0.00    +0.000 C 
ATOM      4  C   UNL     1       4.942   3.749  16.720  0.00  0.00    +0.000 C 
ATOM      5  N   UNL     1       4.083   3.857  17.898  0.00  0.00    +0.000 N 
ATOM      6  C   UNL     1       3.536   2.665  18.401  0.00  0.00    +0.000 C 
ATOM      7  O   UNL     1       3.815   1.581  17.884  0.00  0.00    +0.000 OA
ATOM      8  C   UNL     1       4.376   5.017  18.749  0.00  0.00    +0.000 C 
ATOM      9  C   UNL     1       4.493   6.321  17.934  0.00  0.00    +0.000 C 
BRANCH   6  10
ATOM     10  C   UNL     1       2.627   2.740  19.538  0.00  0.00    +0.000 A 
ATOM     11  C   UNL     1       1.272   3.015  19.581  0.00  0.00    +0.000 A 
ATOM     12  C   UNL     1       0.891   2.995  20.944  0.00  0.00    +0.000 A 
ATOM     13  C   UNL     1       2.040   2.751  21.655  0.00  0.00    +0.000 A 
ATOM     14  O   UNL     1       3.098   2.611  20.817  0.00  0.00    +0.000 OA
ENDBRANCH   6  10
ENDBRANCH   1   2
BRANCH   1  15
ATOM     15  C   UNL     1       7.505   7.637  16.820  0.00  0.00    +0.000 C 
BRANCH  15  17
ATOM     16  O   UNL     1       8.591   7.653  18.973  0.00  0.00    +0.000 OA
ATOM     17  C   UNL     1       8.248   8.282  17.980  0.00  0.00    +0.000 C 
ATOM     18  N   UNL     1       8.469   9.635  17.742  0.00  0.00    +0.000 N 
ATOM     19  H   UNL     1       7.998  10.033  16.939  0.00  0.00    +0.000 HD
BRANCH  18  20
ATOM     20  C   UNL     1       9.169  10.546  18.560  0.00  0.00    +0.000 A 
ATOM     21  C   UNL     1       9.193  10.480  19.955  0.00  0.00    +0.000 A 
ATOM     22  C   UNL     1       9.883  11.445  20.697  0.00  0.00    +0.000 A 
ATOM     23  C   UNL     1      10.553  12.468  20.044  0.00  0.00    +0.000 A 
ATOM     24  F   UNL     1      11.191  13.405  20.757  0.00  0.00    +0.000 F 
ATOM     25  C   UNL     1      10.571  12.534  18.657  0.00  0.00    +0.000 A 
ATOM     26  C   UNL     1       9.886  11.568  17.915  0.00  0.00    +0.000 A 
ENDBRANCH  18  20
ENDBRANCH  15  17
ENDBRANCH   1  15
TORSDOF 5
ENDMDL
MODEL 4
REMARK VINA RESULT:      -7.8      0.959      1.089
REMARK  Name = 
REMARK  5 active torsions:
REMARK  status: ('A' for Active; 'I' for Inactive)
REMARK    1  A    between atoms: C_2  and  C_3
REMARK    2  A    between atoms: C_3  and  C_4
REMARK    3  A    between atoms: C_4  and  N_5
REMARK    4  A    between atoms: C_9  and  C_11
REMARK    5  A    between atoms: N_18  and  C_19
REMARK                            x       y       z     vdW  Elec       q    Type
REMARK                         _______ _______ _______ _____ _____    ______ ____
ROOT
ATOM      1  C   UNL     1       7.398   5.782  17.784  0.00  0.00    +0.000 C 
ENDROOT
BRANCH   1   2
ATOM      2  N   UNL     1       6.002   6.103  17.423  0.00  0.00    +0.000 NA
ATOM      3  C   UNL     1       5.406   5.197  16.416  0.00  0.00    +0.000 C 
ATOM      4  C   UNL     1       5.017   3.794  16.922  0.00  0.00    +0.000 C 
ATOM      5  N   UNL     1       4.206   3.847  18.137  0.00  0.00    +0.000 N 
ATOM      6  C   UNL     1       3.426   2.716  18.434  0.00  0.00    +0.000 C 
ATOM      7  O   UNL     1       3.471   1.718  17.712  0.00  0.00    +0.000 OA
ATOM      8  C   UNL     1       4.737   4.739  19.175  0.00  0.00    +0.000 C 
ATOM      9  C   UNL     1       5.117   6.124  18.612  0.00  0.00    +0.000 C 
BRANCH   6  10
ATOM     10  C   UNL     1       2.558   2.755  19.604  0.00  0.00    +0.000 A 
ATOM     11  C   UNL     1       1.253   3.195  19.734  0.00  0.00    +0.000 A 
ATOM     12  C   UNL     1       0.901   3.042  21.096  0.00  0.00    +0.000 A 
ATOM     13  C   UNL     1       2.021   2.557  21.725  0.00  0.00    +0.000 A 
ATOM     14  O   UNL     1       3.034   2.395  20.837  0.00  0.00    +0.000 OA
ENDBRANCH   6  10
ENDBRANCH   1   2
BRANCH   1  15
ATOM     15  C   UNL     1       8.010   6.831  18.722  0.00  0.00    +0.000 C 
BRANCH  15  17
ATOM     16  O   UNL     1       7.862   8.408  16.904  0.00  0.00    +0.000 OA
ATOM     17  C   UNL     1       8.214   8.183  18.056  0.00  0.00    +0.000 C 
ATOM     18  N   UNL     1       8.832   9.079  18.921  0.00  0.00    +0.000 N 
ATOM     19  H   UNL     1       9.187   8.695  19.788  0.00  0.00    +0.000 HD
BRANCH  18  20
ATOM     20  C   UNL     1       9.133  10.436  18.679  0.00  0.00    +0.000 A 
ATOM     21  C   UNL     1       8.296  11.304  17.974  0.00  0.00    +0.000 A 
ATOM     22  C   UNL     1       8.684  12.629  17.744  0.00  0.00    +0.000 A 
ATOM     23  C   UNL     1       9.903  13.084  18.225  0.00  0.00    +0.000 A 
ATOM     24  F   UNL     1      10.283  14.344  17.981  0.00  0.00    +0.000 F 
ATOM     25  C   UNL     1      10.735  12.248  18.957  0.00  0.00    +0.000 A 
ATOM     26  C   UNL     1      10.345  10.925  19.191  0.00  0.00    +0.000 A 
ENDBRANCH  18  20
ENDBRANCH  15  17
ENDBRANCH   1  15
TORSDOF 5
ENDMDL
MODEL 5
REMARK VINA RESULT:      -7.6      4.806      7.453
REMARK  Name = 
REMARK  5 active torsions:
REMARK  status: ('A' for Active; 'I' for Inactive)
REMARK    1  A    between atoms: C_2  and  C_3
REMARK    2  A    between atoms: C_3  and  C_4
REMARK    3  A    between atoms: C_4  and  N_5
REMARK    4  A    between atoms: C_9  and  C_11
REMARK    5  A    between atoms: N_18  and  C_19
REMARK                            x       y       z     vdW  Elec       q    Type
REMARK                         _______ _______ _______ _____ _____    ______ ____
ROOT
ATOM      1  C   UNL     1       4.952   4.941  19.059  0.00  0.00    +0.000 C 
ENDROOT
BRANCH   1   2
ATOM      2  N   UNL     1       4.419   5.719  17.921  0.00  0.00    +0.000 NA
ATOM      3  C   UNL     1       5.379   6.680  17.334  0.00  0.00    +0.000 C 
ATOM      4  C   UNL     1       6.497   6.067  16.469  0.00  0.00    +0.000 C 
ATOM      5  N   UNL     1       5.978   5.147  15.458  0.00  0.00    +0.000 N 
ATOM      6  C   UNL     1       6.801   4.886  14.350  0.00  0.00    +0.000 C 
ATOM      7  O   UNL     1       7.926   5.386  14.273  0.00  0.00    +0.000 OA
ATOM      8  C   UNL     1       5.009   4.173  15.975  0.00  0.00    +0.000 C 
ATOM      9  C   UNL     1       3.919   4.839  16.838  0.00  0.00    +0.000 C 
BRANCH   6  10
ATOM     10  C   UNL     1       6.293   4.022  13.292  0.00  0.00    +0.000 A 
ATOM     11  C   UNL     1       6.973   3.253  12.363  0.00  0.00    +0.000 A 
ATOM     12  C   UNL     1       5.996   2.636  11.546  0.00  0.00    +0.000 A 
ATOM     13  C   UNL     1       4.782   3.094  11.995  0.00  0.00    +0.000 A 
ATOM     14  O   UNL     1       4.950   3.945  13.038  0.00  0.00    +0.000 OA
ENDBRANCH   6  10
ENDBRANCH   1   2
BRANCH   1  15
ATOM     15  C   UNL     1       3.844   4.476  20.013  0.00  0.00    +0.000 C 
BRANCH  15  17
ATOM     16  O   UNL     1       1.477   4.811  19.697  0.00  0.00    +0.000 OA
ATOM     17  C   UNL     1       2.575   5.309  19.908  0.00  0.00    +0.000 C 
ATOM     18  N   UNL     1       2.849   6.662  20.085  0.00  0.00    +0.000 N 
ATOM     19  H   UNL     1       3.827   6.923  20.108  0.00  0.00    +0.000 HD
BRANCH  18  20
ATOM     20  C   UNL     1       1.925   7.727  20.110  0.00  0.00    +0.000 A 
ATOM     21  C   UNL     1       1.129   8.040  21.214  0.00  0.00    +0.000 A 
ATOM     22  C   UNL     1       0.209   9.092  21.147  0.00  0.00    +0.000 A 
ATOM     23  C   UNL     1       0.092   9.833  19.980  0.00  0.00    +0.000 A 
ATOM     24  F   UNL     1      -0.808  10.822  19.910  0.00  0.00    +0.000 F 
ATOM     25  C   UNL     1       0.898   9.561  18.883  0.00  0.00    +0.000 A 
ATOM     26  C   UNL     1       1.820   8.513  18.951  0.00  0.00    +0.000 A 
ENDBRANCH  18  20
ENDBRANCH  15  17
ENDBRANCH   1  15
TORSDOF 5
ENDMDL
MODEL 6
REMARK VINA RESULT:      -7.5      1.598      1.952
REMARK  Name = 
REMARK  5 active torsions:
REMARK  status: ('A' for Active; 'I' for Inactive)
REMARK    1  A    between atoms: C_2  and  C_3
REMARK    2  A    between atoms: C_3  and  C_4
REMARK    3  A    between atoms: C_4  and  N_5
REMARK    4  A    between atoms: C_9  and  C_11
REMARK    5  A    between atoms: N_18  and  C_19
REMARK                            x       y       z     vdW  Elec       q    Type
REMARK                         _______ _______ _______ _____ _____    ______ ____
ROOT
ATOM      1  C   UNL     1       7.782   7.271  18.039  0.00  0.00    +0.000 C 
ENDROOT
BRANCH   1   2
ATOM      2  N   UNL     1       7.061   6.409  17.080  0.00  0.00    +0.000 NA
ATOM      3  C   UNL     1       7.392   4.970  17.181  0.00  0.00    +0.000 C 
ATOM      4  C   UNL     1       6.795   4.227  18.392  0.00  0.00    +0.000 C 
ATOM      5  N   UNL     1       5.357   4.453  18.529  0.00  0.00    +0.000 N 
ATOM      6  C   UNL     1       4.631   3.511  19.277  0.00  0.00    +0.000 C 
ATOM      7  O   UNL     1       5.207   2.567  19.822  0.00  0.00    +0.000 OA
ATOM      8  C   UNL     1       4.959   5.862  18.426  0.00  0.00    +0.000 C 
ATOM      9  C   UNL     1       5.591   6.557  17.204  0.00  0.00    +0.000 C 
BRANCH   6  10
ATOM     10  C   UNL     1       3.187   3.670  19.386  0.00  0.00    +0.000 A 
ATOM     11  C   UNL     1       2.371   3.680  20.504  0.00  0.00    +0.000 A 
ATOM     12  C   UNL     1       1.042   3.833  20.042  0.00  0.00    +0.000 A 
ATOM     13  C   UNL     1       1.118   3.864  18.671  0.00  0.00    +0.000 A 
ATOM     14  O   UNL     1       2.407   3.750  18.263  0.00  0.00    +0.000 OA
ENDBRANCH   6  10
ENDBRANCH   1   2
BRANCH   1  15
ATOM     15  C   UNL     1       7.916   8.714  17.533  0.00  0.00    +0.000 C 
BRANCH  15  17
ATOM     16  O   UNL     1       9.028   9.264  19.600  0.00  0.00    +0.000 OA
ATOM     17  C   UNL     1       8.739   9.598  18.458  0.00  0.00    +0.000 C 
ATOM     18  N   UNL     1       9.095  10.786  17.828  0.00  0.00    +0.000 N 
ATOM     19  H   UNL     1       8.657  10.970  16.934  0.00  0.00    +0.000 HD
BRANCH  18  20
ATOM     20  C   UNL     1       9.898  11.823  18.346  0.00  0.00    +0.000 A 
ATOM     21  C   UNL     1      11.289  11.748  18.458  0.00  0.00    +0.000 A 
ATOM     22  C   UNL     1      12.011  12.808  19.018  0.00  0.00    +0.000 A 
ATOM     23  C   UNL     1      11.344  13.942  19.457  0.00  0.00    +0.000 A 
ATOM     24  F   UNL     1      12.036  14.943  20.015  0.00  0.00    +0.000 F 
ATOM     25  C   UNL     1       9.967  14.052  19.323  0.00  0.00    +0.000 A 
ATOM     26  C   UNL     1       9.245  12.995  18.760  0.00  0.00    +0.000 A 
ENDBRANCH  18  20
ENDBRANCH  15  17
ENDBRANCH   1  15
TORSDOF 5
ENDMDL
MODEL 7
REMARK VINA RESULT:      -7.3      1.876      2.330
REMARK  Name = 
REMARK  5 active torsions:
REMARK  status: ('A' for Active; 'I' for Inactive)
REMARK    1  A    between atoms: C_2  and  C_3
REMARK    2  A    between atoms: C_3  and  C_4
REMARK    3  A    between atoms: C_4  and  N_5
REMARK    4  A    between atoms: C_9  and  C_11
REMARK    5  A    between atoms: N_18  and  C_19
REMARK                            x       y       z     vdW  Elec       q    Type
REMARK                         _______ _______ _______ _____ _____    ______ ____
ROOT
ATOM      1  C   UNL     1       6.970   8.407  17.630  0.00  0.00    +0.000 C 
ENDROOT
BRANCH   1   2
ATOM      2  N   UNL     1       6.703   7.263  16.734  0.00  0.00    +0.000 NA
ATOM      3  C   UNL     1       7.376   6.006  17.129  0.00  0.00    +0.000 C 
ATOM      4  C   UNL     1       6.771   5.274  18.343  0.00  0.00    +0.000 C 
ATOM      5  N   UNL     1       5.327   5.088  18.217  0.00  0.00    +0.000 N 
ATOM      6  C   UNL     1       4.744   4.073  18.995  0.00  0.00    +0.000 C 
ATOM      7  O   UNL     1       5.430   3.410  19.775  0.00  0.00    +0.000 OA
ATOM      8  C   UNL     1       4.599   6.298  17.815  0.00  0.00    +0.000 C 
ATOM      9  C   UNL     1       5.251   6.993  16.604  0.00  0.00    +0.000 C 
BRANCH   6  10
ATOM     10  C   UNL     1       3.316   3.818  18.852  0.00  0.00    +0.000 A 
ATOM     11  C   UNL     1       2.625   3.133  17.868  0.00  0.00    +0.000 A 
ATOM     12  C   UNL     1       1.251   3.216  18.196  0.00  0.00    +0.000 A 
ATOM     13  C   UNL     1       1.179   3.979  19.336  0.00  0.00    +0.000 A 
ATOM     14  O   UNL     1       2.418   4.363  19.732  0.00  0.00    +0.000 OA
ENDBRANCH   6  10
ENDBRANCH   1   2
BRANCH   1  15
ATOM     15  C   UNL     1       8.374   8.346  18.246  0.00  0.00    +0.000 C 
BRANCH  15  17
ATOM     16  O   UNL     1       9.300   9.883  19.856  0.00  0.00    +0.000 OA
ATOM     17  C   UNL     1       8.879   9.700  18.721  0.00  0.00    +0.000 C 
ATOM     18  N   UNL     1       8.793  10.649  17.708  0.00  0.00    +0.000 N 
ATOM     19  H   UNL     1       8.291  10.373  16.873  0.00  0.00    +0.000 HD
BRANCH  18  20
ATOM     20  C   UNL     1       9.215  11.994  17.756  0.00  0.00    +0.000 A 
ATOM     21  C   UNL     1      10.546  12.397  17.631  0.00  0.00    +0.000 A 
ATOM     22  C   UNL     1      10.888  13.751  17.726  0.00  0.00    +0.000 A 
ATOM     23  C   UNL     1       9.898  14.698  17.938  0.00  0.00    +0.000 A 
ATOM     24  F   UNL     1      10.231  15.990  18.055  0.00  0.00    +0.000 F 
ATOM     25  C   UNL     1       8.564  14.324  18.031  0.00  0.00    +0.000 A 
ATOM     26  C   UNL     1       8.222  12.972  17.932  0.00  0.00    +0.000 A 
ENDBRANCH  18  20
ENDBRANCH  15  17
ENDBRANCH   1  15
TORSDOF 5
ENDMDL
MODEL 8
REMARK VINA RESULT:      -7.3      1.576      1.953
REMARK  Name = 
REMARK  5 active torsions:
REMARK  status: ('A' for Active; 'I' for Inactive)
REMARK    1  A    between atoms: C_2  and  C_3
REMARK    2  A    between atoms: C_3  and  C_4
REMARK    3  A    between atoms: C_4  and  N_5
REMARK    4  A    between atoms: C_9  and  C_11
REMARK    5  A    between atoms: N_18  and  C_19
REMARK                            x       y       z     vdW  Elec       q    Type
REMARK                         _______ _______ _______ _____ _____    ______ ____
ROOT
ATOM      1  C   UNL     1       6.866   8.001  17.848  0.00  0.00    +0.000 C 
ENDROOT
BRANCH   1   2
ATOM      2  N   UNL     1       6.377   6.966  16.914  0.00  0.00    +0.000 NA
ATOM      3  C   UNL     1       7.002   5.637  17.092  0.00  0.00    +0.000 C 
ATOM      4  C   UNL     1       6.534   4.834  18.321  0.00  0.00    +0.000 C 
ATOM      5  N   UNL     1       5.077   4.755  18.412  0.00  0.00    +0.000 N 
ATOM      6  C   UNL     1       4.542   3.711  19.185  0.00  0.00    +0.000 C 
ATOM      7  O   UNL     1       5.285   2.934  19.789  0.00  0.00    +0.000 OA
ATOM      8  C   UNL     1       4.393   6.041  18.232  0.00  0.00    +0.000 C 
ATOM      9  C   UNL     1       4.906   6.804  16.994  0.00  0.00    +0.000 C 
BRANCH   6  10
ATOM     10  C   UNL     1       3.093   3.563  19.250  0.00  0.00    +0.000 A 
ATOM     11  C   UNL     1       2.198   3.960  20.228  0.00  0.00    +0.000 A 
ATOM     12  C   UNL     1       0.914   3.539  19.806  0.00  0.00    +0.000 A 
ATOM     13  C   UNL     1       1.105   2.873  18.619  0.00  0.00    +0.000 A 
ATOM     14  O   UNL     1       2.419   2.867  18.282  0.00  0.00    +0.000 OA
ENDBRANCH   6  10
ENDBRANCH   1   2
BRANCH   1  15
ATOM     15  C   UNL     1       8.204   8.604  17.398  0.00  0.00    +0.000 C 
BRANCH  15  17
ATOM     16  O   UNL     1       8.776   9.375  19.609  0.00  0.00    +0.000 OA
ATOM     17  C   UNL     1       8.787   9.586  18.402  0.00  0.00    +0.000 C 
ATOM     18  N   UNL     1       9.310  10.705  17.763  0.00  0.00    +0.000 N 
ATOM     19  H   UNL     1       9.112  10.791  16.774  0.00  0.00    +0.000 HD
BRANCH  18  20
ATOM     20  C   UNL     1       9.978  11.797  18.355  0.00  0.00    +0.000 A 
ATOM     21  C   UNL     1       9.415  13.067  18.498  0.00  0.00    +0.000 A 
ATOM     22  C   UNL     1      10.157  14.110  19.065  0.00  0.00    +0.000 A 
ATOM     23  C   UNL     1      11.456  13.878  19.494  0.00  0.00    +0.000 A 
ATOM     24  F   UNL     1      12.172  14.884  20.012  0.00  0.00    +0.000 F 
ATOM     25  C   UNL     1      12.022  12.615  19.393  0.00  0.00    +0.000 A 
ATOM     26  C   UNL     1      11.280  11.572  18.831  0.00  0.00    +0.000 A 
ENDBRANCH  18  20
ENDBRANCH  15  17
ENDBRANCH   1  15
TORSDOF 5
ENDMDL
MODEL 9
REMARK VINA RESULT:      -7.3      3.830      7.010
REMARK  Name = 
REMARK  5 active torsions:
REMARK  status: ('A' for Active; 'I' for Inactive)
REMARK    1  A    between atoms: C_2  and  C_3
REMARK    2  A    between atoms: C_3  and  C_4
REMARK    3  A    between atoms: C_4  and  N_5
REMARK    4  A    between atoms: C_9  and  C_11
REMARK    5  A    between atoms: N_18  and  C_19
REMARK                            x       y       z     vdW  Elec       q    Type
REMARK                         _______ _______ _______ _____ _____    ______ ____
ROOT
ATOM      1  C   UNL     1       2.328   2.443  20.152  0.00  0.00    +0.000 C 
ENDROOT
BRANCH   1   2
ATOM      2  N   UNL     1       3.698   2.024  19.791  0.00  0.00    +0.000 NA
ATOM      3  C   UNL     1       3.885   1.717  18.355  0.00  0.00    +0.000 C 
ATOM      4  C   UNL     1       3.943   2.934  17.411  0.00  0.00    +0.000 C 
ATOM      5  N   UNL     1       4.893   3.947  17.868  0.00  0.00    +0.000 N 
ATOM      6  C   UNL     1       5.369   4.855  16.907  0.00  0.00    +0.000 C 
ATOM      7  O   UNL     1       4.958   4.810  15.745  0.00  0.00    +0.000 OA
ATOM      8  C   UNL     1       4.768   4.289  19.290  0.00  0.00    +0.000 C 
ATOM      9  C   UNL     1       4.706   3.036  20.186  0.00  0.00    +0.000 C 
BRANCH   6  10
ATOM     10  C   UNL     1       6.363   5.842  17.311  0.00  0.00    +0.000 A 
ATOM     11  C   UNL     1       7.389   5.748  18.234  0.00  0.00    +0.000 A 
ATOM     12  C   UNL     1       8.033   7.008  18.263  0.00  0.00    +0.000 A 
ATOM     13  C   UNL     1       7.338   7.809  17.390  0.00  0.00    +0.000 A 
ATOM     14  O   UNL     1       6.317   7.120  16.821  0.00  0.00    +0.000 OA
ENDBRANCH   6  10
ENDBRANCH   1   2
BRANCH   1  15
ATOM     15  C   UNL     1       2.323   3.635  21.119  0.00  0.00    +0.000 C 
BRANCH  15  17
ATOM     16  O   UNL     1       0.349   4.736  20.280  0.00  0.00    +0.000 OA
ATOM     17  C   UNL     1       1.528   4.823  20.599  0.00  0.00    +0.000 C 
ATOM     18  N   UNL     1       2.315   5.969  20.549  0.00  0.00    +0.000 N 
ATOM     19  H   UNL     1       3.307   5.841  20.711  0.00  0.00    +0.000 HD
BRANCH  18  20
ATOM     20  C   UNL     1       1.915   7.268  20.174  0.00  0.00    +0.000 A 
ATOM     21  C   UNL     1       2.114   7.806  18.900  0.00  0.00    +0.000 A 
ATOM     22  C   UNL     1       1.720   9.119  18.617  0.00  0.00    +0.000 A 
ATOM     23  C   UNL     1       1.123   9.888  19.605  0.00  0.00    +0.000 A 
ATOM     24  F   UNL     1       0.771  11.152  19.339  0.00  0.00    +0.000 F 
ATOM     25  C   UNL     1       0.884   9.362  20.868  0.00  0.00    +0.000 A 
ATOM     26  C   UNL     1       1.273   8.049  21.149  0.00  0.00    +0.000 A 
ENDBRANCH  18  20
ENDBRANCH  15  17
ENDBRANCH   1  15
TORSDOF 5
ENDMDL
