MODEL 1
REMARK VINA RESULT:      -5.3      0.000      0.000
REMARK  Name = 
REMARK  4 active torsions:
REMARK  status: ('A' for Active; 'I' for Inactive)
REMARK    1  A    between atoms: C_1  and  C_2
REMARK    2  A    between atoms: C_2  and  C_3
REMARK    3  A    between atoms: C_3  and  N_4
REMARK    4  A    between atoms: N_4  and  C_5
REMARK                            x       y       z     vdW  Elec       q    Type
REMARK                         _______ _______ _______ _____ _____    ______ ____
ROOT
ATOM      1  C   UNL     1       4.961   4.521  18.560  0.00  0.00    +0.000 C 
ATOM      2  C   UNL     1       4.709   4.456  17.044  0.00  0.00    +0.000 C 
ATOM      3  C   UNL     1       6.027   4.110  16.369  0.00  0.00    +0.000 C 
ATOM      4  S   UNL     1       7.258   5.011  17.287  0.00  0.00    +0.000 S 
ATOM      5  O   UNL     1       7.466   6.292  16.635  0.00  0.00    +0.000 OA
ATOM      6  O   UNL     1       8.358   4.125  17.608  0.00  0.00    +0.000 OA
ATOM      7  C   UNL     1       6.277   5.294  18.745  0.00  0.00    +0.000 C 
ENDROOT
BRANCH   1   8
ATOM      8  N   UNL     1       4.960   3.175  19.169  0.00  0.00    +0.000 NA
ATOM      9  H   UNL     1       5.172   2.477  18.452  0.00  0.00    +0.000 HD
BRANCH   8  10
ATOM     10  C   UNL     1       3.653   2.857  19.755  0.00  0.00    +0.000 C 
BRANCH  10  12
ATOM     11  C   UNL     1       1.556   2.589  18.423  0.00  0.00    +0.000 C 
ATOM     12  C   UNL     1       2.835   1.900  18.888  0.00  0.00    +0.000 C 
ENDBRANCH  10  12
ENDBRANCH   8  10
ENDBRANCH   1   8
TORSDOF 3
ENDMDL
MODEL 2
REMARK VINA RESULT:      -5.2      0.816      1.001
REMARK  Name = 
REMARK  4 active torsions:
REMARK  status: ('A' for Active; 'I' for Inactive)
REMARK    1  A    between atoms: C_1  and  C_2
REMARK    2  A    between atoms: C_2  and  C_3
REMARK    3  A    between atoms: C_3  and  N_4
REMARK    4  A    between atoms: N_4  and  C_5
REMARK                            x       y       z     vdW  Elec       q    Type
REMARK                         _______ _______ _______ _____ _____    ______ ____
ROOT
ATOM      1  C   UNL     1       4.993   4.600  18.614  0.00  0.00    +0.000 C 
ATOM      2  C   UNL     1       4.596   4.523  17.131  0.00  0.00    +0.000 C 
ATOM      3  C   UNL     1       5.838   4.148  16.336  0.00  0.00    +0.000 C 
ATOM      4  S   UNL     1       7.165   5.038  17.122  0.00  0.00    +0.000 S 
ATOM      5  O   UNL     1       7.329   6.309  16.437  0.00  0.00    +0.000 OA
ATOM      6  O   UNL     1       8.277   4.137  17.346  0.00  0.00    +0.000 OA
ATOM      7  C   UNL     1       6.333   5.353  18.663  0.00  0.00    +0.000 C 
ENDROOT
BRANCH   1   8
ATOM      8  N   UNL     1       5.030   3.260  19.237  0.00  0.00    +0.000 NA
ATOM      9  H   UNL     1       5.639   2.647  18.689  0.00  0.00    +0.000 HD
BRANCH   8  10
ATOM     10  C   UNL     1       3.692   2.661  19.290  0.00  0.00    +0.000 C 
BRANCH  10  12
ATOM     11  C   UNL     1       1.921   3.794  20.640  0.00  0.00    +0.000 C 
ATOM     12  C   UNL     1       3.051   2.771  20.674  0.00  0.00    +0.000 C 
ENDBRANCH  10  12
ENDBRANCH   8  10
ENDBRANCH   1   8
TORSDOF 3
ENDMDL
MODEL 3
REMARK VINA RESULT:      -5.1      2.971      4.379
REMARK  Name = 
REMARK  4 active torsions:
REMARK  status: ('A' for Active; 'I' for Inactive)
REMARK    1  A    between atoms: C_1  and  C_2
REMARK    2  A    between atoms: C_2  and  C_3
REMARK    3  A    between atoms: C_3  and  N_4
REMARK    4  A    between atoms: N_4  and  C_5
REMARK                            x       y       z     vdW  Elec       q    Type
REMARK                         _______ _______ _______ _____ _____    ______ ____
ROOT
ATOM      1  C   UNL     1       5.475   5.704  16.191  0.00  0.00    +0.000 C 
ATOM      2  C   UNL     1       5.942   6.928  16.998  0.00  0.00    +0.000 C 
ATOM      3  C   UNL     1       7.285   6.586  17.624  0.00  0.00    +0.000 C 
ATOM      4  S   UNL     1       7.137   4.880  18.113  0.00  0.00    +0.000 S 
ATOM      5  O   UNL     1       6.686   4.840  19.493  0.00  0.00    +0.000 OA
ATOM      6  O   UNL     1       8.308   4.153  17.666  0.00  0.00    +0.000 OA
ATOM      7  C   UNL     1       5.751   4.476  17.073  0.00  0.00    +0.000 C 
ENDROOT
BRANCH   1   8
ATOM      8  N   UNL     1       6.121   5.652  14.863  0.00  0.00    +0.000 NA
ATOM      9  H   UNL     1       5.496   6.062  14.165  0.00  0.00    +0.000 HD
BRANCH   8  10
ATOM     10  C   UNL     1       6.416   4.269  14.469  0.00  0.00    +0.000 C 
BRANCH  10  12
ATOM     11  C   UNL     1       6.531   3.364  12.143  0.00  0.00    +0.000 C 
ATOM     12  C   UNL     1       5.596   3.813  13.261  0.00  0.00    +0.000 C 
ENDBRANCH  10  12
ENDBRANCH   8  10
ENDBRANCH   1   8
TORSDOF 3
ENDMDL
MODEL 4
REMARK VINA RESULT:      -5.1      0.998      1.183
REMARK  Name = 
REMARK  4 active torsions:
REMARK  status: ('A' for Active; 'I' for Inactive)
REMARK    1  A    between atoms: C_1  and  C_2
REMARK    2  A    between atoms: C_2  and  C_3
REMARK    3  A    between atoms: C_3  and  N_4
REMARK    4  A    between atoms: N_4  and  C_5
REMARK                            x       y       z     vdW  Elec       q    Type
REMARK                         _______ _______ _______ _____ _____    ______ ____
ROOT
ATOM      1  C   UNL     1       4.637   4.112  17.219  0.00  0.00    +0.000 C 
ATOM      2  C   UNL     1       4.905   4.152  15.705  0.00  0.00    +0.000 C 
ATOM      3  C   UNL     1       6.404   4.001  15.495  0.00  0.00    +0.000 C 
ATOM      4  S   UNL     1       7.144   4.942  16.813  0.00  0.00    +0.000 S 
ATOM      5  O   UNL     1       7.392   6.288  16.329  0.00  0.00    +0.000 OA
ATOM      6  O   UNL     1       8.181   4.148  17.442  0.00  0.00    +0.000 OA
ATOM      7  C   UNL     1       5.713   4.997  17.870  0.00  0.00    +0.000 C 
ENDROOT
BRANCH   1   8
ATOM      8  N   UNL     1       4.606   2.725  17.729  0.00  0.00    +0.000 NA
ATOM      9  H   UNL     1       5.079   2.108  17.065  0.00  0.00    +0.000 HD
BRANCH   8  10
ATOM     10  C   UNL     1       3.227   2.253  17.902  0.00  0.00    +0.000 C 
BRANCH  10  12
ATOM     11  C   UNL     1       0.933   2.714  18.779  0.00  0.00    +0.000 C 
ATOM     12  C   UNL     1       2.369   3.225  18.714  0.00  0.00    +0.000 C 
ENDBRANCH  10  12
ENDBRANCH   8  10
ENDBRANCH   1   8
TORSDOF 3
ENDMDL
MODEL 5
REMARK VINA RESULT:      -5.0      3.378      4.801
REMARK  Name = 
REMARK  4 active torsions:
REMARK  status: ('A' for Active; 'I' for Inactive)
REMARK    1  A    between atoms: C_1  and  C_2
REMARK    2  A    between atoms: C_2  and  C_3
REMARK    3  A    between atoms: C_3  and  N_4
REMARK    4  A    between atoms: N_4  and  C_5
REMARK                            x       y       z     vdW  Elec       q    Type
REMARK                         _______ _______ _______ _____ _____    ______ ____
ROOT
ATOM      1  C   UNL     1       5.093   4.014  17.228  0.00  0.00    +0.000 C 
ATOM      2  C   UNL     1       4.497   5.382  16.857  0.00  0.00    +0.000 C 
ATOM      3  C   UNL     1       3.429   5.719  17.887  0.00  0.00    +0.000 C 
ATOM      4  S   UNL     1       2.618   4.169  18.222  0.00  0.00    +0.000 S 
ATOM      5  O   UNL     1       1.473   4.053  17.337  0.00  0.00    +0.000 OA
ATOM      6  O   UNL     1       2.502   3.993  19.656  0.00  0.00    +0.000 OA
ATOM      7  C   UNL     1       3.903   3.111  17.594  0.00  0.00    +0.000 C 
ENDROOT
BRANCH   1   8
ATOM      8  N   UNL     1       6.109   4.136  18.294  0.00  0.00    +0.000 NA
ATOM      9  H   UNL     1       5.722   4.673  19.073  0.00  0.00    +0.000 HD
BRANCH   8  10
ATOM     10  C   UNL     1       7.312   4.821  17.807  0.00  0.00    +0.000 C 
BRANCH  10  12
ATOM     11  C   UNL     1       7.622   7.300  17.760  0.00  0.00    +0.000 C 
ATOM     12  C   UNL     1       7.665   6.054  18.639  0.00  0.00    +0.000 C 
ENDBRANCH  10  12
ENDBRANCH   8  10
ENDBRANCH   1   8
TORSDOF 3
ENDMDL
MODEL 6
REMARK VINA RESULT:      -5.0      3.219      4.788
REMARK  Name = 
REMARK  4 active torsions:
REMARK  status: ('A' for Active; 'I' for Inactive)
REMARK    1  A    between atoms: C_1  and  C_2
REMARK    2  A    between atoms: C_2  and  C_3
REMARK    3  A    between atoms: C_3  and  N_4
REMARK    4  A    between atoms: N_4  and  C_5
REMARK                            x       y       z     vdW  Elec       q    Type
REMARK                         _______ _______ _______ _____ _____    ______ ____
ROOT
ATOM      1  C   UNL     1       5.132   4.747  17.813  0.00  0.00    +0.000 C 
ATOM      2  C   UNL     1       4.182   5.089  18.974  0.00  0.00    +0.000 C 
ATOM      3  C   UNL     1       3.478   3.807  19.390  0.00  0.00    +0.000 C 
ATOM      4  S   UNL     1       3.157   2.949  17.863  0.00  0.00    +0.000 S 
ATOM      5  O   UNL     1       1.830   3.317  17.403  0.00  0.00    +0.000 OA
ATOM      6  O   UNL     1       3.567   1.566  17.998  0.00  0.00    +0.000 OA
ATOM      7  C   UNL     1       4.342   3.827  16.868  0.00  0.00    +0.000 C 
ENDROOT
BRANCH   1   8
ATOM      8  N   UNL     1       6.400   4.167  18.302  0.00  0.00    +0.000 NA
ATOM      9  H   UNL     1       6.313   3.950  19.298  0.00  0.00    +0.000 HD
BRANCH   8  10
ATOM     10  C   UNL     1       7.516   5.103  18.125  0.00  0.00    +0.000 C 
BRANCH  10  12
ATOM     11  C   UNL     1       7.660   7.552  17.650  0.00  0.00    +0.000 C 
ATOM     12  C   UNL     1       7.210   6.200  17.105  0.00  0.00    +0.000 C 
ENDBRANCH  10  12
ENDBRANCH   8  10
ENDBRANCH   1   8
TORSDOF 3
ENDMDL
MODEL 7
REMARK VINA RESULT:      -5.0      1.486      2.330
REMARK  Name = 
REMARK  4 active torsions:
REMARK  status: ('A' for Active; 'I' for Inactive)
REMARK    1  A    between atoms: C_1  and  C_2
REMARK    2  A    between atoms: C_2  and  C_3
REMARK    3  A    between atoms: C_3  and  N_4
REMARK    4  A    between atoms: N_4  and  C_5
REMARK                            x       y       z     vdW  Elec       q    Type
REMARK                         _______ _______ _______ _____ _____    ______ ____
ROOT
ATOM      1  C   UNL     1       4.521   4.171  17.620  0.00  0.00    +0.000 C 
ATOM      2  C   UNL     1       5.268   4.283  18.960  0.00  0.00    +0.000 C 
ATOM      3  C   UNL     1       6.346   5.344  18.803  0.00  0.00    +0.000 C 
ATOM      4  S   UNL     1       6.980   5.107  17.156  0.00  0.00    +0.000 S 
ATOM      5  O   UNL     1       8.122   4.213  17.231  0.00  0.00    +0.000 OA
ATOM      6  O   UNL     1       7.050   6.388  16.483  0.00  0.00    +0.000 OA
ATOM      7  C   UNL     1       5.600   4.177  16.525  0.00  0.00    +0.000 C 
ENDROOT
BRANCH   1   8
ATOM      8  N   UNL     1       3.504   5.233  17.474  0.00  0.00    +0.000 NA
ATOM      9  H   UNL     1       3.964   6.147  17.484  0.00  0.00    +0.000 HD
BRANCH   8  10
ATOM     10  C   UNL     1       2.528   5.190  18.569  0.00  0.00    +0.000 C 
BRANCH  10  12
ATOM     11  C   UNL     1       1.017   3.649  19.828  0.00  0.00    +0.000 C 
ATOM     12  C   UNL     1       1.561   4.011  18.450  0.00  0.00    +0.000 C 
ENDBRANCH  10  12
ENDBRANCH   8  10
ENDBRANCH   1   8
TORSDOF 3
ENDMDL
MODEL 8
REMARK VINA RESULT:      -4.9      2.910      4.443
REMARK  Name = 
REMARK  4 active torsions:
REMARK  status: ('A' for Active; 'I' for Inactive)
REMARK    1  A    between atoms: C_1  and  C_2
REMARK    2  A    between atoms: C_2  and  C_3
REMARK    3  A    between atoms: C_3  and  N_4
REMARK    4  A    between atoms: N_4  and  C_5
REMARK                            x       y       z     vdW  Elec       q    Type
REMARK                         _______ _______ _______ _____ _____    ______ ____
ROOT
ATOM      1  C   UNL     1       6.294   4.635  16.437  0.00  0.00    +0.000 C 
ATOM      2  C   UNL     1       5.084   5.075  17.278  0.00  0.00    +0.000 C 
ATOM      3  C   UNL     1       5.519   6.250  18.140  0.00  0.00    +0.000 C 
ATOM      4  S   UNL     1       7.180   5.853  18.644  0.00  0.00    +0.000 S 
ATOM      5  O   UNL     1       7.117   5.169  19.923  0.00  0.00    +0.000 OA
ATOM      6  O   UNL     1       8.031   7.005  18.430  0.00  0.00    +0.000 OA
ATOM      7  C   UNL     1       7.502   4.633  17.388  0.00  0.00    +0.000 C 
ENDROOT
BRANCH   1   8
ATOM      8  N   UNL     1       6.466   5.492  15.245  0.00  0.00    +0.000 NA
ATOM      9  H   UNL     1       5.565   5.902  14.988  0.00  0.00    +0.000 HD
BRANCH   8  10
ATOM     10  C   UNL     1       6.968   4.719  14.102  0.00  0.00    +0.000 C 
BRANCH  10  12
ATOM     11  C   UNL     1       6.336   3.346  12.113  0.00  0.00    +0.000 C 
ATOM     12  C   UNL     1       5.910   3.789  13.509  0.00  0.00    +0.000 C 
ENDBRANCH  10  12
ENDBRANCH   8  10
ENDBRANCH   1   8
TORSDOF 3
ENDMDL
MODEL 9
REMARK VINA RESULT:      -4.9      3.614      4.702
REMARK  Name = 
REMARK  4 active torsions:
REMARK  status: ('A' for Active; 'I' for Inactive)
REMARK    1  A    between atoms: C_1  and  C_2
REMARK    2  A    between atoms: C_2  and  C_3
REMARK    3  A    between atoms: C_3  and  N_4
REMARK    4  A    between atoms: N_4  and  C_5
REMARK                            x       y       z     vdW  Elec       q    Type
REMARK                         _______ _______ _______ _____ _____    ______ ____
ROOT
ATOM      1  C   UNL     1       4.267   2.807  19.566  0.00  0.00    +0.000 C 
ATOM      2  C   UNL     1       3.716   1.627  18.748  0.00  0.00    +0.000 C 
ATOM      3  C   UNL     1       2.668   2.175  17.792  0.00  0.00    +0.000 C 
ATOM      4  S   UNL     1       1.806   3.421  18.728  0.00  0.00    +0.000 S 
ATOM      5  O   UNL     1       0.652   2.802  19.355  0.00  0.00    +0.000 OA
ATOM      6  O   UNL     1       1.693   4.624  17.929  0.00  0.00    +0.000 OA
ATOM      7  C   UNL     1       3.050   3.650  19.980  0.00  0.00    +0.000 C 
ENDROOT
BRANCH   1   8
ATOM      8  N   UNL     1       5.294   3.557  18.813  0.00  0.00    +0.000 NA
ATOM      9  H   UNL     1       6.222   3.207  19.064  0.00  0.00    +0.000 HD
BRANCH   8  10
ATOM     10  C   UNL     1       5.238   4.991  19.120  0.00  0.00    +0.000 C 
BRANCH  10  12
ATOM     11  C   UNL     1       4.963   4.964  16.636  0.00  0.00    +0.000 C 
ATOM     12  C   UNL     1       5.089   5.855  17.867  0.00  0.00    +0.000 C 
ENDBRANCH  10  12
ENDBRANCH   8  10
ENDBRANCH   1   8
TORSDOF 3
ENDMDL
