MODEL 1
REMARK VINA RESULT:      -8.1      0.000      0.000
REMARK  Name = 
REMARK  3 active torsions:
REMARK  status: ('A' for Active; 'I' for Inactive)
REMARK    1  A    between atoms: O_1  and  C_2
REMARK    2  A    between atoms: C_6  and  C_7
REMARK    3  A    between atoms: C_9  and  C_10
REMARK                            x       y       z     vdW  Elec       q    Type
REMARK                         _______ _______ _______ _____ _____    ______ ____
ROOT
ATOM      1  C   UNL     1       4.350   5.961  17.291  0.00  0.00    +0.000 A 
ATOM      2  C   UNL     1       3.592   7.135  17.225  0.00  0.00    +0.000 A 
ATOM      3  C   UNL     1       2.652   7.405  18.221  0.00  0.00    +0.000 A 
ATOM      4  N   UNL     1       2.232   6.443  19.080  0.00  0.00    +0.000 NA
ATOM      5  C   UNL     1       2.981   5.322  19.151  0.00  0.00    +0.000 A 
ATOM      6  C   UNL     1       4.145   5.161  18.420  0.00  0.00    +0.000 A 
ATOM      7  C   UNL     1       5.243   4.391  19.108  0.00  0.00    +0.000 C 
ATOM      8  O   UNL     1       4.864   3.336  20.000  0.00  0.00    +0.000 OA
ATOM      9  C   UNL     1       3.571   3.316  20.448  0.00  0.00    +0.000 A 
ATOM     10  C   UNL     1       3.253   2.254  21.298  0.00  0.00    +0.000 A 
ATOM     11  C   UNL     1       1.932   2.033  21.672  0.00  0.00    +0.000 A 
ATOM     12  C   UNL     1       0.930   2.877  21.198  0.00  0.00    +0.000 A 
ATOM     13  C   UNL     1       1.260   3.982  20.405  0.00  0.00    +0.000 A 
ATOM     14  C   UNL     1       2.593   4.235  20.041  0.00  0.00    +0.000 A 
ENDROOT
BRANCH   3  15
ATOM     15  C   UNL     1       2.200   8.781  18.502  0.00  0.00    +0.000 A 
ATOM     16  C   UNL     1       2.572   9.864  17.693  0.00  0.00    +0.000 A 
ATOM     17  C   UNL     1       2.063  11.146  17.919  0.00  0.00    +0.000 A 
ATOM     18  C   UNL     1       1.161  11.376  18.955  0.00  0.00    +0.000 A 
ATOM     19  C   UNL     1       0.761  10.316  19.759  0.00  0.00    +0.000 A 
ATOM     20 CL   UNL     1      -0.387  10.575  21.015  0.00  0.00    +0.000 Cl
ATOM     21  C   UNL     1       1.270   9.037  19.536  0.00  0.00    +0.000 A 
ENDBRANCH   3  15
BRANCH   1  26
ATOM     22  C   UNL     1       5.775   4.407  14.125  0.00  0.00    +0.000 A 
ATOM     23  C   UNL     1       7.122   4.735  14.218  0.00  0.00    +0.000 A 
ATOM     24  C   UNL     1       7.560   5.483  15.305  0.00  0.00    +0.000 A 
ATOM     25  C   UNL     1       6.647   5.887  16.283  0.00  0.00    +0.000 A 
ATOM     26  C   UNL     1       5.271   5.577  16.196  0.00  0.00    +0.000 A 
ATOM     27  C   UNL     1       4.856   4.818  15.092  0.00  0.00    +0.000 A 
BRANCH  22  28
ATOM     28  O   UNL     1       5.300   3.656  13.089  0.00  0.00    +0.000 OA
ATOM     29  H   UNL     1       4.417   3.325  13.324  0.00  0.00    +0.000 HD
ENDBRANCH  22  28
ENDBRANCH   1  26
TORSDOF 3
ENDMDL
MODEL 2
REMARK VINA RESULT:      -7.9      3.881      6.440
REMARK  Name = 
REMARK  3 active torsions:
REMARK  status: ('A' for Active; 'I' for Inactive)
REMARK    1  A    between atoms: O_1  and  C_2
REMARK    2  A    between atoms: C_6  and  C_7
REMARK    3  A    between atoms: C_9  and  C_10
REMARK                            x       y       z     vdW  Elec       q    Type
REMARK                         _______ _______ _______ _____ _____    ______ ____
ROOT
ATOM      1  C   UNL     1       6.032   5.943  16.889  0.00  0.00    +0.000 A 
ATOM      2  C   UNL     1       6.453   5.290  15.724  0.00  0.00    +0.000 A 
ATOM      3  C   UNL     1       5.637   4.315  15.149  0.00  0.00    +0.000 A 
ATOM      4  N   UNL     1       4.602   3.763  15.828  0.00  0.00    +0.000 NA
ATOM      5  C   UNL     1       4.190   4.410  16.940  0.00  0.00    +0.000 A 
ATOM      6  C   UNL     1       4.759   5.602  17.357  0.00  0.00    +0.000 A 
ATOM      7  C   UNL     1       3.811   6.586  17.993  0.00  0.00    +0.000 C 
ATOM      8  O   UNL     1       2.717   6.065  18.758  0.00  0.00    +0.000 OA
ATOM      9  C   UNL     1       2.387   4.749  18.579  0.00  0.00    +0.000 A 
ATOM     10  C   UNL     1       1.326   4.291  19.364  0.00  0.00    +0.000 A 
ATOM     11  C   UNL     1       1.018   2.935  19.396  0.00  0.00    +0.000 A 
ATOM     12  C   UNL     1       1.770   2.038  18.640  0.00  0.00    +0.000 A 
ATOM     13  C   UNL     1       2.786   2.508  17.800  0.00  0.00    +0.000 A 
ATOM     14  C   UNL     1       3.091   3.878  17.735  0.00  0.00    +0.000 A 
ENDROOT
BRANCH   3  15
ATOM     15  C   UNL     1       5.749   3.962  13.720  0.00  0.00    +0.000 A 
ATOM     16  C   UNL     1       6.991   3.763  13.101  0.00  0.00    +0.000 A 
ATOM     17  C   UNL     1       7.078   3.341  11.771  0.00  0.00    +0.000 A 
ATOM     18  C   UNL     1       5.925   3.097  11.030  0.00  0.00    +0.000 A 
ATOM     19  C   UNL     1       4.681   3.268  11.627  0.00  0.00    +0.000 A 
ATOM     20 CL   UNL     1       3.248   2.929  10.738  0.00  0.00    +0.000 Cl
ATOM     21  C   UNL     1       4.593   3.692  12.952  0.00  0.00    +0.000 A 
ENDBRANCH   3  15
BRANCH   1  26
ATOM     22  C   UNL     1       7.942   9.084  17.864  0.00  0.00    +0.000 A 
ATOM     23  C   UNL     1       8.750   8.627  18.898  0.00  0.00    +0.000 A 
ATOM     24  C   UNL     1       8.653   7.297  19.291  0.00  0.00    +0.000 A 
ATOM     25  C   UNL     1       7.755   6.444  18.642  0.00  0.00    +0.000 A 
ATOM     26  C   UNL     1       6.915   6.896  17.600  0.00  0.00    +0.000 A 
ATOM     27  C   UNL     1       7.035   8.240  17.220  0.00  0.00    +0.000 A 
BRANCH  22  28
ATOM     28  O   UNL     1       8.016  10.375  17.427  0.00  0.00    +0.000 OA
ATOM     29  H   UNL     1       7.191  10.593  16.961  0.00  0.00    +0.000 HD
ENDBRANCH  22  28
ENDBRANCH   1  26
TORSDOF 3
ENDMDL
MODEL 3
REMARK VINA RESULT:      -7.8      5.056      9.852
REMARK  Name = 
REMARK  3 active torsions:
REMARK  status: ('A' for Active; 'I' for Inactive)
REMARK    1  A    between atoms: O_1  and  C_2
REMARK    2  A    between atoms: C_6  and  C_7
REMARK    3  A    between atoms: C_9  and  C_10
REMARK                            x       y       z     vdW  Elec       q    Type
REMARK                         _______ _______ _______ _____ _____    ______ ____
ROOT
ATOM      1  C   UNL     1      -0.982  11.372  18.335  0.00  0.00    +0.000 A 
ATOM      2  C   UNL     1      -0.306  10.153  18.216  0.00  0.00    +0.000 A 
ATOM      3  C   UNL     1       1.072  10.105  18.434  0.00  0.00    +0.000 A 
ATOM      4  N   UNL     1       1.826  11.232  18.461  0.00  0.00    +0.000 NA
ATOM      5  C   UNL     1       1.166  12.402  18.596  0.00  0.00    +0.000 A 
ATOM      6  C   UNL     1      -0.209  12.465  18.742  0.00  0.00    +0.000 A 
ATOM      7  C   UNL     1      -0.718  13.555  19.649  0.00  0.00    +0.000 C 
ATOM      8  O   UNL     1       0.015  14.786  19.694  0.00  0.00    +0.000 OA
ATOM      9  C   UNL     1       1.294  14.782  19.207  0.00  0.00    +0.000 A 
ATOM     10  C   UNL     1       1.952  16.013  19.257  0.00  0.00    +0.000 A 
ATOM     11  C   UNL     1       3.185  16.170  18.633  0.00  0.00    +0.000 A 
ATOM     12  C   UNL     1       3.760  15.093  17.961  0.00  0.00    +0.000 A 
ATOM     13  C   UNL     1       3.133  13.842  17.973  0.00  0.00    +0.000 A 
ATOM     14  C   UNL     1       1.900  13.661  18.623  0.00  0.00    +0.000 A 
ENDROOT
BRANCH   3  15
ATOM     15  C   UNL     1       1.749   8.851  18.818  0.00  0.00    +0.000 A 
ATOM     16  C   UNL     1       1.471   8.199  20.028  0.00  0.00    +0.000 A 
ATOM     17  C   UNL     1       2.052   6.966  20.337  0.00  0.00    +0.000 A 
ATOM     18  C   UNL     1       2.920   6.350  19.439  0.00  0.00    +0.000 A 
ATOM     19  C   UNL     1       3.197   6.966  18.225  0.00  0.00    +0.000 A 
ATOM     20 CL   UNL     1       4.233   6.196  17.086  0.00  0.00    +0.000 Cl
ATOM     21  C   UNL     1       2.620   8.197  17.917  0.00  0.00    +0.000 A 
ENDBRANCH   3  15
BRANCH   1  26
ATOM     22  C   UNL     1      -4.747  11.838  18.605  0.00  0.00    +0.000 A 
ATOM     23  C   UNL     1      -5.172  11.542  17.315  0.00  0.00    +0.000 A 
ATOM     24  C   UNL     1      -4.226  11.211  16.352  0.00  0.00    +0.000 A 
ATOM     25  C   UNL     1      -2.870  11.177  16.694  0.00  0.00    +0.000 A 
ATOM     26  C   UNL     1      -2.419  11.492  17.996  0.00  0.00    +0.000 A 
ATOM     27  C   UNL     1      -3.394  11.817  18.949  0.00  0.00    +0.000 A 
BRANCH  22  28
ATOM     28  O   UNL     1      -5.639  12.146  19.590  0.00  0.00    +0.000 OA
ATOM     29  H   UNL     1      -6.247  11.397  19.705  0.00  0.00    +0.000 HD
ENDBRANCH  22  28
ENDBRANCH   1  26
TORSDOF 3
ENDMDL
MODEL 4
REMARK VINA RESULT:      -7.8      4.738      9.354
REMARK  Name = 
REMARK  3 active torsions:
REMARK  status: ('A' for Active; 'I' for Inactive)
REMARK    1  A    between atoms: O_1  and  C_2
REMARK    2  A    between atoms: C_6  and  C_7
REMARK    3  A    between atoms: C_9  and  C_10
REMARK                            x       y       z     vdW  Elec       q    Type
REMARK                         _______ _______ _______ _____ _____    ______ ____
ROOT
ATOM      1  C   UNL     1      -0.714  10.889  18.137  0.00  0.00    +0.000 A 
ATOM      2  C   UNL     1       0.022   9.713  17.954  0.00  0.00    +0.000 A 
ATOM      3  C   UNL     1       1.389   9.704  18.238  0.00  0.00    +0.000 A 
ATOM      4  N   UNL     1       2.089  10.855  18.394  0.00  0.00    +0.000 NA
ATOM      5  C   UNL     1       1.370  11.982  18.589  0.00  0.00    +0.000 A 
ATOM      6  C   UNL     1      -0.011  11.975  18.670  0.00  0.00    +0.000 A 
ATOM      7  C   UNL     1      -0.611  12.965  19.636  0.00  0.00    +0.000 C 
ATOM      8  O   UNL     1       0.062  14.217  19.816  0.00  0.00    +0.000 OA
ATOM      9  C   UNL     1       1.362  14.306  19.396  0.00  0.00    +0.000 A 
ATOM     10  C   UNL     1       1.960  15.555  19.579  0.00  0.00    +0.000 A 
ATOM     11  C   UNL     1       3.213  15.814  19.033  0.00  0.00    +0.000 A 
ATOM     12  C   UNL     1       3.867  14.821  18.307  0.00  0.00    +0.000 A 
ATOM     13  C   UNL     1       3.297  13.549  18.186  0.00  0.00    +0.000 A 
ATOM     14  C   UNL     1       2.045  13.263  18.755  0.00  0.00    +0.000 A 
ENDROOT
BRANCH   3  15
ATOM     15  C   UNL     1       2.103   8.452  18.553  0.00  0.00    +0.000 A 
ATOM     16  C   UNL     1       1.850   7.730  19.728  0.00  0.00    +0.000 A 
ATOM     17  C   UNL     1       2.468   6.499  19.969  0.00  0.00    +0.000 A 
ATOM     18  C   UNL     1       3.348   5.956  19.037  0.00  0.00    +0.000 A 
ATOM     19  C   UNL     1       3.601   6.643  17.856  0.00  0.00    +0.000 A 
ATOM     20 CL   UNL     1       4.652   5.963  16.675  0.00  0.00    +0.000 Cl
ATOM     21  C   UNL     1       2.987   7.871  17.615  0.00  0.00    +0.000 A 
ENDBRANCH   3  15
BRANCH   1  26
ATOM     22  C   UNL     1      -3.926  10.759  16.105  0.00  0.00    +0.000 A 
ATOM     23  C   UNL     1      -4.847  11.326  16.976  0.00  0.00    +0.000 A 
ATOM     24  C   UNL     1      -4.423  11.731  18.237  0.00  0.00    +0.000 A 
ATOM     25  C   UNL     1      -3.084  11.567  18.604  0.00  0.00    +0.000 A 
ATOM     26  C   UNL     1      -2.137  10.977  17.737  0.00  0.00    +0.000 A 
ATOM     27  C   UNL     1      -2.590  10.581  16.470  0.00  0.00    +0.000 A 
BRANCH  22  28
ATOM     28  O   UNL     1      -4.289  10.366  14.849  0.00  0.00    +0.000 OA
ATOM     29  H   UNL     1      -4.833   9.564  14.919  0.00  0.00    +0.000 HD
ENDBRANCH  22  28
ENDBRANCH   1  26
TORSDOF 3
ENDMDL
MODEL 5
REMARK VINA RESULT:      -7.6      4.478      7.553
REMARK  Name = 
REMARK  3 active torsions:
REMARK  status: ('A' for Active; 'I' for Inactive)
REMARK    1  A    between atoms: O_1  and  C_2
REMARK    2  A    between atoms: C_6  and  C_7
REMARK    3  A    between atoms: C_9  and  C_10
REMARK                            x       y       z     vdW  Elec       q    Type
REMARK                         _______ _______ _______ _____ _____    ______ ____
ROOT
ATOM      1  C   UNL     1       4.491   4.144  17.420  0.00  0.00    +0.000 A 
ATOM      2  C   UNL     1       4.371   4.026  16.031  0.00  0.00    +0.000 A 
ATOM      3  C   UNL     1       5.314   4.639  15.203  0.00  0.00    +0.000 A 
ATOM      4  N   UNL     1       6.162   5.586  15.674  0.00  0.00    +0.000 NA
ATOM      5  C   UNL     1       6.286   5.679  17.015  0.00  0.00    +0.000 A 
ATOM      6  C   UNL     1       5.619   4.831  17.882  0.00  0.00    +0.000 A 
ATOM      7  C   UNL     1       6.373   4.454  19.131  0.00  0.00    +0.000 C 
ATOM      8  O   UNL     1       7.258   5.427  19.699  0.00  0.00    +0.000 OA
ATOM      9  C   UNL     1       7.639   6.478  18.909  0.00  0.00    +0.000 A 
ATOM     10  C   UNL     1       8.485   7.405  19.521  0.00  0.00    +0.000 A 
ATOM     11  C   UNL     1       8.793   8.599  18.876  0.00  0.00    +0.000 A 
ATOM     12  C   UNL     1       8.257   8.862  17.618  0.00  0.00    +0.000 A 
ATOM     13  C   UNL     1       7.467   7.901  16.977  0.00  0.00    +0.000 A 
ATOM     14  C   UNL     1       7.169   6.679  17.603  0.00  0.00    +0.000 A 
ENDROOT
BRANCH   3  15
ATOM     15  C   UNL     1       5.553   4.167  13.825  0.00  0.00    +0.000 A 
ATOM     16  C   UNL     1       6.845   3.923  13.339  0.00  0.00    +0.000 A 
ATOM     17  C   UNL     1       7.050   3.390  12.063  0.00  0.00    +0.000 A 
ATOM     18  C   UNL     1       5.967   3.079  11.245  0.00  0.00    +0.000 A 
ATOM     19  C   UNL     1       4.675   3.294  11.711  0.00  0.00    +0.000 A 
ATOM     20 CL   UNL     1       3.326   2.874  10.729  0.00  0.00    +0.000 Cl
ATOM     21  C   UNL     1       4.470   3.827  12.983  0.00  0.00    +0.000 A 
ENDBRANCH   3  15
BRANCH   1  26
ATOM     22  C   UNL     1       2.715   2.762  20.486  0.00  0.00    +0.000 A 
ATOM     23  C   UNL     1       1.462   2.441  19.979  0.00  0.00    +0.000 A 
ATOM     24  C   UNL     1       1.190   2.698  18.640  0.00  0.00    +0.000 A 
ATOM     25  C   UNL     1       2.177   3.266  17.828  0.00  0.00    +0.000 A 
ATOM     26  C   UNL     1       3.451   3.613  18.331  0.00  0.00    +0.000 A 
ATOM     27  C   UNL     1       3.700   3.340  19.683  0.00  0.00    +0.000 A 
BRANCH  22  28
ATOM     28  O   UNL     1       3.037   2.509  21.788  0.00  0.00    +0.000 OA
ATOM     29  H   UNL     1       3.867   2.968  21.998  0.00  0.00    +0.000 HD
ENDBRANCH  22  28
ENDBRANCH   1  26
TORSDOF 3
ENDMDL
MODEL 6
REMARK VINA RESULT:      -7.6      0.849      1.234
REMARK  Name = 
REMARK  3 active torsions:
REMARK  status: ('A' for Active; 'I' for Inactive)
REMARK    1  A    between atoms: O_1  and  C_2
REMARK    2  A    between atoms: C_6  and  C_7
REMARK    3  A    between atoms: C_9  and  C_10
REMARK                            x       y       z     vdW  Elec       q    Type
REMARK                         _______ _______ _______ _____ _____    ______ ____
ROOT
ATOM      1  C   UNL     1       4.251   5.615  17.209  0.00  0.00    +0.000 A 
ATOM      2  C   UNL     1       3.520   6.808  17.152  0.00  0.00    +0.000 A 
ATOM      3  C   UNL     1       2.657   7.138  18.198  0.00  0.00    +0.000 A 
ATOM      4  N   UNL     1       2.272   6.218  19.117  0.00  0.00    +0.000 NA
ATOM      5  C   UNL     1       2.994   5.079  19.178  0.00  0.00    +0.000 A 
ATOM      6  C   UNL     1       4.102   4.861  18.378  0.00  0.00    +0.000 A 
ATOM      7  C   UNL     1       5.224   4.084  19.018  0.00  0.00    +0.000 C 
ATOM      8  O   UNL     1       4.879   3.072  19.971  0.00  0.00    +0.000 OA
ATOM      9  C   UNL     1       3.619   3.104  20.505  0.00  0.00    +0.000 A 
ATOM     10  C   UNL     1       3.332   2.081  21.412  0.00  0.00    +0.000 A 
ATOM     11  C   UNL     1       2.034   1.911  21.882  0.00  0.00    +0.000 A 
ATOM     12  C   UNL     1       1.025   2.765  21.445  0.00  0.00    +0.000 A 
ATOM     13  C   UNL     1       1.328   3.832  20.592  0.00  0.00    +0.000 A 
ATOM     14  C   UNL     1       2.640   4.035  20.131  0.00  0.00    +0.000 A 
ENDROOT
BRANCH   3  15
ATOM     15  C   UNL     1       2.261   8.535  18.459  0.00  0.00    +0.000 A 
ATOM     16  C   UNL     1       2.611   9.579  17.591  0.00  0.00    +0.000 A 
ATOM     17  C   UNL     1       2.151  10.882  17.803  0.00  0.00    +0.000 A 
ATOM     18  C   UNL     1       1.323  11.172  18.884  0.00  0.00    +0.000 A 
ATOM     19  C   UNL     1       0.946  10.151  19.748  0.00  0.00    +0.000 A 
ATOM     20 CL   UNL     1      -0.113  10.485  21.063  0.00  0.00    +0.000 Cl
ATOM     21  C   UNL     1       1.405   8.852  19.539  0.00  0.00    +0.000 A 
ENDBRANCH   3  15
BRANCH   1  26
ATOM     22  C   UNL     1       7.088   5.289  14.697  0.00  0.00    +0.000 A 
ATOM     23  C   UNL     1       6.563   4.391  13.777  0.00  0.00    +0.000 A 
ATOM     24  C   UNL     1       5.289   3.875  13.989  0.00  0.00    +0.000 A 
ATOM     25  C   UNL     1       4.560   4.268  15.115  0.00  0.00    +0.000 A 
ATOM     26  C   UNL     1       5.085   5.168  16.070  0.00  0.00    +0.000 A 
ATOM     27  C   UNL     1       6.369   5.677  15.829  0.00  0.00    +0.000 A 
BRANCH  22  28
ATOM     28  O   UNL     1       8.324   5.841  14.521  0.00  0.00    +0.000 OA
ATOM     29  H   UNL     1       8.936   5.445  15.164  0.00  0.00    +0.000 HD
ENDBRANCH  22  28
ENDBRANCH   1  26
TORSDOF 3
ENDMDL
MODEL 7
REMARK VINA RESULT:      -7.6      4.387      7.439
REMARK  Name = 
REMARK  3 active torsions:
REMARK  status: ('A' for Active; 'I' for Inactive)
REMARK    1  A    between atoms: O_1  and  C_2
REMARK    2  A    between atoms: C_6  and  C_7
REMARK    3  A    between atoms: C_9  and  C_10
REMARK                            x       y       z     vdW  Elec       q    Type
REMARK                         _______ _______ _______ _____ _____    ______ ____
ROOT
ATOM      1  C   UNL     1       4.438   4.231  17.421  0.00  0.00    +0.000 A 
ATOM      2  C   UNL     1       4.327   4.101  16.032  0.00  0.00    +0.000 A 
ATOM      3  C   UNL     1       5.291   4.682  15.207  0.00  0.00    +0.000 A 
ATOM      4  N   UNL     1       6.157   5.615  15.675  0.00  0.00    +0.000 NA
ATOM      5  C   UNL     1       6.271   5.720  17.016  0.00  0.00    +0.000 A 
ATOM      6  C   UNL     1       5.577   4.897  17.886  0.00  0.00    +0.000 A 
ATOM      7  C   UNL     1       6.310   4.517  19.146  0.00  0.00    +0.000 C 
ATOM      8  O   UNL     1       7.213   5.476  19.712  0.00  0.00    +0.000 OA
ATOM      9  C   UNL     1       7.625   6.509  18.913  0.00  0.00    +0.000 A 
ATOM     10  C   UNL     1       8.487   7.423  19.524  0.00  0.00    +0.000 A 
ATOM     11  C   UNL     1       8.828   8.602  18.869  0.00  0.00    +0.000 A 
ATOM     12  C   UNL     1       8.309   8.863  17.603  0.00  0.00    +0.000 A 
ATOM     13  C   UNL     1       7.503   7.913  16.964  0.00  0.00    +0.000 A 
ATOM     14  C   UNL     1       7.172   6.706  17.601  0.00  0.00    +0.000 A 
ENDROOT
BRANCH   3  15
ATOM     15  C   UNL     1       5.532   4.189  13.837  0.00  0.00    +0.000 A 
ATOM     16  C   UNL     1       6.823   3.924  13.360  0.00  0.00    +0.000 A 
ATOM     17  C   UNL     1       7.028   3.372  12.093  0.00  0.00    +0.000 A 
ATOM     18  C   UNL     1       5.946   3.063  11.272  0.00  0.00    +0.000 A 
ATOM     19  C   UNL     1       4.655   3.299  11.729  0.00  0.00    +0.000 A 
ATOM     20 CL   UNL     1       3.306   2.882  10.746  0.00  0.00    +0.000 Cl
ATOM     21  C   UNL     1       4.449   3.852  12.993  0.00  0.00    +0.000 A 
ENDBRANCH   3  15
BRANCH   1  26
ATOM     22  C   UNL     1       1.325   2.505  18.762  0.00  0.00    +0.000 A 
ATOM     23  C   UNL     1       1.284   2.954  20.076  0.00  0.00    +0.000 A 
ATOM     24  C   UNL     1       2.286   3.804  20.530  0.00  0.00    +0.000 A 
ATOM     25  C   UNL     1       3.311   4.195  19.662  0.00  0.00    +0.000 A 
ATOM     26  C   UNL     1       3.377   3.735  18.328  0.00  0.00    +0.000 A 
ATOM     27  C   UNL     1       2.352   2.882  17.894  0.00  0.00    +0.000 A 
BRANCH  22  28
ATOM     28  O   UNL     1       0.353   1.687  18.263  0.00  0.00    +0.000 OA
ATOM     29  H   UNL     1       0.645   0.765  18.354  0.00  0.00    +0.000 HD
ENDBRANCH  22  28
ENDBRANCH   1  26
TORSDOF 3
ENDMDL
MODEL 8
REMARK VINA RESULT:      -7.5      4.556      9.150
REMARK  Name = 
REMARK  3 active torsions:
REMARK  status: ('A' for Active; 'I' for Inactive)
REMARK    1  A    between atoms: O_1  and  C_2
REMARK    2  A    between atoms: C_6  and  C_7
REMARK    3  A    between atoms: C_9  and  C_10
REMARK                            x       y       z     vdW  Elec       q    Type
REMARK                         _______ _______ _______ _____ _____    ______ ____
ROOT
ATOM      1  C   UNL     1      -0.672  10.770  18.117  0.00  0.00    +0.000 A 
ATOM      2  C   UNL     1       0.061   9.615  17.821  0.00  0.00    +0.000 A 
ATOM      3  C   UNL     1       1.432   9.585  18.079  0.00  0.00    +0.000 A 
ATOM      4  N   UNL     1       2.135  10.720  18.319  0.00  0.00    +0.000 NA
ATOM      5  C   UNL     1       1.420  11.824  18.622  0.00  0.00    +0.000 A 
ATOM      6  C   UNL     1       0.040  11.808  18.727  0.00  0.00    +0.000 A 
ATOM      7  C   UNL     1      -0.542  12.712  19.784  0.00  0.00    +0.000 C 
ATOM      8  O   UNL     1       0.134  13.945  20.058  0.00  0.00    +0.000 OA
ATOM      9  C   UNL     1       1.425  14.072  19.624  0.00  0.00    +0.000 A 
ATOM     10  C   UNL     1       2.027  15.302  19.901  0.00  0.00    +0.000 A 
ATOM     11  C   UNL     1       3.269  15.608  19.357  0.00  0.00    +0.000 A 
ATOM     12  C   UNL     1       3.910  14.682  18.537  0.00  0.00    +0.000 A 
ATOM     13  C   UNL     1       3.339  13.423  18.318  0.00  0.00    +0.000 A 
ATOM     14  C   UNL     1       2.097  13.088  18.884  0.00  0.00    +0.000 A 
ENDROOT
BRANCH   3  15
ATOM     15  C   UNL     1       2.152   8.311  18.274  0.00  0.00    +0.000 A 
ATOM     16  C   UNL     1       3.249   7.950  17.478  0.00  0.00    +0.000 A 
ATOM     17  C   UNL     1       3.976   6.785  17.733  0.00  0.00    +0.000 A 
ATOM     18  C   UNL     1       3.631   5.954  18.797  0.00  0.00    +0.000 A 
ATOM     19  C   UNL     1       2.560   6.300  19.612  0.00  0.00    +0.000 A 
ATOM     20 CL   UNL     1       2.148   5.308  20.956  0.00  0.00    +0.000 Cl
ATOM     21  C   UNL     1       1.832   7.462  19.357  0.00  0.00    +0.000 A 
ENDBRANCH   3  15
BRANCH   1  26
ATOM     22  C   UNL     1      -3.928  10.746  16.153  0.00  0.00    +0.000 A 
ATOM     23  C   UNL     1      -4.823  11.298  17.062  0.00  0.00    +0.000 A 
ATOM     24  C   UNL     1      -4.366  11.658  18.324  0.00  0.00    +0.000 A 
ATOM     25  C   UNL     1      -3.022  11.464  18.657  0.00  0.00    +0.000 A 
ATOM     26  C   UNL     1      -2.102  10.889  17.751  0.00  0.00    +0.000 A 
ATOM     27  C   UNL     1      -2.588  10.540  16.483  0.00  0.00    +0.000 A 
BRANCH  22  28
ATOM     28  O   UNL     1      -4.324  10.398  14.894  0.00  0.00    +0.000 OA
ATOM     29  H   UNL     1      -4.604   9.468  14.902  0.00  0.00    +0.000 HD
ENDBRANCH  22  28
ENDBRANCH   1  26
TORSDOF 3
ENDMDL
MODEL 9
REMARK VINA RESULT:      -7.4      1.008      1.353
REMARK  Name = 
REMARK  3 active torsions:
REMARK  status: ('A' for Active; 'I' for Inactive)
REMARK    1  A    between atoms: O_1  and  C_2
REMARK    2  A    between atoms: C_6  and  C_7
REMARK    3  A    between atoms: C_9  and  C_10
REMARK                            x       y       z     vdW  Elec       q    Type
REMARK                         _______ _______ _______ _____ _____    ______ ____
ROOT
ATOM      1  C   UNL     1       4.261   6.106  17.401  0.00  0.00    +0.000 A 
ATOM      2  C   UNL     1       3.458   7.250  17.329  0.00  0.00    +0.000 A 
ATOM      3  C   UNL     1       2.485   7.472  18.305  0.00  0.00    +0.000 A 
ATOM      4  N   UNL     1       2.084   6.486  19.144  0.00  0.00    +0.000 NA
ATOM      5  C   UNL     1       2.875   5.394  19.221  0.00  0.00    +0.000 A 
ATOM      6  C   UNL     1       4.061   5.287  18.517  0.00  0.00    +0.000 A 
ATOM      7  C   UNL     1       5.172   4.554  19.224  0.00  0.00    +0.000 C 
ATOM      8  O   UNL     1       4.815   3.475  20.096  0.00  0.00    +0.000 OA
ATOM      9  C   UNL     1       3.513   3.400  20.513  0.00  0.00    +0.000 A 
ATOM     10  C   UNL     1       3.218   2.317  21.345  0.00  0.00    +0.000 A 
ATOM     11  C   UNL     1       1.898   2.041  21.686  0.00  0.00    +0.000 A 
ATOM     12  C   UNL     1       0.875   2.849  21.196  0.00  0.00    +0.000 A 
ATOM     13  C   UNL     1       1.179   3.974  20.421  0.00  0.00    +0.000 A 
ATOM     14  C   UNL     1       2.509   4.283  20.091  0.00  0.00    +0.000 A 
ENDROOT
BRANCH   3  15
ATOM     15  C   UNL     1       1.972   8.827  18.588  0.00  0.00    +0.000 A 
ATOM     16  C   UNL     1       0.982   9.057  19.553  0.00  0.00    +0.000 A 
ATOM     17  C   UNL     1       0.571  10.354  19.874  0.00  0.00    +0.000 A 
ATOM     18  C   UNL     1       1.148  11.455  19.244  0.00  0.00    +0.000 A 
ATOM     19  C   UNL     1       2.146  11.253  18.298  0.00  0.00    +0.000 A 
ATOM     20 CL   UNL     1       2.899  12.604  17.543  0.00  0.00    +0.000 Cl
ATOM     21  C   UNL     1       2.554   9.960  17.975  0.00  0.00    +0.000 A 
ENDBRANCH   3  15
BRANCH   1  26
ATOM     22  C   UNL     1       5.845   4.584  14.296  0.00  0.00    +0.000 A 
ATOM     23  C   UNL     1       7.157   5.032  14.387  0.00  0.00    +0.000 A 
ATOM     24  C   UNL     1       7.518   5.850  15.451  0.00  0.00    +0.000 A 
ATOM     25  C   UNL     1       6.564   6.204  16.410  0.00  0.00    +0.000 A 
ATOM     26  C   UNL     1       5.221   5.770  16.325  0.00  0.00    +0.000 A 
ATOM     27  C   UNL     1       4.885   4.943  15.244  0.00  0.00    +0.000 A 
BRANCH  22  28
ATOM     28  O   UNL     1       5.447   3.761  13.282  0.00  0.00    +0.000 OA
ATOM     29  H   UNL     1       5.367   2.857  13.629  0.00  0.00    +0.000 HD
ENDBRANCH  22  28
ENDBRANCH   1  26
TORSDOF 3
ENDMDL
