MODEL 1
REMARK VINA RESULT:      -7.3      0.000      0.000
REMARK  Name = 
REMARK  5 active torsions:
REMARK  status: ('A' for Active; 'I' for Inactive)
REMARK    1  A    between atoms: C_1  and  C_2
REMARK    2  A    between atoms: C_7  and  N_8
REMARK    3  A    between atoms: N_10  and  C_11
REMARK    4  A    between atoms: C_11  and  C_12
REMARK    5  A    between atoms: C_19  and  S_20
REMARK                            x       y       z     vdW  Elec       q    Type
REMARK                         _______ _______ _______ _____ _____    ______ ____
ROOT
ATOM      1  N   UNL     1       4.207   5.198  18.733  0.00  0.00    +0.000 N 
ATOM      2  C   UNL     1       5.478   4.487  18.591  0.00  0.00    +0.000 C 
ATOM      3  N   UNL     1       6.755   5.185  18.434  0.00  0.00    +0.000 NA
ATOM      4  C   UNL     1       6.562   6.575  18.051  0.00  0.00    +0.000 C 
ATOM      5  N   UNL     1       5.244   7.041  17.654  0.00  0.00    +0.000 NA
ATOM      6  C   UNL     1       4.204   6.379  18.021  0.00  0.00    +0.000 C 
ENDROOT
BRANCH   1  13
ATOM      7  C   UNL     1       2.168   5.577  20.918  0.00  0.00    +0.000 C 
ATOM      8  C   UNL     1       2.086   4.521  19.850  0.00  0.00    +0.000 A 
ATOM      9  C   UNL     1       1.003   3.614  19.933  0.00  0.00    +0.000 A 
ATOM     10  C   UNL     1       0.890   2.525  19.075  0.00  0.00    +0.000 A 
ATOM     11  C   UNL     1       1.858   2.319  18.109  0.00  0.00    +0.000 A 
ATOM     12  C   UNL     1       2.919   3.216  17.996  0.00  0.00    +0.000 A 
ATOM     13  C   UNL     1       3.076   4.330  18.858  0.00  0.00    +0.000 A 
ENDBRANCH   1  13
BRANCH   6  14
ATOM     14  S   UNL     1       2.708   7.140  17.483  0.00  0.00    +0.000 S 
ATOM     15  H   UNL     1       3.127   7.288  16.220  0.00  0.00    +0.000 HD
ENDBRANCH   6  14
BRANCH   3  16
ATOM     16  C   UNL     1       7.614   4.474  17.462  0.00  0.00    +0.000 C 
BRANCH  16  17
ATOM     17  C   UNL     1       7.025   4.424  16.089  0.00  0.00    +0.000 A 
ATOM     18  C   UNL     1       5.934   3.781  15.543  0.00  0.00    +0.000 A 
ATOM     19  C   UNL     1       5.896   4.142  14.172  0.00  0.00    +0.000 A 
ATOM     20  C   UNL     1       6.960   4.986  13.966  0.00  0.00    +0.000 A 
ATOM     21  O   UNL     1       7.657   5.158  15.119  0.00  0.00    +0.000 OA
ENDBRANCH  16  17
ENDBRANCH   3  16
TORSDOF 4
ENDMDL
MODEL 2
REMARK VINA RESULT:      -7.3      0.589      1.569
REMARK  Name = 
REMARK  5 active torsions:
REMARK  status: ('A' for Active; 'I' for Inactive)
REMARK    1  A    between atoms: C_1  and  C_2
REMARK    2  A    between atoms: C_7  and  N_8
REMARK    3  A    between atoms: N_10  and  C_11
REMARK    4  A    between atoms: C_11  and  C_12
REMARK    5  A    between atoms: C_19  and  S_20
REMARK                            x       y       z     vdW  Elec       q    Type
REMARK                         _______ _______ _______ _____ _____    ______ ____
ROOT
ATOM      1  N   UNL     1       4.282   5.322  19.057  0.00  0.00    +0.000 N 
ATOM      2  C   UNL     1       5.564   4.638  18.891  0.00  0.00    +0.000 C 
ATOM      3  N   UNL     1       6.772   5.332  18.440  0.00  0.00    +0.000 NA
ATOM      4  C   UNL     1       6.457   6.612  17.826  0.00  0.00    +0.000 C 
ATOM      5  N   UNL     1       5.076   6.948  17.521  0.00  0.00    +0.000 NA
ATOM      6  C   UNL     1       4.127   6.340  18.139  0.00  0.00    +0.000 C 
ENDROOT
BRANCH   1  13
ATOM      7  C   UNL     1       3.046   3.295  17.202  0.00  0.00    +0.000 C 
ATOM      8  C   UNL     1       2.665   3.473  18.647  0.00  0.00    +0.000 A 
ATOM      9  C   UNL     1       1.606   2.667  19.129  0.00  0.00    +0.000 A 
ATOM     10  C   UNL     1       1.086   2.827  20.409  0.00  0.00    +0.000 A 
ATOM     11  C   UNL     1       1.616   3.797  21.240  0.00  0.00    +0.000 A 
ATOM     12  C   UNL     1       2.675   4.585  20.791  0.00  0.00    +0.000 A 
ATOM     13  C   UNL     1       3.225   4.461  19.490  0.00  0.00    +0.000 A 
ENDBRANCH   1  13
BRANCH   6  14
ATOM     14  S   UNL     1       2.537   6.931  17.662  0.00  0.00    +0.000 S 
ATOM     15  H   UNL     1       1.913   5.788  17.974  0.00  0.00    +0.000 HD
ENDBRANCH   6  14
BRANCH   3  16
ATOM     16  C   UNL     1       7.547   4.470  17.521  0.00  0.00    +0.000 C 
BRANCH  16  17
ATOM     17  C   UNL     1       6.988   4.445  16.134  0.00  0.00    +0.000 A 
ATOM     18  C   UNL     1       5.901   3.825  15.556  0.00  0.00    +0.000 A 
ATOM     19  C   UNL     1       5.899   4.204  14.189  0.00  0.00    +0.000 A 
ATOM     20  C   UNL     1       6.979   5.035  14.017  0.00  0.00    +0.000 A 
ATOM     21  O   UNL     1       7.652   5.182  15.188  0.00  0.00    +0.000 OA
ENDBRANCH  16  17
ENDBRANCH   3  16
TORSDOF 4
ENDMDL
MODEL 3
REMARK VINA RESULT:      -7.1      2.581      5.820
REMARK  Name = 
REMARK  5 active torsions:
REMARK  status: ('A' for Active; 'I' for Inactive)
REMARK    1  A    between atoms: C_1  and  C_2
REMARK    2  A    between atoms: C_7  and  N_8
REMARK    3  A    between atoms: N_10  and  C_11
REMARK    4  A    between atoms: C_11  and  C_12
REMARK    5  A    between atoms: C_19  and  S_20
REMARK                            x       y       z     vdW  Elec       q    Type
REMARK                         _______ _______ _______ _____ _____    ______ ____
ROOT
ATOM      1  N   UNL     1       3.848   5.174  17.510  0.00  0.00    +0.000 N 
ATOM      2  C   UNL     1       3.705   3.718  17.525  0.00  0.00    +0.000 C 
ATOM      3  N   UNL     1       2.429   3.051  17.258  0.00  0.00    +0.000 NA
ATOM      4  C   UNL     1       1.309   3.972  17.373  0.00  0.00    +0.000 C 
ATOM      5  N   UNL     1       1.516   5.297  17.933  0.00  0.00    +0.000 NA
ATOM      6  C   UNL     1       2.698   5.801  17.942  0.00  0.00    +0.000 C 
ENDROOT
BRANCH   1  13
ATOM      7  C   UNL     1       5.471   6.745  15.516  0.00  0.00    +0.000 C 
ATOM      8  C   UNL     1       5.931   6.399  16.906  0.00  0.00    +0.000 A 
ATOM      9  C   UNL     1       7.244   6.793  17.257  0.00  0.00    +0.000 A 
ATOM     10  C   UNL     1       7.821   6.424  18.468  0.00  0.00    +0.000 A 
ATOM     11  C   UNL     1       7.096   5.654  19.359  0.00  0.00    +0.000 A 
ATOM     12  C   UNL     1       5.792   5.277  19.040  0.00  0.00    +0.000 A 
ATOM     13  C   UNL     1       5.173   5.622  17.813  0.00  0.00    +0.000 A 
ENDBRANCH   1  13
BRANCH   6  14
ATOM     14  S   UNL     1       2.722   7.431  18.614  0.00  0.00    +0.000 S 
ATOM     15  H   UNL     1       3.554   7.906  17.678  0.00  0.00    +0.000 HD
ENDBRANCH   6  14
BRANCH   3  16
ATOM     16  C   UNL     1       2.261   1.885  18.152  0.00  0.00    +0.000 C 
BRANCH  16  17
ATOM     17  C   UNL     1       2.057   2.271  19.582  0.00  0.00    +0.000 A 
ATOM     18  C   UNL     1       0.948   2.602  20.331  0.00  0.00    +0.000 A 
ATOM     19  C   UNL     1       1.410   2.866  21.645  0.00  0.00    +0.000 A 
ATOM     20  C   UNL     1       2.771   2.673  21.621  0.00  0.00    +0.000 A 
ATOM     21  O   UNL     1       3.176   2.321  20.374  0.00  0.00    +0.000 OA
ENDBRANCH  16  17
ENDBRANCH   3  16
TORSDOF 4
ENDMDL
MODEL 4
REMARK VINA RESULT:      -6.6      2.383      3.370
REMARK  Name = 
REMARK  5 active torsions:
REMARK  status: ('A' for Active; 'I' for Inactive)
REMARK    1  A    between atoms: C_1  and  C_2
REMARK    2  A    between atoms: C_7  and  N_8
REMARK    3  A    between atoms: N_10  and  C_11
REMARK    4  A    between atoms: C_11  and  C_12
REMARK    5  A    between atoms: C_19  and  S_20
REMARK                            x       y       z     vdW  Elec       q    Type
REMARK                         _______ _______ _______ _____ _____    ______ ____
ROOT
ATOM      1  N   UNL     1       5.324   4.323  17.868  0.00  0.00    +0.000 N 
ATOM      2  C   UNL     1       4.932   4.168  16.467  0.00  0.00    +0.000 C 
ATOM      3  N   UNL     1       5.892   3.823  15.417  0.00  0.00    +0.000 NA
ATOM      4  C   UNL     1       7.263   4.043  15.851  0.00  0.00    +0.000 C 
ATOM      5  N   UNL     1       7.524   4.754  17.090  0.00  0.00    +0.000 NA
ATOM      6  C   UNL     1       6.603   4.824  17.985  0.00  0.00    +0.000 C 
ENDROOT
BRANCH   1  13
ATOM      7  C   UNL     1       4.250   2.395  19.919  0.00  0.00    +0.000 C 
ATOM      8  C   UNL     1       3.752   3.802  19.728  0.00  0.00    +0.000 A 
ATOM      9  C   UNL     1       2.661   4.205  20.534  0.00  0.00    +0.000 A 
ATOM     10  C   UNL     1       2.038   5.438  20.363  0.00  0.00    +0.000 A 
ATOM     11  C   UNL     1       2.495   6.299  19.382  0.00  0.00    +0.000 A 
ATOM     12  C   UNL     1       3.584   5.929  18.595  0.00  0.00    +0.000 A 
ATOM     13  C   UNL     1       4.238   4.678  18.730  0.00  0.00    +0.000 A 
ENDBRANCH   1  13
BRANCH   6  14
ATOM     14  S   UNL     1       7.141   5.681  19.428  0.00  0.00    +0.000 S 
ATOM     15  H   UNL     1       7.523   6.773  18.753  0.00  0.00    +0.000 HD
ENDBRANCH   6  14
BRANCH   3  16
ATOM     16  C   UNL     1       5.592   4.574  14.178  0.00  0.00    +0.000 C 
BRANCH  16  17
ATOM     17  C   UNL     1       5.520   3.699  12.968  0.00  0.00    +0.000 A 
ATOM     18  C   UNL     1       6.419   2.861  12.343  0.00  0.00    +0.000 A 
ATOM     19  C   UNL     1       5.742   2.299  11.230  0.00  0.00    +0.000 A 
ATOM     20  C   UNL     1       4.471   2.821  11.248  0.00  0.00    +0.000 A 
ATOM     21  O   UNL     1       4.327   3.679  12.291  0.00  0.00    +0.000 OA
ENDBRANCH  16  17
ENDBRANCH   3  16
TORSDOF 4
ENDMDL
MODEL 5
REMARK VINA RESULT:      -6.5      2.635      3.853
REMARK  Name = 
REMARK  5 active torsions:
REMARK  status: ('A' for Active; 'I' for Inactive)
REMARK    1  A    between atoms: C_1  and  C_2
REMARK    2  A    between atoms: C_7  and  N_8
REMARK    3  A    between atoms: N_10  and  C_11
REMARK    4  A    between atoms: C_11  and  C_12
REMARK    5  A    between atoms: C_19  and  S_20
REMARK                            x       y       z     vdW  Elec       q    Type
REMARK                         _______ _______ _______ _____ _____    ______ ____
ROOT
ATOM      1  N   UNL     1       5.562   5.323  16.917  0.00  0.00    +0.000 N 
ATOM      2  C   UNL     1       5.073   4.594  15.746  0.00  0.00    +0.000 C 
ATOM      3  N   UNL     1       5.973   3.997  14.759  0.00  0.00    +0.000 NA
ATOM      4  C   UNL     1       7.319   4.538  14.866  0.00  0.00    +0.000 C 
ATOM      5  N   UNL     1       7.569   5.697  15.706  0.00  0.00    +0.000 NA
ATOM      6  C   UNL     1       6.740   5.987  16.645  0.00  0.00    +0.000 C 
ENDROOT
BRANCH   1  13
ATOM      7  C   UNL     1       4.654   3.866  19.393  0.00  0.00    +0.000 C 
ATOM      8  C   UNL     1       4.111   5.193  18.937  0.00  0.00    +0.000 A 
ATOM      9  C   UNL     1       3.057   5.745  19.703  0.00  0.00    +0.000 A 
ATOM     10  C   UNL     1       2.395   6.905  19.311  0.00  0.00    +0.000 A 
ATOM     11  C   UNL     1       2.775   7.541  18.144  0.00  0.00    +0.000 A 
ATOM     12  C   UNL     1       3.827   7.025  17.389  0.00  0.00    +0.000 A 
ATOM     13  C   UNL     1       4.519   5.840  17.747  0.00  0.00    +0.000 A 
ENDBRANCH   1  13
BRANCH   6  14
ATOM     14  S   UNL     1       7.254   7.392  17.577  0.00  0.00    +0.000 S 
ATOM     15  H   UNL     1       8.240   7.712  16.728  0.00  0.00    +0.000 HD
ENDBRANCH   6  14
BRANCH   3  16
ATOM     16  C   UNL     1       5.430   4.173  13.394  0.00  0.00    +0.000 C 
BRANCH  16  17
ATOM     17  C   UNL     1       6.041   3.240  12.398  0.00  0.00    +0.000 A 
ATOM     18  C   UNL     1       7.270   3.182  11.775  0.00  0.00    +0.000 A 
ATOM     19  C   UNL     1       7.244   2.041  10.933  0.00  0.00    +0.000 A 
ATOM     20  C   UNL     1       6.005   1.469  11.098  0.00  0.00    +0.000 A 
ATOM     21  O   UNL     1       5.264   2.191  11.977  0.00  0.00    +0.000 OA
ENDBRANCH  16  17
ENDBRANCH   3  16
TORSDOF 4
ENDMDL
MODEL 6
REMARK VINA RESULT:      -6.5      2.247      3.160
REMARK  Name = 
REMARK  5 active torsions:
REMARK  status: ('A' for Active; 'I' for Inactive)
REMARK    1  A    between atoms: C_1  and  C_2
REMARK    2  A    between atoms: C_7  and  N_8
REMARK    3  A    between atoms: N_10  and  C_11
REMARK    4  A    between atoms: C_11  and  C_12
REMARK    5  A    between atoms: C_19  and  S_20
REMARK                            x       y       z     vdW  Elec       q    Type
REMARK                         _______ _______ _______ _____ _____    ______ ____
ROOT
ATOM      1  N   UNL     1       4.974   3.681  17.335  0.00  0.00    +0.000 N 
ATOM      2  C   UNL     1       5.160   3.580  15.888  0.00  0.00    +0.000 C 
ATOM      3  N   UNL     1       6.459   3.789  15.246  0.00  0.00    +0.000 NA
ATOM      4  C   UNL     1       7.391   4.468  16.132  0.00  0.00    +0.000 C 
ATOM      5  N   UNL     1       6.915   5.047  17.378  0.00  0.00    +0.000 NA
ATOM      6  C   UNL     1       5.814   4.624  17.890  0.00  0.00    +0.000 C 
ENDROOT
BRANCH   1  13
ATOM      7  C   UNL     1       4.154   1.118  18.690  0.00  0.00    +0.000 C 
ATOM      8  C   UNL     1       3.233   2.279  18.434  0.00  0.00    +0.000 A 
ATOM      9  C   UNL     1       1.878   2.110  18.805  0.00  0.00    +0.000 A 
ATOM     10  C   UNL     1       0.911   3.065  18.508  0.00  0.00    +0.000 A 
ATOM     11  C   UNL     1       1.278   4.216  17.835  0.00  0.00    +0.000 A 
ATOM     12  C   UNL     1       2.612   4.411  17.483  0.00  0.00    +0.000 A 
ATOM     13  C   UNL     1       3.625   3.458  17.756  0.00  0.00    +0.000 A 
ENDBRANCH   1  13
BRANCH   6  14
ATOM     14  S   UNL     1       5.446   5.415  19.422  0.00  0.00    +0.000 S 
ATOM     15  H   UNL     1       5.125   4.272  20.043  0.00  0.00    +0.000 HD
ENDBRANCH   6  14
BRANCH   3  16
ATOM     16  C   UNL     1       6.292   4.525  13.974  0.00  0.00    +0.000 C 
BRANCH  16  17
ATOM     17  C   UNL     1       5.835   3.651  12.850  0.00  0.00    +0.000 A 
ATOM     18  C   UNL     1       6.417   2.617  12.149  0.00  0.00    +0.000 A 
ATOM     19  C   UNL     1       5.461   2.184  11.196  0.00  0.00    +0.000 A 
ATOM     20  C   UNL     1       4.351   2.975  11.376  0.00  0.00    +0.000 A 
ATOM     21  O   UNL     1       4.569   3.874  12.371  0.00  0.00    +0.000 OA
ENDBRANCH  16  17
ENDBRANCH   3  16
TORSDOF 4
ENDMDL
MODEL 7
REMARK VINA RESULT:      -6.5      3.735      6.336
REMARK  Name = 
REMARK  5 active torsions:
REMARK  status: ('A' for Active; 'I' for Inactive)
REMARK    1  A    between atoms: C_1  and  C_2
REMARK    2  A    between atoms: C_7  and  N_8
REMARK    3  A    between atoms: N_10  and  C_11
REMARK    4  A    between atoms: C_11  and  C_12
REMARK    5  A    between atoms: C_19  and  S_20
REMARK                            x       y       z     vdW  Elec       q    Type
REMARK                         _______ _______ _______ _____ _____    ______ ____
ROOT
ATOM      1  N   UNL     1       4.288   6.054  18.369  0.00  0.00    +0.000 N 
ATOM      2  C   UNL     1       3.680   7.274  17.837  0.00  0.00    +0.000 C 
ATOM      3  N   UNL     1       2.714   8.068  18.598  0.00  0.00    +0.000 NA
ATOM      4  C   UNL     1       2.163   7.314  19.714  0.00  0.00    +0.000 C 
ATOM      5  N   UNL     1       2.416   5.887  19.818  0.00  0.00    +0.000 NA
ATOM      6  C   UNL     1       3.420   5.376  19.199  0.00  0.00    +0.000 C 
ENDROOT
BRANCH   1  13
ATOM      7  C   UNL     1       7.195   5.667  19.057  0.00  0.00    +0.000 C 
ATOM      8  C   UNL     1       6.550   5.191  17.784  0.00  0.00    +0.000 A 
ATOM      9  C   UNL     1       7.398   4.579  16.831  0.00  0.00    +0.000 A 
ATOM     10  C   UNL     1       6.939   4.208  15.571  0.00  0.00    +0.000 A 
ATOM     11  C   UNL     1       5.618   4.439  15.235  0.00  0.00    +0.000 A 
ATOM     12  C   UNL     1       4.761   5.019  16.170  0.00  0.00    +0.000 A 
ATOM     13  C   UNL     1       5.192   5.421  17.459  0.00  0.00    +0.000 A 
ENDBRANCH   1  13
BRANCH   6  14
ATOM     14  S   UNL     1       3.578   3.647  19.500  0.00  0.00    +0.000 S 
ATOM     15  H   UNL     1       4.910   3.696  19.636  0.00  0.00    +0.000 HD
ENDBRANCH   6  14
BRANCH   3  16
ATOM     16  C   UNL     1       1.644   8.569  17.708  0.00  0.00    +0.000 C 
BRANCH  16  17
ATOM     17  C   UNL     1       1.040   9.850  18.187  0.00  0.00    +0.000 A 
ATOM     18  C   UNL     1      -0.238  10.228  18.542  0.00  0.00    +0.000 A 
ATOM     19  C   UNL     1      -0.166  11.592  18.921  0.00  0.00    +0.000 A 
ATOM     20  C   UNL     1       1.149  11.964  18.781  0.00  0.00    +0.000 A 
ATOM     21  O   UNL     1       1.889  10.918  18.328  0.00  0.00    +0.000 OA
ENDBRANCH  16  17
ENDBRANCH   3  16
TORSDOF 4
ENDMDL
MODEL 8
REMARK VINA RESULT:      -6.2      2.232      3.250
REMARK  Name = 
REMARK  5 active torsions:
REMARK  status: ('A' for Active; 'I' for Inactive)
REMARK    1  A    between atoms: C_1  and  C_2
REMARK    2  A    between atoms: C_7  and  N_8
REMARK    3  A    between atoms: N_10  and  C_11
REMARK    4  A    between atoms: C_11  and  C_12
REMARK    5  A    between atoms: C_19  and  S_20
REMARK                            x       y       z     vdW  Elec       q    Type
REMARK                         _______ _______ _______ _____ _____    ______ ____
ROOT
ATOM      1  N   UNL     1       5.273   4.295  17.846  0.00  0.00    +0.000 N 
ATOM      2  C   UNL     1       4.895   4.156  16.439  0.00  0.00    +0.000 C 
ATOM      3  N   UNL     1       5.866   3.838  15.392  0.00  0.00    +0.000 NA
ATOM      4  C   UNL     1       7.231   4.068  15.839  0.00  0.00    +0.000 C 
ATOM      5  N   UNL     1       7.474   4.765  17.091  0.00  0.00    +0.000 NA
ATOM      6  C   UNL     1       6.546   4.809  17.979  0.00  0.00    +0.000 C 
ENDROOT
BRANCH   1  13
ATOM      7  C   UNL     1       3.888   6.965  17.674  0.00  0.00    +0.000 C 
ATOM      8  C   UNL     1       3.487   5.855  18.606  0.00  0.00    +0.000 A 
ATOM      9  C   UNL     1       2.424   6.128  19.500  0.00  0.00    +0.000 A 
ATOM     10  C   UNL     1       2.045   5.224  20.487  0.00  0.00    +0.000 A 
ATOM     11  C   UNL     1       2.720   4.022  20.602  0.00  0.00    +0.000 A 
ATOM     12  C   UNL     1       3.753   3.726  19.715  0.00  0.00    +0.000 A 
ATOM     13  C   UNL     1       4.177   4.624  18.704  0.00  0.00    +0.000 A 
ENDBRANCH   1  13
BRANCH   6  14
ATOM     14  S   UNL     1       7.062   5.652  19.440  0.00  0.00    +0.000 S 
ATOM     15  H   UNL     1       6.714   4.648  20.255  0.00  0.00    +0.000 HD
ENDBRANCH   6  14
BRANCH   3  16
ATOM     16  C   UNL     1       5.567   4.604  14.162  0.00  0.00    +0.000 C 
BRANCH  16  17
ATOM     17  C   UNL     1       5.413   3.734  12.956  0.00  0.00    +0.000 A 
ATOM     18  C   UNL     1       4.363   3.461  12.105  0.00  0.00    +0.000 A 
ATOM     19  C   UNL     1       4.854   2.549  11.136  0.00  0.00    +0.000 A 
ATOM     20  C   UNL     1       6.173   2.326  11.449  0.00  0.00    +0.000 A 
ATOM     21  O   UNL     1       6.521   3.032  12.556  0.00  0.00    +0.000 OA
ENDBRANCH  16  17
ENDBRANCH   3  16
TORSDOF 4
ENDMDL
MODEL 9
REMARK VINA RESULT:      -6.2      1.597      2.267
REMARK  Name = 
REMARK  5 active torsions:
REMARK  status: ('A' for Active; 'I' for Inactive)
REMARK    1  A    between atoms: C_1  and  C_2
REMARK    2  A    between atoms: C_7  and  N_8
REMARK    3  A    between atoms: N_10  and  C_11
REMARK    4  A    between atoms: C_11  and  C_12
REMARK    5  A    between atoms: C_19  and  S_20
REMARK                            x       y       z     vdW  Elec       q    Type
REMARK                         _______ _______ _______ _____ _____    ______ ____
ROOT
ATOM      1  N   UNL     1       3.897   4.942  18.455  0.00  0.00    +0.000 N 
ATOM      2  C   UNL     1       4.481   4.054  17.449  0.00  0.00    +0.000 C 
ATOM      3  N   UNL     1       5.445   4.523  16.452  0.00  0.00    +0.000 NA
ATOM      4  C   UNL     1       5.437   5.973  16.339  0.00  0.00    +0.000 C 
ATOM      5  N   UNL     1       4.391   6.744  16.990  0.00  0.00    +0.000 NA
ATOM      6  C   UNL     1       3.741   6.224  17.970  0.00  0.00    +0.000 C 
ENDROOT
BRANCH   1  13
ATOM      7  C   UNL     1       1.206   4.018  17.462  0.00  0.00    +0.000 C 
ATOM      8  C   UNL     1       1.716   3.810  18.862  0.00  0.00    +0.000 A 
ATOM      9  C   UNL     1       0.830   3.193  19.776  0.00  0.00    +0.000 A 
ATOM     10  C   UNL     1       1.144   3.057  21.125  0.00  0.00    +0.000 A 
ATOM     11  C   UNL     1       2.355   3.533  21.591  0.00  0.00    +0.000 A 
ATOM     12  C   UNL     1       3.252   4.122  20.700  0.00  0.00    +0.000 A 
ATOM     13  C   UNL     1       2.965   4.290  19.322  0.00  0.00    +0.000 A 
ENDBRANCH   1  13
BRANCH   6  14
ATOM     14  S   UNL     1       2.559   7.340  18.651  0.00  0.00    +0.000 S 
ATOM     15  H   UNL     1       3.478   8.253  18.995  0.00  0.00    +0.000 HD
ENDBRANCH   6  14
BRANCH   3  16
ATOM     16  C   UNL     1       5.189   3.879  15.146  0.00  0.00    +0.000 C 
BRANCH  16  17
ATOM     17  C   UNL     1       6.200   4.245  14.107  0.00  0.00    +0.000 A 
ATOM     18  C   UNL     1       7.297   5.080  14.097  0.00  0.00    +0.000 A 
ATOM     19  C   UNL     1       7.860   4.992  12.798  0.00  0.00    +0.000 A 
ATOM     20  C   UNL     1       7.078   4.106  12.097  0.00  0.00    +0.000 A 
ATOM     21  O   UNL     1       6.063   3.653  12.877  0.00  0.00    +0.000 OA
ENDBRANCH  16  17
ENDBRANCH   3  16
TORSDOF 4
ENDMDL
