MODEL 1
REMARK VINA RESULT:      -6.7      0.000      0.000
REMARK  Name = 
REMARK  14 active torsions:
REMARK  status: ('A' for Active; 'I' for Inactive)
REMARK    1  A    between atoms: C_1  and  C_2
REMARK    2  A    between atoms: C_2  and  O_3
REMARK    3  A    between atoms: O_3  and  C_4
REMARK    4  A    between atoms: C_4  and  C_6
REMARK    5  A    between atoms: C_12  and  C_13
REMARK    6  A    between atoms: C_13  and  S_14
REMARK    7  A    between atoms: S_14  and  C_15
REMARK    8  A    between atoms: C_15  and  N_17
REMARK    9  A    between atoms: N_17  and  C_18
REMARK   10  A    between atoms: N_17  and  C_21
REMARK   11  A    between atoms: C_18  and  C_19
REMARK   12  A    between atoms: C_18  and  C_20
REMARK   13  A    between atoms: C_21  and  C_22
REMARK   14  A    between atoms: C_21  and  C_23
REMARK                            x       y       z     vdW  Elec       q    Type
REMARK                         _______ _______ _______ _____ _____    ______ ____
ROOT
ATOM      1  C   UNL     1       4.590   4.125  18.824  0.00  0.00    +0.000 A 
ATOM      2  C   UNL     1       3.804   4.948  18.113  0.00  0.00    +0.000 A 
ATOM      3  C   UNL     1       4.356   6.228  17.644  0.00  0.00    +0.000 A 
ATOM      4  O   UNL     1       3.669   7.005  16.993  0.00  0.00    +0.000 OA
ATOM      5  C   UNL     1       5.750   6.518  18.008  0.00  0.00    +0.000 A 
ATOM      6  C   UNL     1       6.354   7.720  17.619  0.00  0.00    +0.000 A 
ATOM      7  C   UNL     1       7.677   8.014  17.992  0.00  0.00    +0.000 A 
ATOM      8  C   UNL     1       8.383   7.044  18.732  0.00  0.00    +0.000 A 
ATOM      9  C   UNL     1       7.778   5.838  19.112  0.00  0.00    +0.000 A 
ATOM     10  C   UNL     1       6.457   5.577  18.752  0.00  0.00    +0.000 A 
ATOM     11  O   UNL     1       5.914   4.383  19.149  0.00  0.00    +0.000 OA
ENDROOT
BRANCH   1  12
ATOM     12  C   UNL     1       3.949   2.906  19.386  0.00  0.00    +0.000 C 
ATOM     13  O   UNL     1       4.234   2.401  20.461  0.00  0.00    +0.000 OA
BRANCH  12  14
ATOM     14  O   UNL     1       3.106   2.386  18.456  0.00  0.00    +0.000 OA
BRANCH  14  16
ATOM     15  C   UNL     1       1.034   2.940  19.497  0.00  0.00    +0.000 C 
ATOM     16  C   UNL     1       1.903   1.808  18.976  0.00  0.00    +0.000 C 
ENDBRANCH  14  16
ENDBRANCH  12  14
ENDBRANCH   1  12
BRANCH   7  17
ATOM     17  C   UNL     1       8.389   9.283  17.540  0.00  0.00    +0.000 C 
BRANCH  17  18
ATOM     18  S   UNL     1       9.231  10.185  18.876  0.00  0.00    +0.000 S 
BRANCH  18  19
ATOM     19  C   UNL     1       9.008  11.897  18.509  0.00  0.00    +0.000 C 
ATOM     20  S   UNL     1       7.926  12.506  17.375  0.00  0.00    +0.000 S 
BRANCH  19  21
ATOM     21  N   UNL     1       9.954  12.710  19.160  0.00  0.00    +0.000 N 
BRANCH  21  22
ATOM     22  C   UNL     1      11.387  12.754  18.754  0.00  0.00    +0.000 C 
ATOM     23  C   UNL     1      12.232  11.714  19.495  0.00  0.00    +0.000 C 
ATOM     24  C   UNL     1      11.637  12.676  17.248  0.00  0.00    +0.000 C 
ENDBRANCH  21  22
BRANCH  21  25
ATOM     25  C   UNL     1       9.567  13.381  20.428  0.00  0.00    +0.000 C 
ATOM     26  C   UNL     1       9.546  12.451  21.643  0.00  0.00    +0.000 C 
ATOM     27  C   UNL     1      10.445  14.606  20.697  0.00  0.00    +0.000 C 
ENDBRANCH  21  25
ENDBRANCH  19  21
ENDBRANCH  18  19
ENDBRANCH  17  18
ENDBRANCH   7  17
TORSDOF 9
ENDMDL
MODEL 2
REMARK VINA RESULT:      -6.6      5.806      7.622
REMARK  Name = 
REMARK  14 active torsions:
REMARK  status: ('A' for Active; 'I' for Inactive)
REMARK    1  A    between atoms: C_1  and  C_2
REMARK    2  A    between atoms: C_2  and  O_3
REMARK    3  A    between atoms: O_3  and  C_4
REMARK    4  A    between atoms: C_4  and  C_6
REMARK    5  A    between atoms: C_12  and  C_13
REMARK    6  A    between atoms: C_13  and  S_14
REMARK    7  A    between atoms: S_14  and  C_15
REMARK    8  A    between atoms: C_15  and  N_17
REMARK    9  A    between atoms: N_17  and  C_18
REMARK   10  A    between atoms: N_17  and  C_21
REMARK   11  A    between atoms: C_18  and  C_19
REMARK   12  A    between atoms: C_18  and  C_20
REMARK   13  A    between atoms: C_21  and  C_22
REMARK   14  A    between atoms: C_21  and  C_23
REMARK                            x       y       z     vdW  Elec       q    Type
REMARK                         _______ _______ _______ _____ _____    ______ ____
ROOT
ATOM      1  C   UNL     1       5.194   5.037  16.845  0.00  0.00    +0.000 A 
ATOM      2  C   UNL     1       4.996   4.177  17.856  0.00  0.00    +0.000 A 
ATOM      3  C   UNL     1       4.072   4.553  18.937  0.00  0.00    +0.000 A 
ATOM      4  O   UNL     1       3.866   3.795  19.876  0.00  0.00    +0.000 OA
ATOM      5  C   UNL     1       3.433   5.872  18.829  0.00  0.00    +0.000 A 
ATOM      6  C   UNL     1       2.550   6.321  19.821  0.00  0.00    +0.000 A 
ATOM      7  C   UNL     1       1.963   7.595  19.736  0.00  0.00    +0.000 A 
ATOM      8  C   UNL     1       2.258   8.383  18.607  0.00  0.00    +0.000 A 
ATOM      9  C   UNL     1       3.135   7.927  17.612  0.00  0.00    +0.000 A 
ATOM     10  C   UNL     1       3.726   6.670  17.726  0.00  0.00    +0.000 A 
ATOM     11  O   UNL     1       4.574   6.272  16.727  0.00  0.00    +0.000 OA
ENDROOT
BRANCH   1  12
ATOM     12  C   UNL     1       6.234   4.669  15.847  0.00  0.00    +0.000 C 
ATOM     13  O   UNL     1       7.421   4.945  15.943  0.00  0.00    +0.000 OA
BRANCH  12  14
ATOM     14  O   UNL     1       5.628   4.105  14.771  0.00  0.00    +0.000 OA
BRANCH  14  16
ATOM     15  C   UNL     1       5.617   3.336  12.514  0.00  0.00    +0.000 C 
ATOM     16  C   UNL     1       6.398   4.110  13.562  0.00  0.00    +0.000 C 
ENDBRANCH  14  16
ENDBRANCH  12  14
ENDBRANCH   1  12
BRANCH   7  17
ATOM     17  C   UNL     1       0.954   8.096  20.763  0.00  0.00    +0.000 C 
BRANCH  17  18
ATOM     18  S   UNL     1       1.543   9.488  21.774  0.00  0.00    +0.000 S 
BRANCH  18  19
ATOM     19  C   UNL     1       0.216  10.651  21.804  0.00  0.00    +0.000 C 
ATOM     20  S   UNL     1      -1.064  10.622  22.895  0.00  0.00    +0.000 S 
BRANCH  19  21
ATOM     21  N   UNL     1       0.253  11.531  20.708  0.00  0.00    +0.000 N 
BRANCH  21  22
ATOM     22  C   UNL     1      -0.806  11.549  19.659  0.00  0.00    +0.000 C 
ATOM     23  C   UNL     1      -1.123  10.146  19.132  0.00  0.00    +0.000 C 
ATOM     24  C   UNL     1      -2.091  12.280  20.046  0.00  0.00    +0.000 C 
ENDBRANCH  21  22
BRANCH  21  25
ATOM     25  C   UNL     1       1.488  12.320  20.465  0.00  0.00    +0.000 C 
ATOM     26  C   UNL     1       1.932  12.344  19.000  0.00  0.00    +0.000 C 
ATOM     27  C   UNL     1       1.356  13.742  21.017  0.00  0.00    +0.000 C 
ENDBRANCH  21  25
ENDBRANCH  19  21
ENDBRANCH  18  19
ENDBRANCH  17  18
ENDBRANCH   7  17
TORSDOF 9
ENDMDL
MODEL 3
REMARK VINA RESULT:      -6.6      1.131      2.001
REMARK  Name = 
REMARK  14 active torsions:
REMARK  status: ('A' for Active; 'I' for Inactive)
REMARK    1  A    between atoms: C_1  and  C_2
REMARK    2  A    between atoms: C_2  and  O_3
REMARK    3  A    between atoms: O_3  and  C_4
REMARK    4  A    between atoms: C_4  and  C_6
REMARK    5  A    between atoms: C_12  and  C_13
REMARK    6  A    between atoms: C_13  and  S_14
REMARK    7  A    between atoms: S_14  and  C_15
REMARK    8  A    between atoms: C_15  and  N_17
REMARK    9  A    between atoms: N_17  and  C_18
REMARK   10  A    between atoms: N_17  and  C_21
REMARK   11  A    between atoms: C_18  and  C_19
REMARK   12  A    between atoms: C_18  and  C_20
REMARK   13  A    between atoms: C_21  and  C_22
REMARK   14  A    between atoms: C_21  and  C_23
REMARK                            x       y       z     vdW  Elec       q    Type
REMARK                         _______ _______ _______ _____ _____    ______ ____
ROOT
ATOM      1  C   UNL     1       4.857   4.023  18.131  0.00  0.00    +0.000 A 
ATOM      2  C   UNL     1       4.245   4.816  17.238  0.00  0.00    +0.000 A 
ATOM      3  C   UNL     1       4.840   6.124  16.925  0.00  0.00    +0.000 A 
ATOM      4  O   UNL     1       4.311   6.875  16.116  0.00  0.00    +0.000 OA
ATOM      5  C   UNL     1       6.077   6.473  17.638  0.00  0.00    +0.000 A 
ATOM      6  C   UNL     1       6.705   7.706  17.417  0.00  0.00    +0.000 A 
ATOM      7  C   UNL     1       7.869   8.056  18.121  0.00  0.00    +0.000 A 
ATOM      8  C   UNL     1       8.403   7.113  19.021  0.00  0.00    +0.000 A 
ATOM      9  C   UNL     1       7.776   5.877  19.234  0.00  0.00    +0.000 A 
ATOM     10  C   UNL     1       6.609   5.558  18.544  0.00  0.00    +0.000 A 
ATOM     11  O   UNL     1       6.037   4.338  18.788  0.00  0.00    +0.000 OA
ENDROOT
BRANCH   1  12
ATOM     12  C   UNL     1       4.149   2.770  18.510  0.00  0.00    +0.000 C 
ATOM     13  O   UNL     1       3.698   1.957  17.717  0.00  0.00    +0.000 OA
BRANCH  12  14
ATOM     14  O   UNL     1       3.975   2.755  19.857  0.00  0.00    +0.000 OA
BRANCH  14  16
ATOM     15  C   UNL     1       2.311   2.806  21.563  0.00  0.00    +0.000 C 
ATOM     16  C   UNL     1       2.862   3.517  20.339  0.00  0.00    +0.000 C 
ENDBRANCH  14  16
ENDBRANCH  12  14
ENDBRANCH   1  12
BRANCH   7  17
ATOM     17  C   UNL     1       8.615   9.361  17.866  0.00  0.00    +0.000 C 
BRANCH  17  18
ATOM     18  S   UNL     1       9.286  10.144  19.364  0.00  0.00    +0.000 S 
BRANCH  18  19
ATOM     19  C   UNL     1       9.268  11.879  19.044  0.00  0.00    +0.000 C 
ATOM     20  S   UNL     1       9.035  12.577  17.532  0.00  0.00    +0.000 S 
BRANCH  19  21
ATOM     21  N   UNL     1       9.627  12.634  20.175  0.00  0.00    +0.000 N 
BRANCH  21  22
ATOM     22  C   UNL     1       8.620  13.173  21.132  0.00  0.00    +0.000 C 
ATOM     23  C   UNL     1       9.213  13.414  22.524  0.00  0.00    +0.000 C 
ATOM     24  C   UNL     1       7.861  14.408  20.649  0.00  0.00    +0.000 C 
ENDBRANCH  21  22
BRANCH  21  25
ATOM     25  C   UNL     1      11.033  13.096  20.309  0.00  0.00    +0.000 C 
ATOM     26  C   UNL     1      12.070  12.073  19.837  0.00  0.00    +0.000 C 
ATOM     27  C   UNL     1      11.243  14.443  19.613  0.00  0.00    +0.000 C 
ENDBRANCH  21  25
ENDBRANCH  19  21
ENDBRANCH  18  19
ENDBRANCH  17  18
ENDBRANCH   7  17
TORSDOF 9
ENDMDL
MODEL 4
REMARK VINA RESULT:      -6.5      7.588     10.094
REMARK  Name = 
REMARK  14 active torsions:
REMARK  status: ('A' for Active; 'I' for Inactive)
REMARK    1  A    between atoms: C_1  and  C_2
REMARK    2  A    between atoms: C_2  and  O_3
REMARK    3  A    between atoms: O_3  and  C_4
REMARK    4  A    between atoms: C_4  and  C_6
REMARK    5  A    between atoms: C_12  and  C_13
REMARK    6  A    between atoms: C_13  and  S_14
REMARK    7  A    between atoms: S_14  and  C_15
REMARK    8  A    between atoms: C_15  and  N_17
REMARK    9  A    between atoms: N_17  and  C_18
REMARK   10  A    between atoms: N_17  and  C_21
REMARK   11  A    between atoms: C_18  and  C_19
REMARK   12  A    between atoms: C_18  and  C_20
REMARK   13  A    between atoms: C_21  and  C_22
REMARK   14  A    between atoms: C_21  and  C_23
REMARK                            x       y       z     vdW  Elec       q    Type
REMARK                         _______ _______ _______ _____ _____    ______ ____
ROOT
ATOM      1  C   UNL     1       2.490   6.865  19.539  0.00  0.00    +0.000 A 
ATOM      2  C   UNL     1       2.544   7.601  18.419  0.00  0.00    +0.000 A 
ATOM      3  C   UNL     1       1.807   8.874  18.370  0.00  0.00    +0.000 A 
ATOM      4  O   UNL     1       1.833   9.573  17.365  0.00  0.00    +0.000 OA
ATOM      5  C   UNL     1       1.045   9.241  19.572  0.00  0.00    +0.000 A 
ATOM      6  C   UNL     1       0.300  10.427  19.610  0.00  0.00    +0.000 A 
ATOM      7  C   UNL     1      -0.455  10.765  20.746  0.00  0.00    +0.000 A 
ATOM      8  C   UNL     1      -0.404   9.896  21.853  0.00  0.00    +0.000 A 
ATOM      9  C   UNL     1       0.349   8.713  21.814  0.00  0.00    +0.000 A 
ATOM     10  C   UNL     1       1.072   8.385  20.670  0.00  0.00    +0.000 A 
ATOM     11  O   UNL     1       1.792   7.219  20.684  0.00  0.00    +0.000 OA
ENDROOT
BRANCH   1  12
ATOM     12  C   UNL     1       3.141   5.527  19.493  0.00  0.00    +0.000 C 
ATOM     13  O   UNL     1       4.336   5.340  19.322  0.00  0.00    +0.000 OA
BRANCH  12  14
ATOM     14  O   UNL     1       2.179   4.570  19.539  0.00  0.00    +0.000 OA
BRANCH  14  16
ATOM     15  C   UNL     1       1.127   2.600  18.705  0.00  0.00    +0.000 C 
ATOM     16  C   UNL     1       2.119   3.708  18.396  0.00  0.00    +0.000 C 
ENDBRANCH  14  16
ENDBRANCH  12  14
ENDBRANCH   1  12
BRANCH   7  17
ATOM     17  C   UNL     1      -1.230  12.073  20.849  0.00  0.00    +0.000 C 
BRANCH  17  18
ATOM     18  S   UNL     1      -1.837  12.711  19.258  0.00  0.00    +0.000 S 
BRANCH  18  19
ATOM     19  C   UNL     1      -3.574  12.400  19.250  0.00  0.00    +0.000 C 
ATOM     20  S   UNL     1      -4.612  12.705  20.537  0.00  0.00    +0.000 S 
BRANCH  19  21
ATOM     21  N   UNL     1      -3.988  11.716  18.093  0.00  0.00    +0.000 N 
BRANCH  21  22
ATOM     22  C   UNL     1      -5.423  11.572  17.719  0.00  0.00    +0.000 C 
ATOM     23  C   UNL     1      -6.199  10.710  18.720  0.00  0.00    +0.000 C 
ATOM     24  C   UNL     1      -6.161  12.884  17.455  0.00  0.00    +0.000 C 
ENDBRANCH  21  22
BRANCH  21  25
ATOM     25  C   UNL     1      -2.986  10.927  17.332  0.00  0.00    +0.000 C 
ATOM     26  C   UNL     1      -3.017   9.426  17.634  0.00  0.00    +0.000 C 
ATOM     27  C   UNL     1      -3.107  11.180  15.827  0.00  0.00    +0.000 C 
ENDBRANCH  21  25
ENDBRANCH  19  21
ENDBRANCH  18  19
ENDBRANCH  17  18
ENDBRANCH   7  17
TORSDOF 9
ENDMDL
MODEL 5
REMARK VINA RESULT:      -6.4      7.666     10.060
REMARK  Name = 
REMARK  14 active torsions:
REMARK  status: ('A' for Active; 'I' for Inactive)
REMARK    1  A    between atoms: C_1  and  C_2
REMARK    2  A    between atoms: C_2  and  O_3
REMARK    3  A    between atoms: O_3  and  C_4
REMARK    4  A    between atoms: C_4  and  C_6
REMARK    5  A    between atoms: C_12  and  C_13
REMARK    6  A    between atoms: C_13  and  S_14
REMARK    7  A    between atoms: S_14  and  C_15
REMARK    8  A    between atoms: C_15  and  N_17
REMARK    9  A    between atoms: N_17  and  C_18
REMARK   10  A    between atoms: N_17  and  C_21
REMARK   11  A    between atoms: C_18  and  C_19
REMARK   12  A    between atoms: C_18  and  C_20
REMARK   13  A    between atoms: C_21  and  C_22
REMARK   14  A    between atoms: C_21  and  C_23
REMARK                            x       y       z     vdW  Elec       q    Type
REMARK                         _______ _______ _______ _____ _____    ______ ____
ROOT
ATOM      1  C   UNL     1       2.588   6.895  19.456  0.00  0.00    +0.000 A 
ATOM      2  C   UNL     1       2.640   7.665  18.358  0.00  0.00    +0.000 A 
ATOM      3  C   UNL     1       1.876   8.922  18.337  0.00  0.00    +0.000 A 
ATOM      4  O   UNL     1       1.899   9.651  17.353  0.00  0.00    +0.000 OA
ATOM      5  C   UNL     1       1.092   9.238  19.538  0.00  0.00    +0.000 A 
ATOM      6  C   UNL     1       0.321  10.406  19.601  0.00  0.00    +0.000 A 
ATOM      7  C   UNL     1      -0.456  10.694  20.737  0.00  0.00    +0.000 A 
ATOM      8  C   UNL     1      -0.400   9.794  21.819  0.00  0.00    +0.000 A 
ATOM      9  C   UNL     1       0.380   8.630  21.755  0.00  0.00    +0.000 A 
ATOM     10  C   UNL     1       1.124   8.350  20.611  0.00  0.00    +0.000 A 
ATOM     11  O   UNL     1       1.869   7.200  20.601  0.00  0.00    +0.000 OA
ENDROOT
BRANCH   1  12
ATOM     12  C   UNL     1       3.269   5.574  19.379  0.00  0.00    +0.000 C 
ATOM     13  O   UNL     1       4.474   5.404  19.486  0.00  0.00    +0.000 OA
BRANCH  12  14
ATOM     14  O   UNL     1       2.354   4.628  19.043  0.00  0.00    +0.000 OA
BRANCH  14  16
ATOM     15  C   UNL     1       1.509   3.570  21.005  0.00  0.00    +0.000 C 
ATOM     16  C   UNL     1       2.422   3.414  19.801  0.00  0.00    +0.000 C 
ENDBRANCH  14  16
ENDBRANCH  12  14
ENDBRANCH   1  12
BRANCH   7  17
ATOM     17  C   UNL     1      -1.261  11.981  20.868  0.00  0.00    +0.000 C 
BRANCH  17  18
ATOM     18  S   UNL     1      -1.949  12.596  19.301  0.00  0.00    +0.000 S 
BRANCH  18  19
ATOM     19  C   UNL     1      -3.686  12.294  19.391  0.00  0.00    +0.000 C 
ATOM     20  S   UNL     1      -4.645  12.588  20.741  0.00  0.00    +0.000 S 
BRANCH  19  21
ATOM     21  N   UNL     1      -4.171  11.626  18.252  0.00  0.00    +0.000 N 
BRANCH  21  22
ATOM     22  C   UNL     1      -3.272  10.935  17.286  0.00  0.00    +0.000 C 
ATOM     23  C   UNL     1      -3.071   9.457  17.635  0.00  0.00    +0.000 C 
ATOM     24  C   UNL     1      -3.656  11.092  15.815  0.00  0.00    +0.000 C 
ENDBRANCH  21  22
BRANCH  21  25
ATOM     25  C   UNL     1      -5.599  11.794  17.880  0.00  0.00    +0.000 C 
ATOM     26  C   UNL     1      -6.543  10.810  18.576  0.00  0.00    +0.000 C 
ATOM     27  C   UNL     1      -6.063  13.237  18.097  0.00  0.00    +0.000 C 
ENDBRANCH  21  25
ENDBRANCH  19  21
ENDBRANCH  18  19
ENDBRANCH  17  18
ENDBRANCH   7  17
TORSDOF 9
ENDMDL
MODEL 6
REMARK VINA RESULT:      -6.3      1.304      1.849
REMARK  Name = 
REMARK  14 active torsions:
REMARK  status: ('A' for Active; 'I' for Inactive)
REMARK    1  A    between atoms: C_1  and  C_2
REMARK    2  A    between atoms: C_2  and  O_3
REMARK    3  A    between atoms: O_3  and  C_4
REMARK    4  A    between atoms: C_4  and  C_6
REMARK    5  A    between atoms: C_12  and  C_13
REMARK    6  A    between atoms: C_13  and  S_14
REMARK    7  A    between atoms: S_14  and  C_15
REMARK    8  A    between atoms: C_15  and  N_17
REMARK    9  A    between atoms: N_17  and  C_18
REMARK   10  A    between atoms: N_17  and  C_21
REMARK   11  A    between atoms: C_18  and  C_19
REMARK   12  A    between atoms: C_18  and  C_20
REMARK   13  A    between atoms: C_21  and  C_22
REMARK   14  A    between atoms: C_21  and  C_23
REMARK                            x       y       z     vdW  Elec       q    Type
REMARK                         _______ _______ _______ _____ _____    ______ ____
ROOT
ATOM      1  C   UNL     1       4.839   4.153  17.825  0.00  0.00    +0.000 A 
ATOM      2  C   UNL     1       4.431   4.914  16.797  0.00  0.00    +0.000 A 
ATOM      3  C   UNL     1       5.143   6.170  16.518  0.00  0.00    +0.000 A 
ATOM      4  O   UNL     1       4.800   6.891  15.589  0.00  0.00    +0.000 OA
ATOM      5  C   UNL     1       6.261   6.507  17.410  0.00  0.00    +0.000 A 
ATOM      6  C   UNL     1       6.986   7.693  17.230  0.00  0.00    +0.000 A 
ATOM      7  C   UNL     1       8.035   8.033  18.102  0.00  0.00    +0.000 A 
ATOM      8  C   UNL     1       8.356   7.126  19.131  0.00  0.00    +0.000 A 
ATOM      9  C   UNL     1       7.633   5.937  19.303  0.00  0.00    +0.000 A 
ATOM     10  C   UNL     1       6.582   5.629  18.443  0.00  0.00    +0.000 A 
ATOM     11  O   UNL     1       5.909   4.455  18.655  0.00  0.00    +0.000 OA
ENDROOT
BRANCH   1  12
ATOM     12  C   UNL     1       4.008   2.962  18.147  0.00  0.00    +0.000 C 
ATOM     13  O   UNL     1       3.948   1.949  17.467  0.00  0.00    +0.000 OA
BRANCH  12  14
ATOM     14  O   UNL     1       3.241   3.244  19.233  0.00  0.00    +0.000 OA
BRANCH  14  16
ATOM     15  C   UNL     1       0.917   2.969  19.687  0.00  0.00    +0.000 C 
ATOM     16  C   UNL     1       2.254   2.258  19.557  0.00  0.00    +0.000 C 
ENDBRANCH  14  16
ENDBRANCH  12  14
ENDBRANCH   1  12
BRANCH   7  17
ATOM     17  C   UNL     1       8.885   9.282  17.905  0.00  0.00    +0.000 C 
BRANCH  17  18
ATOM     18  S   UNL     1       9.215  10.212  19.432  0.00  0.00    +0.000 S 
BRANCH  18  19
ATOM     19  C   UNL     1      10.111  11.648  18.934  0.00  0.00    +0.000 C 
ATOM     20  S   UNL     1      11.556  11.630  18.073  0.00  0.00    +0.000 S 
BRANCH  19  21
ATOM     21  N   UNL     1       9.567  12.829  19.470  0.00  0.00    +0.000 N 
BRANCH  21  22
ATOM     22  C   UNL     1       8.910  13.865  18.624  0.00  0.00    +0.000 C 
ATOM     23  C   UNL     1       9.928  14.735  17.878  0.00  0.00    +0.000 C 
ATOM     24  C   UNL     1       7.847  13.338  17.661  0.00  0.00    +0.000 C 
ENDBRANCH  21  22
BRANCH  21  25
ATOM     25  C   UNL     1       9.844  13.162  20.891  0.00  0.00    +0.000 C 
ATOM     26  C   UNL     1      10.481  14.539  21.094  0.00  0.00    +0.000 C 
ATOM     27  C   UNL     1       8.586  13.013  21.751  0.00  0.00    +0.000 C 
ENDBRANCH  21  25
ENDBRANCH  19  21
ENDBRANCH  18  19
ENDBRANCH  17  18
ENDBRANCH   7  17
TORSDOF 9
ENDMDL
MODEL 7
REMARK VINA RESULT:      -6.3      6.022      7.470
REMARK  Name = 
REMARK  14 active torsions:
REMARK  status: ('A' for Active; 'I' for Inactive)
REMARK    1  A    between atoms: C_1  and  C_2
REMARK    2  A    between atoms: C_2  and  O_3
REMARK    3  A    between atoms: O_3  and  C_4
REMARK    4  A    between atoms: C_4  and  C_6
REMARK    5  A    between atoms: C_12  and  C_13
REMARK    6  A    between atoms: C_13  and  S_14
REMARK    7  A    between atoms: S_14  and  C_15
REMARK    8  A    between atoms: C_15  and  N_17
REMARK    9  A    between atoms: N_17  and  C_18
REMARK   10  A    between atoms: N_17  and  C_21
REMARK   11  A    between atoms: C_18  and  C_19
REMARK   12  A    between atoms: C_18  and  C_20
REMARK   13  A    between atoms: C_21  and  C_22
REMARK   14  A    between atoms: C_21  and  C_23
REMARK                            x       y       z     vdW  Elec       q    Type
REMARK                         _______ _______ _______ _____ _____    ______ ____
ROOT
ATOM      1  C   UNL     1       3.928   4.368  19.073  0.00  0.00    +0.000 A 
ATOM      2  C   UNL     1       4.456   4.761  17.904  0.00  0.00    +0.000 A 
ATOM      3  C   UNL     1       4.135   6.103  17.395  0.00  0.00    +0.000 A 
ATOM      4  O   UNL     1       4.598   6.496  16.332  0.00  0.00    +0.000 OA
ATOM      5  C   UNL     1       3.234   6.921  18.217  0.00  0.00    +0.000 A 
ATOM      6  C   UNL     1       2.859   8.206  17.803  0.00  0.00    +0.000 A 
ATOM      7  C   UNL     1       1.972   8.979  18.572  0.00  0.00    +0.000 A 
ATOM      8  C   UNL     1       1.507   8.436  19.786  0.00  0.00    +0.000 A 
ATOM      9  C   UNL     1       1.891   7.152  20.201  0.00  0.00    +0.000 A 
ATOM     10  C   UNL     1       2.753   6.393  19.412  0.00  0.00    +0.000 A 
ATOM     11  O   UNL     1       3.096   5.146  19.864  0.00  0.00    +0.000 OA
ENDROOT
BRANCH   1  12
ATOM     12  C   UNL     1       4.176   2.958  19.480  0.00  0.00    +0.000 C 
ATOM     13  O   UNL     1       5.141   2.578  20.125  0.00  0.00    +0.000 OA
BRANCH  12  14
ATOM     14  O   UNL     1       3.234   2.165  18.907  0.00  0.00    +0.000 OA
BRANCH  14  16
ATOM     15  C   UNL     1       0.871   2.466  18.791  0.00  0.00    +0.000 C 
ATOM     16  C   UNL     1       2.027   2.004  19.663  0.00  0.00    +0.000 C 
ENDBRANCH  14  16
ENDBRANCH  12  14
ENDBRANCH   1  12
BRANCH   7  17
ATOM     17  C   UNL     1       1.587  10.402  18.186  0.00  0.00    +0.000 C 
BRANCH  17  18
ATOM     18  S   UNL     1      -0.005  10.957  18.867  0.00  0.00    +0.000 S 
BRANCH  18  19
ATOM     19  C   UNL     1       0.374  12.332  19.908  0.00  0.00    +0.000 C 
ATOM     20  S   UNL     1       1.911  12.719  20.468  0.00  0.00    +0.000 S 
BRANCH  19  21
ATOM     21  N   UNL     1      -0.782  12.996  20.357  0.00  0.00    +0.000 N 
BRANCH  21  22
ATOM     22  C   UNL     1      -1.984  12.266  20.849  0.00  0.00    +0.000 C 
ATOM     23  C   UNL     1      -2.029  12.189  22.379  0.00  0.00    +0.000 C 
ATOM     24  C   UNL     1      -3.318  12.764  20.296  0.00  0.00    +0.000 C 
ENDBRANCH  21  22
BRANCH  21  25
ATOM     25  C   UNL     1      -0.897  14.460  20.135  0.00  0.00    +0.000 C 
ATOM     26  C   UNL     1      -0.324  15.308  21.273  0.00  0.00    +0.000 C 
ATOM     27  C   UNL     1      -0.283  14.867  18.793  0.00  0.00    +0.000 C 
ENDBRANCH  21  25
ENDBRANCH  19  21
ENDBRANCH  18  19
ENDBRANCH  17  18
ENDBRANCH   7  17
TORSDOF 9
ENDMDL
MODEL 8
REMARK VINA RESULT:      -6.3      5.746      7.429
REMARK  Name = 
REMARK  14 active torsions:
REMARK  status: ('A' for Active; 'I' for Inactive)
REMARK    1  A    between atoms: C_1  and  C_2
REMARK    2  A    between atoms: C_2  and  O_3
REMARK    3  A    between atoms: O_3  and  C_4
REMARK    4  A    between atoms: C_4  and  C_6
REMARK    5  A    between atoms: C_12  and  C_13
REMARK    6  A    between atoms: C_13  and  S_14
REMARK    7  A    between atoms: S_14  and  C_15
REMARK    8  A    between atoms: C_15  and  N_17
REMARK    9  A    between atoms: N_17  and  C_18
REMARK   10  A    between atoms: N_17  and  C_21
REMARK   11  A    between atoms: C_18  and  C_19
REMARK   12  A    between atoms: C_18  and  C_20
REMARK   13  A    between atoms: C_21  and  C_22
REMARK   14  A    between atoms: C_21  and  C_23
REMARK                            x       y       z     vdW  Elec       q    Type
REMARK                         _______ _______ _______ _____ _____    ______ ____
ROOT
ATOM      1  C   UNL     1       5.301   5.558  17.144  0.00  0.00    +0.000 A 
ATOM      2  C   UNL     1       5.063   4.720  18.164  0.00  0.00    +0.000 A 
ATOM      3  C   UNL     1       4.021   5.070  19.142  0.00  0.00    +0.000 A 
ATOM      4  O   UNL     1       3.776   4.331  20.087  0.00  0.00    +0.000 OA
ATOM      5  C   UNL     1       3.316   6.342  18.927  0.00  0.00    +0.000 A 
ATOM      6  C   UNL     1       2.320   6.765  19.817  0.00  0.00    +0.000 A 
ATOM      7  C   UNL     1       1.666   7.995  19.632  0.00  0.00    +0.000 A 
ATOM      8  C   UNL     1       2.016   8.764  18.505  0.00  0.00    +0.000 A 
ATOM      9  C   UNL     1       3.008   8.333  17.611  0.00  0.00    +0.000 A 
ATOM     10  C   UNL     1       3.661   7.121  17.826  0.00  0.00    +0.000 A 
ATOM     11  O   UNL     1       4.621   6.747  16.923  0.00  0.00    +0.000 OA
ENDROOT
BRANCH   1  12
ATOM     12  C   UNL     1       6.450   5.226  16.258  0.00  0.00    +0.000 C 
ATOM     13  O   UNL     1       7.548   4.860  16.649  0.00  0.00    +0.000 OA
BRANCH  12  14
ATOM     14  O   UNL     1       6.114   5.523  14.976  0.00  0.00    +0.000 OA
BRANCH  14  16
ATOM     15  C   UNL     1       6.006   3.759  13.375  0.00  0.00    +0.000 C 
ATOM     16  C   UNL     1       6.881   4.849  13.971  0.00  0.00    +0.000 C 
ENDBRANCH  14  16
ENDBRANCH  12  14
ENDBRANCH   1  12
BRANCH   7  17
ATOM     17  C   UNL     1       0.538   8.463  20.543  0.00  0.00    +0.000 C 
BRANCH  17  18
ATOM     18  S   UNL     1       0.879  10.021  21.417  0.00  0.00    +0.000 S 
BRANCH  18  19
ATOM     19  C   UNL     1       0.092  11.283  20.466  0.00  0.00    +0.000 C 
ATOM     20  S   UNL     1      -1.141  11.022  19.353  0.00  0.00    +0.000 S 
BRANCH  19  21
ATOM     21  N   UNL     1       0.715  12.535  20.622  0.00  0.00    +0.000 N 
BRANCH  21  22
ATOM     22  C   UNL     1       0.036  13.692  21.269  0.00  0.00    +0.000 C 
ATOM     23  C   UNL     1      -0.848  14.469  20.287  0.00  0.00    +0.000 C 
ATOM     24  C   UNL     1      -0.739  13.361  22.543  0.00  0.00    +0.000 C 
ENDBRANCH  21  22
BRANCH  21  25
ATOM     25  C   UNL     1       2.007  12.781  19.930  0.00  0.00    +0.000 C 
ATOM     26  C   UNL     1       1.872  12.997  18.420  0.00  0.00    +0.000 C 
ATOM     27  C   UNL     1       2.771  13.938  20.578  0.00  0.00    +0.000 C 
ENDBRANCH  21  25
ENDBRANCH  19  21
ENDBRANCH  18  19
ENDBRANCH  17  18
ENDBRANCH   7  17
TORSDOF 9
ENDMDL
MODEL 9
REMARK VINA RESULT:      -6.3      6.580      7.566
REMARK  Name = 
REMARK  14 active torsions:
REMARK  status: ('A' for Active; 'I' for Inactive)
REMARK    1  A    between atoms: C_1  and  C_2
REMARK    2  A    between atoms: C_2  and  O_3
REMARK    3  A    between atoms: O_3  and  C_4
REMARK    4  A    between atoms: C_4  and  C_6
REMARK    5  A    between atoms: C_12  and  C_13
REMARK    6  A    between atoms: C_13  and  S_14
REMARK    7  A    between atoms: S_14  and  C_15
REMARK    8  A    between atoms: C_15  and  N_17
REMARK    9  A    between atoms: N_17  and  C_18
REMARK   10  A    between atoms: N_17  and  C_21
REMARK   11  A    between atoms: C_18  and  C_19
REMARK   12  A    between atoms: C_18  and  C_20
REMARK   13  A    between atoms: C_21  and  C_22
REMARK   14  A    between atoms: C_21  and  C_23
REMARK                            x       y       z     vdW  Elec       q    Type
REMARK                         _______ _______ _______ _____ _____    ______ ____
ROOT
ATOM      1  C   UNL     1       2.415   7.008  19.567  0.00  0.00    +0.000 A 
ATOM      2  C   UNL     1       2.448   7.764  18.459  0.00  0.00    +0.000 A 
ATOM      3  C   UNL     1       1.729   9.047  18.453  0.00  0.00    +0.000 A 
ATOM      4  O   UNL     1       1.736   9.764  17.461  0.00  0.00    +0.000 OA
ATOM      5  C   UNL     1       1.006   9.403  19.682  0.00  0.00    +0.000 A 
ATOM      6  C   UNL     1       0.280  10.599  19.762  0.00  0.00    +0.000 A 
ATOM      7  C   UNL     1      -0.439  10.926  20.925  0.00  0.00    +0.000 A 
ATOM      8  C   UNL     1      -0.369  10.037  22.015  0.00  0.00    +0.000 A 
ATOM      9  C   UNL     1       0.366   8.845  21.934  0.00  0.00    +0.000 A 
ATOM     10  C   UNL     1       1.052   8.527  20.764  0.00  0.00    +0.000 A 
ATOM     11  O   UNL     1       1.755   7.352  20.738  0.00  0.00    +0.000 OA
ENDROOT
BRANCH   1  12
ATOM     12  C   UNL     1       3.046   5.663  19.480  0.00  0.00    +0.000 C 
ATOM     13  O   UNL     1       4.241   5.463  19.317  0.00  0.00    +0.000 OA
BRANCH  12  14
ATOM     14  O   UNL     1       2.069   4.720  19.476  0.00  0.00    +0.000 OA
BRANCH  14  16
ATOM     15  C   UNL     1       1.045   2.739  18.634  0.00  0.00    +0.000 C 
ATOM     16  C   UNL     1       2.275   3.628  18.572  0.00  0.00    +0.000 C 
ENDBRANCH  14  16
ENDBRANCH  12  14
ENDBRANCH   1  12
BRANCH   7  17
ATOM     17  C   UNL     1      -1.192  12.243  21.073  0.00  0.00    +0.000 C 
BRANCH  17  18
ATOM     18  S   UNL     1      -0.995  13.380  19.668  0.00  0.00    +0.000 S 
BRANCH  18  19
ATOM     19  C   UNL     1       0.035  14.688  20.255  0.00  0.00    +0.000 C 
ATOM     20  S   UNL     1      -0.282  15.627  21.613  0.00  0.00    +0.000 S 
BRANCH  19  21
ATOM     21  N   UNL     1       1.088  14.976  19.368  0.00  0.00    +0.000 N 
BRANCH  21  22
ATOM     22  C   UNL     1       2.369  14.215  19.373  0.00  0.00    +0.000 C 
ATOM     23  C   UNL     1       2.635  13.536  20.720  0.00  0.00    +0.000 C 
ATOM     24  C   UNL     1       2.535  13.217  18.227  0.00  0.00    +0.000 C 
ENDBRANCH  21  22
BRANCH  21  25
ATOM     25  C   UNL     1       1.014  16.213  18.548  0.00  0.00    +0.000 C 
ATOM     26  C   UNL     1      -0.408  16.744  18.351  0.00  0.00    +0.000 C 
ATOM     27  C   UNL     1       1.929  17.305  19.107  0.00  0.00    +0.000 C 
ENDBRANCH  21  25
ENDBRANCH  19  21
ENDBRANCH  18  19
ENDBRANCH  17  18
ENDBRANCH   7  17
TORSDOF 9
ENDMDL
