MODEL 1
REMARK VINA RESULT:      -8.8      0.000      0.000
REMARK  Name = 
REMARK  7 active torsions:
REMARK  status: ('A' for Active; 'I' for Inactive)
REMARK    1  A    between atoms: C_1  and  C_2
REMARK    2  A    between atoms: C_6  and  C_7
REMARK    3  A    between atoms: C_15  and  C_16
REMARK    4  A    between atoms: C_20  and  O_21
REMARK    5  A    between atoms: O_21  and  C_22
REMARK    6  A    between atoms: C_26  and  C_27
REMARK    7  A    between atoms: C_27  and  O_28
REMARK                            x       y       z     vdW  Elec       q    Type
REMARK                         _______ _______ _______ _____ _____    ______ ____
ROOT
ATOM      1  C   UNL     1       2.152   6.448  19.891  0.00  0.00    +0.000 A 
ATOM      2  C   UNL     1       1.279   5.597  20.590  0.00  0.00    +0.000 A 
ATOM      3  C   UNL     1       1.621   4.271  20.900  0.00  0.00    +0.000 A 
ATOM      4  C   UNL     1       2.825   3.730  20.461  0.00  0.00    +0.000 A 
ATOM      5  C   UNL     1       3.709   4.523  19.742  0.00  0.00    +0.000 A 
ATOM      6  C   UNL     1       3.371   5.863  19.484  0.00  0.00    +0.000 A 
ENDROOT
BRANCH   1  17
ATOM      7  C   UNL     1       2.885   7.832  17.220  0.00  0.00    +0.000 C 
ATOM      8  C   UNL     1       2.151   8.491  18.354  0.00  0.00    +0.000 A 
ATOM      9  C   UNL     1       1.733   9.796  18.131  0.00  0.00    +0.000 A 
ATOM     10  N   UNL     1       1.044  10.543  19.006  0.00  0.00    +0.000 NA
ATOM     11  C   UNL     1       0.764  10.045  20.207  0.00  0.00    +0.000 A 
ATOM     12  C   UNL     1       0.035  10.846  21.094  0.00  0.00    +0.000 A 
ATOM     13  C   UNL     1      -0.295  10.378  22.379  0.00  0.00    +0.000 A 
ATOM     14  C   UNL     1       0.157   9.147  22.807  0.00  0.00    +0.000 A 
ATOM     15  C   UNL     1       0.914   8.367  21.939  0.00  0.00    +0.000 A 
ATOM     16  C   UNL     1       1.189   8.747  20.597  0.00  0.00    +0.000 A 
ATOM     17  C   UNL     1       1.863   7.907  19.616  0.00  0.00    +0.000 A 
BRANCH  12  18
ATOM     18  C   UNL     1      -0.449  12.224  20.724  0.00  0.00    +0.000 C 
ATOM     19  F   UNL     1       0.465  13.142  20.311  0.00  0.00    +0.000 F 
ATOM     20  F   UNL     1      -1.381  12.177  19.722  0.00  0.00    +0.000 F 
ATOM     21  F   UNL     1      -1.100  12.814  21.774  0.00  0.00    +0.000 F 
ENDBRANCH  12  18
ENDBRANCH   1  17
BRANCH   5  22
ATOM     22  O   UNL     1       4.853   3.890  19.293  0.00  0.00    +0.000 OA
BRANCH  22  23
ATOM     23  C   UNL     1       5.525   4.383  18.200  0.00  0.00    +0.000 A 
ATOM     24  C   UNL     1       6.665   5.155  18.441  0.00  0.00    +0.000 A 
ATOM     25  C   UNL     1       7.399   5.660  17.365  0.00  0.00    +0.000 A 
ATOM     26  C   UNL     1       7.016   5.361  16.054  0.00  0.00    +0.000 A 
ATOM     27  C   UNL     1       5.876   4.587  15.804  0.00  0.00    +0.000 A 
ATOM     28  C   UNL     1       5.094   4.178  16.890  0.00  0.00    +0.000 A 
BRANCH  27  29
ATOM     29  C   UNL     1       5.476   4.223  14.398  0.00  0.00    +0.000 C 
BRANCH  29  30
ATOM     30  O   UNL     1       6.439   3.360  13.798  0.00  0.00    +0.000 OA
ATOM     31  H   UNL     1       6.932   2.933  14.521  0.00  0.00    +0.000 HD
ENDBRANCH  29  30
ENDBRANCH  27  29
ENDBRANCH  22  23
ENDBRANCH   5  22
TORSDOF 6
ENDMDL
MODEL 2
REMARK VINA RESULT:      -8.8      5.250      8.538
REMARK  Name = 
REMARK  7 active torsions:
REMARK  status: ('A' for Active; 'I' for Inactive)
REMARK    1  A    between atoms: C_1  and  C_2
REMARK    2  A    between atoms: C_6  and  C_7
REMARK    3  A    between atoms: C_15  and  C_16
REMARK    4  A    between atoms: C_20  and  O_21
REMARK    5  A    between atoms: O_21  and  C_22
REMARK    6  A    between atoms: C_26  and  C_27
REMARK    7  A    between atoms: C_27  and  O_28
REMARK                            x       y       z     vdW  Elec       q    Type
REMARK                         _______ _______ _______ _____ _____    ______ ____
ROOT
ATOM      1  C   UNL     1       2.249   6.820  19.220  0.00  0.00    +0.000 A 
ATOM      2  C   UNL     1       1.973   6.718  20.593  0.00  0.00    +0.000 A 
ATOM      3  C   UNL     1       1.320   7.739  21.301  0.00  0.00    +0.000 A 
ATOM      4  C   UNL     1       0.979   8.931  20.668  0.00  0.00    +0.000 A 
ATOM      5  C   UNL     1       1.256   9.091  19.317  0.00  0.00    +0.000 A 
ATOM      6  C   UNL     1       1.866   8.037  18.614  0.00  0.00    +0.000 A 
ENDROOT
BRANCH   1  17
ATOM      7  C   UNL     1       0.972   4.011  18.961  0.00  0.00    +0.000 C 
ATOM      8  C   UNL     1       2.219   4.455  18.250  0.00  0.00    +0.000 A 
ATOM      9  C   UNL     1       2.779   3.535  17.374  0.00  0.00    +0.000 A 
ATOM     10  N   UNL     1       3.874   3.750  16.629  0.00  0.00    +0.000 NA
ATOM     11  C   UNL     1       4.525   4.904  16.747  0.00  0.00    +0.000 A 
ATOM     12  C   UNL     1       5.657   5.101  15.949  0.00  0.00    +0.000 A 
ATOM     13  C   UNL     1       6.389   6.300  16.026  0.00  0.00    +0.000 A 
ATOM     14  C   UNL     1       6.040   7.269  16.942  0.00  0.00    +0.000 A 
ATOM     15  C   UNL     1       4.937   7.057  17.762  0.00  0.00    +0.000 A 
ATOM     16  C   UNL     1       4.103   5.911  17.656  0.00  0.00    +0.000 A 
ATOM     17  C   UNL     1       2.868   5.709  18.401  0.00  0.00    +0.000 A 
BRANCH  12  18
ATOM     18  C   UNL     1       6.138   4.069  14.962  0.00  0.00    +0.000 C 
ATOM     19  F   UNL     1       5.436   3.901  13.809  0.00  0.00    +0.000 F 
ATOM     20  F   UNL     1       7.424   4.318  14.561  0.00  0.00    +0.000 F 
ATOM     21  F   UNL     1       6.188   2.828  15.535  0.00  0.00    +0.000 F 
ENDBRANCH  12  18
ENDBRANCH   1  17
BRANCH   5  22
ATOM     22  O   UNL     1       0.940  10.326  18.783  0.00  0.00    +0.000 OA
BRANCH  22  23
ATOM     23  C   UNL     1      -0.372  10.644  18.521  0.00  0.00    +0.000 A 
ATOM     24  C   UNL     1      -0.978  11.601  19.340  0.00  0.00    +0.000 A 
ATOM     25  C   UNL     1      -2.301  11.978  19.102  0.00  0.00    +0.000 A 
ATOM     26  C   UNL     1      -3.004  11.428  18.025  0.00  0.00    +0.000 A 
ATOM     27  C   UNL     1      -2.403  10.470  17.198  0.00  0.00    +0.000 A 
ATOM     28  C   UNL     1      -1.115  10.027  17.515  0.00  0.00    +0.000 A 
BRANCH  27  29
ATOM     29  C   UNL     1      -3.134   9.901  16.011  0.00  0.00    +0.000 C 
BRANCH  29  30
ATOM     30  O   UNL     1      -2.608  10.415  14.790  0.00  0.00    +0.000 OA
ATOM     31  H   UNL     1      -1.801   9.908  14.589  0.00  0.00    +0.000 HD
ENDBRANCH  29  30
ENDBRANCH  27  29
ENDBRANCH  22  23
ENDBRANCH   5  22
TORSDOF 6
ENDMDL
MODEL 3
REMARK VINA RESULT:      -8.7      1.136      1.929
REMARK  Name = 
REMARK  7 active torsions:
REMARK  status: ('A' for Active; 'I' for Inactive)
REMARK    1  A    between atoms: C_1  and  C_2
REMARK    2  A    between atoms: C_6  and  C_7
REMARK    3  A    between atoms: C_15  and  C_16
REMARK    4  A    between atoms: C_20  and  O_21
REMARK    5  A    between atoms: O_21  and  C_22
REMARK    6  A    between atoms: C_26  and  C_27
REMARK    7  A    between atoms: C_27  and  O_28
REMARK                            x       y       z     vdW  Elec       q    Type
REMARK                         _______ _______ _______ _____ _____    ______ ____
ROOT
ATOM      1  C   UNL     1       2.082   6.544  19.934  0.00  0.00    +0.000 A 
ATOM      2  C   UNL     1       1.214   5.678  20.619  0.00  0.00    +0.000 A 
ATOM      3  C   UNL     1       1.566   4.353  20.920  0.00  0.00    +0.000 A 
ATOM      4  C   UNL     1       2.779   3.828  20.485  0.00  0.00    +0.000 A 
ATOM      5  C   UNL     1       3.660   4.637  19.780  0.00  0.00    +0.000 A 
ATOM      6  C   UNL     1       3.310   5.975  19.531  0.00  0.00    +0.000 A 
ENDROOT
BRANCH   1  17
ATOM      7  C   UNL     1       2.805   7.954  17.274  0.00  0.00    +0.000 C 
ATOM      8  C   UNL     1       2.065   8.598  18.412  0.00  0.00    +0.000 A 
ATOM      9  C   UNL     1       1.635   9.901  18.198  0.00  0.00    +0.000 A 
ATOM     10  N   UNL     1       0.939  10.636  19.078  0.00  0.00    +0.000 NA
ATOM     11  C   UNL     1       0.662  10.126  20.275  0.00  0.00    +0.000 A 
ATOM     12  C   UNL     1      -0.075  10.914  21.168  0.00  0.00    +0.000 A 
ATOM     13  C   UNL     1      -0.401  10.433  22.448  0.00  0.00    +0.000 A 
ATOM     14  C   UNL     1       0.061   9.204  22.868  0.00  0.00    +0.000 A 
ATOM     15  C   UNL     1       0.826   8.436  21.995  0.00  0.00    +0.000 A 
ATOM     16  C   UNL     1       1.098   8.829  20.656  0.00  0.00    +0.000 A 
ATOM     17  C   UNL     1       1.780   8.003  19.669  0.00  0.00    +0.000 A 
BRANCH  12  18
ATOM     18  C   UNL     1      -0.571  12.290  20.807  0.00  0.00    +0.000 C 
ATOM     19  F   UNL     1      -1.341  12.430  19.695  0.00  0.00    +0.000 F 
ATOM     20  F   UNL     1      -1.310  12.839  21.821  0.00  0.00    +0.000 F 
ATOM     21  F   UNL     1       0.473  13.158  20.631  0.00  0.00    +0.000 F 
ENDBRANCH  12  18
ENDBRANCH   1  17
BRANCH   5  22
ATOM     22  O   UNL     1       4.813   4.019  19.334  0.00  0.00    +0.000 OA
BRANCH  22  23
ATOM     23  C   UNL     1       5.550   4.590  18.323  0.00  0.00    +0.000 A 
ATOM     24  C   UNL     1       5.441   4.024  17.050  0.00  0.00    +0.000 A 
ATOM     25  C   UNL     1       6.149   4.581  15.982  0.00  0.00    +0.000 A 
ATOM     26  C   UNL     1       6.933   5.722  16.180  0.00  0.00    +0.000 A 
ATOM     27  C   UNL     1       7.045   6.296  17.452  0.00  0.00    +0.000 A 
ATOM     28  C   UNL     1       6.414   5.664  18.530  0.00  0.00    +0.000 A 
BRANCH  27  29
ATOM     29  C   UNL     1       7.852   7.549  17.671  0.00  0.00    +0.000 C 
BRANCH  29  30
ATOM     30  O   UNL     1       8.552   7.498  18.913  0.00  0.00    +0.000 OA
ATOM     31  H   UNL     1       9.389   7.028  18.752  0.00  0.00    +0.000 HD
ENDBRANCH  29  30
ENDBRANCH  27  29
ENDBRANCH  22  23
ENDBRANCH   5  22
TORSDOF 6
ENDMDL
MODEL 4
REMARK VINA RESULT:      -8.6      5.346      8.942
REMARK  Name = 
REMARK  7 active torsions:
REMARK  status: ('A' for Active; 'I' for Inactive)
REMARK    1  A    between atoms: C_1  and  C_2
REMARK    2  A    between atoms: C_6  and  C_7
REMARK    3  A    between atoms: C_15  and  C_16
REMARK    4  A    between atoms: C_20  and  O_21
REMARK    5  A    between atoms: O_21  and  C_22
REMARK    6  A    between atoms: C_26  and  C_27
REMARK    7  A    between atoms: C_27  and  O_28
REMARK                            x       y       z     vdW  Elec       q    Type
REMARK                         _______ _______ _______ _____ _____    ______ ____
ROOT
ATOM      1  C   UNL     1       2.213   6.877  19.271  0.00  0.00    +0.000 A 
ATOM      2  C   UNL     1       1.954   6.815  20.651  0.00  0.00    +0.000 A 
ATOM      3  C   UNL     1       1.302   7.853  21.335  0.00  0.00    +0.000 A 
ATOM      4  C   UNL     1       0.944   9.022  20.670  0.00  0.00    +0.000 A 
ATOM      5  C   UNL     1       1.203   9.143  19.312  0.00  0.00    +0.000 A 
ATOM      6  C   UNL     1       1.813   8.072  18.634  0.00  0.00    +0.000 A 
ENDROOT
BRANCH   1  17
ATOM      7  C   UNL     1       0.970   4.045  19.137  0.00  0.00    +0.000 C 
ATOM      8  C   UNL     1       2.196   4.479  18.385  0.00  0.00    +0.000 A 
ATOM      9  C   UNL     1       2.751   3.537  17.530  0.00  0.00    +0.000 A 
ATOM     10  N   UNL     1       3.827   3.740  16.756  0.00  0.00    +0.000 NA
ATOM     11  C   UNL     1       4.465   4.906  16.821  0.00  0.00    +0.000 A 
ATOM     12  C   UNL     1       5.578   5.090  15.993  0.00  0.00    +0.000 A 
ATOM     13  C   UNL     1       6.295   6.300  16.014  0.00  0.00    +0.000 A 
ATOM     14  C   UNL     1       5.951   7.296  16.903  0.00  0.00    +0.000 A 
ATOM     15  C   UNL     1       4.868   7.099  17.752  0.00  0.00    +0.000 A 
ATOM     16  C   UNL     1       4.048   5.938  17.702  0.00  0.00    +0.000 A 
ATOM     17  C   UNL     1       2.830   5.746  18.479  0.00  0.00    +0.000 A 
BRANCH  12  18
ATOM     18  C   UNL     1       6.053   4.030  15.033  0.00  0.00    +0.000 C 
ATOM     19  F   UNL     1       6.098   2.741  15.462  0.00  0.00    +0.000 F 
ATOM     20  F   UNL     1       5.286   4.000  13.899  0.00  0.00    +0.000 F 
ATOM     21  F   UNL     1       7.318   4.303  14.587  0.00  0.00    +0.000 F 
ENDBRANCH  12  18
ENDBRANCH   1  17
BRANCH   5  22
ATOM     22  O   UNL     1       0.871  10.359  18.744  0.00  0.00    +0.000 OA
BRANCH  22  23
ATOM     23  C   UNL     1      -0.450  10.706  18.593  0.00  0.00    +0.000 A 
ATOM     24  C   UNL     1      -1.182  10.040  17.606  0.00  0.00    +0.000 A 
ATOM     25  C   UNL     1      -2.534  10.337  17.427  0.00  0.00    +0.000 A 
ATOM     26  C   UNL     1      -3.163  11.270  18.259  0.00  0.00    +0.000 A 
ATOM     27  C   UNL     1      -2.438  11.941  19.251  0.00  0.00    +0.000 A 
ATOM     28  C   UNL     1      -1.061  11.708  19.347  0.00  0.00    +0.000 A 
BRANCH  27  29
ATOM     29  C   UNL     1      -3.111  12.917  20.180  0.00  0.00    +0.000 C 
BRANCH  29  30
ATOM     30  O   UNL     1      -4.368  13.339  19.657  0.00  0.00    +0.000 OA
ATOM     31  H   UNL     1      -4.974  12.579  19.717  0.00  0.00    +0.000 HD
ENDBRANCH  29  30
ENDBRANCH  27  29
ENDBRANCH  22  23
ENDBRANCH   5  22
TORSDOF 6
ENDMDL
MODEL 5
REMARK VINA RESULT:      -8.4      5.293      8.352
REMARK  Name = 
REMARK  7 active torsions:
REMARK  status: ('A' for Active; 'I' for Inactive)
REMARK    1  A    between atoms: C_1  and  C_2
REMARK    2  A    between atoms: C_6  and  C_7
REMARK    3  A    between atoms: C_15  and  C_16
REMARK    4  A    between atoms: C_20  and  O_21
REMARK    5  A    between atoms: O_21  and  C_22
REMARK    6  A    between atoms: C_26  and  C_27
REMARK    7  A    between atoms: C_27  and  O_28
REMARK                            x       y       z     vdW  Elec       q    Type
REMARK                         _______ _______ _______ _____ _____    ______ ____
ROOT
ATOM      1  C   UNL     1       1.698   7.883  19.844  0.00  0.00    +0.000 A 
ATOM      2  C   UNL     1       1.565   7.950  21.241  0.00  0.00    +0.000 A 
ATOM      3  C   UNL     1       0.865   8.989  21.875  0.00  0.00    +0.000 A 
ATOM      4  C   UNL     1       0.330  10.036  21.132  0.00  0.00    +0.000 A 
ATOM      5  C   UNL     1       0.459  10.030  19.749  0.00  0.00    +0.000 A 
ATOM      6  C   UNL     1       1.120   8.955  19.129  0.00  0.00    +0.000 A 
ENDROOT
BRANCH   1  17
ATOM      7  C   UNL     1       3.582   8.297  17.422  0.00  0.00    +0.000 C 
ATOM      8  C   UNL     1       3.275   6.968  18.053  0.00  0.00    +0.000 A 
ATOM      9  C   UNL     1       3.949   5.874  17.525  0.00  0.00    +0.000 A 
ATOM     10  N   UNL     1       3.832   4.613  17.965  0.00  0.00    +0.000 NA
ATOM     11  C   UNL     1       2.978   4.344  18.949  0.00  0.00    +0.000 A 
ATOM     12  C   UNL     1       2.886   3.019  19.392  0.00  0.00    +0.000 A 
ATOM     13  C   UNL     1       2.003   2.670  20.430  0.00  0.00    +0.000 A 
ATOM     14  C   UNL     1       1.165   3.618  20.978  0.00  0.00    +0.000 A 
ATOM     15  C   UNL     1       1.229   4.926  20.511  0.00  0.00    +0.000 A 
ATOM     16  C   UNL     1       2.172   5.355  19.538  0.00  0.00    +0.000 A 
ATOM     17  C   UNL     1       2.363   6.736  19.116  0.00  0.00    +0.000 A 
BRANCH  12  18
ATOM     18  C   UNL     1       3.727   1.914  18.809  0.00  0.00    +0.000 C 
ATOM     19  F   UNL     1       3.204   0.660  18.760  0.00  0.00    +0.000 F 
ATOM     20  F   UNL     1       4.101   2.193  17.521  0.00  0.00    +0.000 F 
ATOM     21  F   UNL     1       4.907   1.783  19.491  0.00  0.00    +0.000 F 
ENDBRANCH  12  18
ENDBRANCH   1  17
BRANCH   5  22
ATOM     22  O   UNL     1      -0.049  11.137  19.095  0.00  0.00    +0.000 OA
BRANCH  22  23
ATOM     23  C   UNL     1      -1.277  11.067  18.483  0.00  0.00    +0.000 A 
ATOM     24  C   UNL     1      -2.355  11.675  19.132  0.00  0.00    +0.000 A 
ATOM     25  C   UNL     1      -3.620  11.655  18.542  0.00  0.00    +0.000 A 
ATOM     26  C   UNL     1      -3.799  11.063  17.287  0.00  0.00    +0.000 A 
ATOM     27  C   UNL     1      -2.724  10.453  16.629  0.00  0.00    +0.000 A 
ATOM     28  C   UNL     1      -1.488  10.390  17.282  0.00  0.00    +0.000 A 
BRANCH  27  29
ATOM     29  C   UNL     1      -2.893   9.848  15.260  0.00  0.00    +0.000 C 
BRANCH  29  30
ATOM     30  O   UNL     1      -4.208  10.074  14.758  0.00  0.00    +0.000 OA
ATOM     31  H   UNL     1      -4.117  10.344  13.827  0.00  0.00    +0.000 HD
ENDBRANCH  29  30
ENDBRANCH  27  29
ENDBRANCH  22  23
ENDBRANCH   5  22
TORSDOF 6
ENDMDL
MODEL 6
REMARK VINA RESULT:      -8.4      5.422      8.762
REMARK  Name = 
REMARK  7 active torsions:
REMARK  status: ('A' for Active; 'I' for Inactive)
REMARK    1  A    between atoms: C_1  and  C_2
REMARK    2  A    between atoms: C_6  and  C_7
REMARK    3  A    between atoms: C_15  and  C_16
REMARK    4  A    between atoms: C_20  and  O_21
REMARK    5  A    between atoms: O_21  and  C_22
REMARK    6  A    between atoms: C_26  and  C_27
REMARK    7  A    between atoms: C_27  and  O_28
REMARK                            x       y       z     vdW  Elec       q    Type
REMARK                         _______ _______ _______ _____ _____    ______ ____
ROOT
ATOM      1  C   UNL     1       1.792   7.835  19.690  0.00  0.00    +0.000 A 
ATOM      2  C   UNL     1       1.707   7.980  21.085  0.00  0.00    +0.000 A 
ATOM      3  C   UNL     1       1.010   9.041  21.684  0.00  0.00    +0.000 A 
ATOM      4  C   UNL     1       0.428  10.034  20.903  0.00  0.00    +0.000 A 
ATOM      5  C   UNL     1       0.508   9.951  19.519  0.00  0.00    +0.000 A 
ATOM      6  C   UNL     1       1.167   8.854  18.937  0.00  0.00    +0.000 A 
ENDROOT
BRANCH   1  17
ATOM      7  C   UNL     1       3.764   8.162  17.326  0.00  0.00    +0.000 C 
ATOM      8  C   UNL     1       3.405   6.852  17.968  0.00  0.00    +0.000 A 
ATOM      9  C   UNL     1       4.070   5.734  17.483  0.00  0.00    +0.000 A 
ATOM     10  N   UNL     1       3.909   4.484  17.940  0.00  0.00    +0.000 NA
ATOM     11  C   UNL     1       3.017   4.252  18.899  0.00  0.00    +0.000 A 
ATOM     12  C   UNL     1       2.879   2.938  19.362  0.00  0.00    +0.000 A 
ATOM     13  C   UNL     1       1.955   2.628  20.375  0.00  0.00    +0.000 A 
ATOM     14  C   UNL     1       1.121   3.604  20.878  0.00  0.00    +0.000 A 
ATOM     15  C   UNL     1       1.231   4.903  20.392  0.00  0.00    +0.000 A 
ATOM     16  C   UNL     1       2.216   5.292  19.443  0.00  0.00    +0.000 A 
ATOM     17  C   UNL     1       2.454   6.661  19.004  0.00  0.00    +0.000 A 
BRANCH  12  18
ATOM     18  C   UNL     1       3.713   1.803  18.826  0.00  0.00    +0.000 C 
ATOM     19  F   UNL     1       4.231   1.916  17.574  0.00  0.00    +0.000 F 
ATOM     20  F   UNL     1       4.789   1.546  19.633  0.00  0.00    +0.000 F 
ATOM     21  F   UNL     1       3.001   0.634  18.815  0.00  0.00    +0.000 F 
ENDBRANCH  12  18
ENDBRANCH   1  17
BRANCH   5  22
ATOM     22  O   UNL     1      -0.045  11.009  18.822  0.00  0.00    +0.000 OA
BRANCH  22  23
ATOM     23  C   UNL     1      -1.345  10.936  18.382  0.00  0.00    +0.000 A 
ATOM     24  C   UNL     1      -1.626  10.032  17.353  0.00  0.00    +0.000 A 
ATOM     25  C   UNL     1      -2.935   9.901  16.886  0.00  0.00    +0.000 A 
ATOM     26  C   UNL     1      -3.967  10.642  17.471  0.00  0.00    +0.000 A 
ATOM     27  C   UNL     1      -3.694  11.548  18.504  0.00  0.00    +0.000 A 
ATOM     28  C   UNL     1      -2.363  11.744  18.888  0.00  0.00    +0.000 A 
BRANCH  27  29
ATOM     29  C   UNL     1      -4.800  12.322  19.171  0.00  0.00    +0.000 C 
BRANCH  29  30
ATOM     30  O   UNL     1      -4.285  13.450  19.874  0.00  0.00    +0.000 OA
ATOM     31  H   UNL     1      -3.737  13.109  20.602  0.00  0.00    +0.000 HD
ENDBRANCH  29  30
ENDBRANCH  27  29
ENDBRANCH  22  23
ENDBRANCH   5  22
TORSDOF 6
ENDMDL
MODEL 7
REMARK VINA RESULT:      -8.3      4.924      8.460
REMARK  Name = 
REMARK  7 active torsions:
REMARK  status: ('A' for Active; 'I' for Inactive)
REMARK    1  A    between atoms: C_1  and  C_2
REMARK    2  A    between atoms: C_6  and  C_7
REMARK    3  A    between atoms: C_15  and  C_16
REMARK    4  A    between atoms: C_20  and  O_21
REMARK    5  A    between atoms: O_21  and  C_22
REMARK    6  A    between atoms: C_26  and  C_27
REMARK    7  A    between atoms: C_27  and  O_28
REMARK                            x       y       z     vdW  Elec       q    Type
REMARK                         _______ _______ _______ _____ _____    ______ ____
ROOT
ATOM      1  C   UNL     1       1.148   8.856  20.456  0.00  0.00    +0.000 A 
ATOM      2  C   UNL     1       1.107   8.602  21.837  0.00  0.00    +0.000 A 
ATOM      3  C   UNL     1       0.339   9.382  22.716  0.00  0.00    +0.000 A 
ATOM      4  C   UNL     1      -0.365  10.487  22.249  0.00  0.00    +0.000 A 
ATOM      5  C   UNL     1      -0.334  10.796  20.896  0.00  0.00    +0.000 A 
ATOM      6  C   UNL     1       0.401   9.974  20.024  0.00  0.00    +0.000 A 
ENDROOT
BRANCH   1  17
ATOM      7  C   UNL     1       2.281   9.946  17.788  0.00  0.00    +0.000 C 
ATOM      8  C   UNL     1       2.454   8.537  18.281  0.00  0.00    +0.000 A 
ATOM      9  C   UNL     1       3.234   7.707  17.488  0.00  0.00    +0.000 A 
ATOM     10  N   UNL     1       3.526   6.428  17.767  0.00  0.00    +0.000 NA
ATOM     11  C   UNL     1       3.007   5.865  18.855  0.00  0.00    +0.000 A 
ATOM     12  C   UNL     1       3.339   4.532  19.125  0.00  0.00    +0.000 A 
ATOM     13  C   UNL     1       2.824   3.879  20.259  0.00  0.00    +0.000 A 
ATOM     14  C   UNL     1       1.928   4.524  21.084  0.00  0.00    +0.000 A 
ATOM     15  C   UNL     1       1.568   5.837  20.796  0.00  0.00    +0.000 A 
ATOM     16  C   UNL     1       2.136   6.576  19.723  0.00  0.00    +0.000 A 
ATOM     17  C   UNL     1       1.888   7.988  19.462  0.00  0.00    +0.000 A 
BRANCH  12  18
ATOM     18  C   UNL     1       4.268   3.739  18.243  0.00  0.00    +0.000 C 
ATOM     19  F   UNL     1       4.114   3.828  16.894  0.00  0.00    +0.000 F 
ATOM     20  F   UNL     1       5.579   4.064  18.472  0.00  0.00    +0.000 F 
ATOM     21  F   UNL     1       4.190   2.402  18.524  0.00  0.00    +0.000 F 
ENDBRANCH  12  18
ENDBRANCH   1  17
BRANCH   5  22
ATOM     22  O   UNL     1      -1.011  11.943  20.527  0.00  0.00    +0.000 OA
BRANCH  22  23
ATOM     23  C   UNL     1      -2.151  11.852  19.765  0.00  0.00    +0.000 A 
ATOM     24  C   UNL     1      -3.311  12.446  20.269  0.00  0.00    +0.000 A 
ATOM     25  C   UNL     1      -4.491  12.403  19.523  0.00  0.00    +0.000 A 
ATOM     26  C   UNL     1      -4.500  11.802  18.260  0.00  0.00    +0.000 A 
ATOM     27  C   UNL     1      -3.342  11.206  17.747  0.00  0.00    +0.000 A 
ATOM     28  C   UNL     1      -2.198  11.165  18.552  0.00  0.00    +0.000 A 
BRANCH  27  29
ATOM     29  C   UNL     1      -3.327  10.591  16.372  0.00  0.00    +0.000 C 
BRANCH  29  30
ATOM     30  O   UNL     1      -3.211  11.592  15.364  0.00  0.00    +0.000 OA
ATOM     31  H   UNL     1      -3.296  11.144  14.504  0.00  0.00    +0.000 HD
ENDBRANCH  29  30
ENDBRANCH  27  29
ENDBRANCH  22  23
ENDBRANCH   5  22
TORSDOF 6
ENDMDL
MODEL 8
REMARK VINA RESULT:      -8.2      5.243      8.593
REMARK  Name = 
REMARK  7 active torsions:
REMARK  status: ('A' for Active; 'I' for Inactive)
REMARK    1  A    between atoms: C_1  and  C_2
REMARK    2  A    between atoms: C_6  and  C_7
REMARK    3  A    between atoms: C_15  and  C_16
REMARK    4  A    between atoms: C_20  and  O_21
REMARK    5  A    between atoms: O_21  and  C_22
REMARK    6  A    between atoms: C_26  and  C_27
REMARK    7  A    between atoms: C_27  and  O_28
REMARK                            x       y       z     vdW  Elec       q    Type
REMARK                         _______ _______ _______ _____ _____    ______ ____
ROOT
ATOM      1  C   UNL     1       1.161   8.703  20.305  0.00  0.00    +0.000 A 
ATOM      2  C   UNL     1       1.147   8.586  21.704  0.00  0.00    +0.000 A 
ATOM      3  C   UNL     1       0.333   9.396  22.512  0.00  0.00    +0.000 A 
ATOM      4  C   UNL     1      -0.449  10.398  21.948  0.00  0.00    +0.000 A 
ATOM      5  C   UNL     1      -0.449  10.572  20.570  0.00  0.00    +0.000 A 
ATOM      6  C   UNL     1       0.335   9.719  19.774  0.00  0.00    +0.000 A 
ENDROOT
BRANCH   1  17
ATOM      7  C   UNL     1       2.434   9.674  17.654  0.00  0.00    +0.000 C 
ATOM      8  C   UNL     1       2.580   8.289  18.218  0.00  0.00    +0.000 A 
ATOM      9  C   UNL     1       3.401   7.426  17.506  0.00  0.00    +0.000 A 
ATOM     10  N   UNL     1       3.678   6.162  17.858  0.00  0.00    +0.000 NA
ATOM     11  C   UNL     1       3.102   5.647  18.941  0.00  0.00    +0.000 A 
ATOM     12  C   UNL     1       3.419   4.329  19.288  0.00  0.00    +0.000 A 
ATOM     13  C   UNL     1       2.845   3.727  20.421  0.00  0.00    +0.000 A 
ATOM     14  C   UNL     1       1.906   4.407  21.169  0.00  0.00    +0.000 A 
ATOM     15  C   UNL     1       1.562   5.703  20.803  0.00  0.00    +0.000 A 
ATOM     16  C   UNL     1       2.186   6.395  19.728  0.00  0.00    +0.000 A 
ATOM     17  C   UNL     1       1.953   7.793  19.392  0.00  0.00    +0.000 A 
BRANCH  12  18
ATOM     18  C   UNL     1       4.394   3.499  18.493  0.00  0.00    +0.000 C 
ATOM     19  F   UNL     1       4.181   3.353  17.157  0.00  0.00    +0.000 F 
ATOM     20  F   UNL     1       5.670   3.985  18.597  0.00  0.00    +0.000 F 
ATOM     21  F   UNL     1       4.468   2.224  18.985  0.00  0.00    +0.000 F 
ENDBRANCH  12  18
ENDBRANCH   1  17
BRANCH   5  22
ATOM     22  O   UNL     1      -1.206  11.628  20.099  0.00  0.00    +0.000 OA
BRANCH  22  23
ATOM     23  C   UNL     1      -2.074  11.435  19.051  0.00  0.00    +0.000 A 
ATOM     24  C   UNL     1      -1.568  10.822  17.901  0.00  0.00    +0.000 A 
ATOM     25  C   UNL     1      -2.412  10.581  16.816  0.00  0.00    +0.000 A 
ATOM     26  C   UNL     1      -3.768  10.917  16.895  0.00  0.00    +0.000 A 
ATOM     27  C   UNL     1      -4.284  11.530  18.043  0.00  0.00    +0.000 A 
ATOM     28  C   UNL     1      -3.402  11.859  19.078  0.00  0.00    +0.000 A 
BRANCH  27  29
ATOM     29  C   UNL     1      -5.748  11.859  18.157  0.00  0.00    +0.000 C 
BRANCH  29  30
ATOM     30  O   UNL     1      -6.337  12.035  16.870  0.00  0.00    +0.000 OA
ATOM     31  H   UNL     1      -6.164  12.953  16.599  0.00  0.00    +0.000 HD
ENDBRANCH  29  30
ENDBRANCH  27  29
ENDBRANCH  22  23
ENDBRANCH   5  22
TORSDOF 6
ENDMDL
MODEL 9
REMARK VINA RESULT:      -8.2      1.451      2.182
REMARK  Name = 
REMARK  7 active torsions:
REMARK  status: ('A' for Active; 'I' for Inactive)
REMARK    1  A    between atoms: C_1  and  C_2
REMARK    2  A    between atoms: C_6  and  C_7
REMARK    3  A    between atoms: C_15  and  C_16
REMARK    4  A    between atoms: C_20  and  O_21
REMARK    5  A    between atoms: O_21  and  C_22
REMARK    6  A    between atoms: C_26  and  C_27
REMARK    7  A    between atoms: C_27  and  O_28
REMARK                            x       y       z     vdW  Elec       q    Type
REMARK                         _______ _______ _______ _____ _____    ______ ____
ROOT
ATOM      1  C   UNL     1       1.744   7.309  19.832  0.00  0.00    +0.000 A 
ATOM      2  C   UNL     1       1.501   6.438  20.907  0.00  0.00    +0.000 A 
ATOM      3  C   UNL     1       1.923   5.099  20.892  0.00  0.00    +0.000 A 
ATOM      4  C   UNL     1       2.547   4.567  19.768  0.00  0.00    +0.000 A 
ATOM      5  C   UNL     1       2.785   5.381  18.669  0.00  0.00    +0.000 A 
ATOM      6  C   UNL     1       2.399   6.732  18.722  0.00  0.00    +0.000 A 
ENDROOT
BRANCH   1  17
ATOM      7  C   UNL     1       2.283   9.187  17.430  0.00  0.00    +0.000 C 
ATOM      8  C   UNL     1       1.587   9.595  18.698  0.00  0.00    +0.000 A 
ATOM      9  C   UNL     1       1.111  10.898  18.738  0.00  0.00    +0.000 A 
ATOM     10  N   UNL     1       0.443  11.442  19.766  0.00  0.00    +0.000 NA
ATOM     11  C   UNL     1       0.245  10.721  20.867  0.00  0.00    +0.000 A 
ATOM     12  C   UNL     1      -0.464  11.314  21.918  0.00  0.00    +0.000 A 
ATOM     13  C   UNL     1      -0.708  10.605  23.108  0.00  0.00    +0.000 A 
ATOM     14  C   UNL     1      -0.189   9.339  23.282  0.00  0.00    +0.000 A 
ATOM     15  C   UNL     1       0.548   8.765  22.252  0.00  0.00    +0.000 A 
ATOM     16  C   UNL     1       0.737   9.395  20.992  0.00  0.00    +0.000 A 
ATOM     17  C   UNL     1       1.388   8.779  19.843  0.00  0.00    +0.000 A 
BRANCH  12  18
ATOM     18  C   UNL     1      -1.017  12.713  21.830  0.00  0.00    +0.000 C 
ATOM     19  F   UNL     1      -0.171  13.724  21.498  0.00  0.00    +0.000 F 
ATOM     20  F   UNL     1      -2.039  12.793  20.922  0.00  0.00    +0.000 F 
ATOM     21  F   UNL     1      -1.580  13.094  23.018  0.00  0.00    +0.000 F 
ENDBRANCH  12  18
ENDBRANCH   1  17
BRANCH   5  22
ATOM     22  O   UNL     1       3.354   4.758  17.574  0.00  0.00    +0.000 OA
BRANCH  22  23
ATOM     23  C   UNL     1       4.720   4.755  17.420  0.00  0.00    +0.000 A 
ATOM     24  C   UNL     1       5.234   4.186  16.252  0.00  0.00    +0.000 A 
ATOM     25  C   UNL     1       6.613   4.179  16.034  0.00  0.00    +0.000 A 
ATOM     26  C   UNL     1       7.473   4.774  16.963  0.00  0.00    +0.000 A 
ATOM     27  C   UNL     1       6.965   5.348  18.136  0.00  0.00    +0.000 A 
ATOM     28  C   UNL     1       5.592   5.252  18.387  0.00  0.00    +0.000 A 
BRANCH  27  29
ATOM     29  C   UNL     1       7.875   6.028  19.125  0.00  0.00    +0.000 C 
BRANCH  29  30
ATOM     30  O   UNL     1       7.850   5.363  20.386  0.00  0.00    +0.000 OA
ATOM     31  H   UNL     1       8.284   4.500  20.264  0.00  0.00    +0.000 HD
ENDBRANCH  29  30
ENDBRANCH  27  29
ENDBRANCH  22  23
ENDBRANCH   5  22
TORSDOF 6
ENDMDL
