MODEL 1
REMARK VINA RESULT:      -6.8      0.000      0.000
REMARK  Name = 
REMARK  10 active torsions:
REMARK  status: ('A' for Active; 'I' for Inactive)
REMARK    1  A    between atoms: C_1  and  O_2
REMARK    2  A    between atoms: O_2  and  C_3
REMARK    3  A    between atoms: C_3  and  C_4
REMARK    4  A    between atoms: C_4  and  C_5
REMARK    5  A    between atoms: C_4  and  N_6
REMARK    6  A    between atoms: C_7  and  C_9
REMARK    7  A    between atoms: C_9  and  N_10
REMARK    8  A    between atoms: N_10  and  C_11
REMARK    9  A    between atoms: C_16  and  O_17
REMARK   10  A    between atoms: O_17  and  C_18
REMARK                            x       y       z     vdW  Elec       q    Type
REMARK                         _______ _______ _______ _____ _____    ______ ____
ROOT
ATOM      1  N   UNL     1       5.567   3.797  16.251  0.00  0.00    +0.000 N 
ATOM      2  H   UNL     1       5.736   2.976  16.839  0.00  0.00    +0.000 HD
ENDROOT
BRANCH   1   3
ATOM      3  C   UNL     1       4.588   4.599  16.873  0.00  0.00    +0.000 A 
ATOM      4  C   UNL     1       4.704   5.997  16.962  0.00  0.00    +0.000 A 
ATOM      5  C   UNL     1       3.740   6.779  17.612  0.00  0.00    +0.000 A 
ATOM      6  C   UNL     1       2.619   6.185  18.177  0.00  0.00    +0.000 A 
ATOM      7  C   UNL     1       2.483   4.804  18.112  0.00  0.00    +0.000 A 
ATOM      8  C   UNL     1       3.466   4.011  17.503  0.00  0.00    +0.000 A 
BRANCH   8   9
ATOM      9  O   UNL     1       3.149   2.681  17.521  0.00  0.00    +0.000 OA
BRANCH   9  10
ATOM     10  C   UNL     1       3.389   1.965  18.719  0.00  0.00    +0.000 C 
ATOM     11  F   UNL     1       2.243   1.742  19.417  0.00  0.00    +0.000 F 
ATOM     12  F   UNL     1       3.848   0.737  18.359  0.00  0.00    +0.000 F 
ENDBRANCH   9  10
ENDBRANCH   8   9
ENDBRANCH   1   3
BRANCH   1  13
ATOM     13  C   UNL     1       6.841   4.393  15.812  0.00  0.00    +0.000 C 
BRANCH  13  15
ATOM     14  N   UNL     1       6.178   3.460  13.640  0.00  0.00    +0.000 N 
ATOM     15  C   UNL     1       6.910   4.449  14.274  0.00  0.00    +0.000 C 
ATOM     16  O   UNL     1       7.531   5.316  13.662  0.00  0.00    +0.000 OA
ATOM     17  H   UNL     1       5.760   2.726  14.199  0.00  0.00    +0.000 HD
BRANCH  14  18
ATOM     18  C   UNL     1       6.098   3.345  12.182  0.00  0.00    +0.000 C 
ATOM     19  C   UNL     1       4.629   3.361  11.756  0.00  0.00    +0.000 C 
BRANCH  18  20
ATOM     20  C   UNL     1       6.818   2.085  11.651  0.00  0.00    +0.000 C 
BRANCH  20  22
ATOM     21  C   UNL     1       6.160  -0.162  11.281  0.00  0.00    +0.000 C 
ATOM     22  O   UNL     1       5.867   1.208  11.041  0.00  0.00    +0.000 OA
ENDBRANCH  20  22
ENDBRANCH  18  20
ENDBRANCH  14  18
ENDBRANCH  13  15
ENDBRANCH   1  13
TORSDOF 8
ENDMDL
MODEL 2
REMARK VINA RESULT:      -6.4      4.139      6.096
REMARK  Name = 
REMARK  10 active torsions:
REMARK  status: ('A' for Active; 'I' for Inactive)
REMARK    1  A    between atoms: C_1  and  O_2
REMARK    2  A    between atoms: O_2  and  C_3
REMARK    3  A    between atoms: C_3  and  C_4
REMARK    4  A    between atoms: C_4  and  C_5
REMARK    5  A    between atoms: C_4  and  N_6
REMARK    6  A    between atoms: C_7  and  C_9
REMARK    7  A    between atoms: C_9  and  N_10
REMARK    8  A    between atoms: N_10  and  C_11
REMARK    9  A    between atoms: C_16  and  O_17
REMARK   10  A    between atoms: O_17  and  C_18
REMARK                            x       y       z     vdW  Elec       q    Type
REMARK                         _______ _______ _______ _____ _____    ______ ____
ROOT
ATOM      1  N   UNL     1       2.988   6.240  20.038  0.00  0.00    +0.000 N 
ATOM      2  H   UNL     1       3.864   6.520  20.487  0.00  0.00    +0.000 HD
ENDROOT
BRANCH   1   3
ATOM      3  C   UNL     1       2.403   7.378  19.445  0.00  0.00    +0.000 A 
ATOM      4  C   UNL     1       2.601   7.710  18.094  0.00  0.00    +0.000 A 
ATOM      5  C   UNL     1       2.040   8.863  17.526  0.00  0.00    +0.000 A 
ATOM      6  C   UNL     1       1.250   9.709  18.292  0.00  0.00    +0.000 A 
ATOM      7  C   UNL     1       1.047   9.411  19.633  0.00  0.00    +0.000 A 
ATOM      8  C   UNL     1       1.640   8.284  20.219  0.00  0.00    +0.000 A 
BRANCH   8   9
ATOM      9  O   UNL     1       1.311   8.147  21.540  0.00  0.00    +0.000 OA
BRANCH   9  10
ATOM     10  C   UNL     1       0.174   8.850  22.008  0.00  0.00    +0.000 C 
ATOM     11  F   UNL     1      -0.961   8.109  21.907  0.00  0.00    +0.000 F 
ATOM     12  F   UNL     1       0.362   9.059  23.339  0.00  0.00    +0.000 F 
ENDBRANCH   9  10
ENDBRANCH   8   9
ENDBRANCH   1   3
BRANCH   1  13
ATOM     13  C   UNL     1       3.178   5.011  19.248  0.00  0.00    +0.000 C 
BRANCH  13  15
ATOM     14  N   UNL     1       5.366   5.591  18.298  0.00  0.00    +0.000 N 
ATOM     15  C   UNL     1       4.678   4.693  19.094  0.00  0.00    +0.000 C 
ATOM     16  O   UNL     1       5.222   3.745  19.657  0.00  0.00    +0.000 OA
ATOM     17  H   UNL     1       4.845   6.299  17.794  0.00  0.00    +0.000 HD
BRANCH  14  18
ATOM     18  C   UNL     1       6.802   5.479  18.036  0.00  0.00    +0.000 C 
ATOM     19  C   UNL     1       7.396   6.879  17.875  0.00  0.00    +0.000 C 
BRANCH  18  20
ATOM     20  C   UNL     1       7.109   4.598  16.803  0.00  0.00    +0.000 C 
BRANCH  20  22
ATOM     21  C   UNL     1       6.999   4.809  14.445  0.00  0.00    +0.000 C 
ATOM     22  O   UNL     1       7.366   5.431  15.669  0.00  0.00    +0.000 OA
ENDBRANCH  20  22
ENDBRANCH  18  20
ENDBRANCH  14  18
ENDBRANCH  13  15
ENDBRANCH   1  13
TORSDOF 8
ENDMDL
MODEL 3
REMARK VINA RESULT:      -6.4      2.848      4.379
REMARK  Name = 
REMARK  10 active torsions:
REMARK  status: ('A' for Active; 'I' for Inactive)
REMARK    1  A    between atoms: C_1  and  O_2
REMARK    2  A    between atoms: O_2  and  C_3
REMARK    3  A    between atoms: C_3  and  C_4
REMARK    4  A    between atoms: C_4  and  C_5
REMARK    5  A    between atoms: C_4  and  N_6
REMARK    6  A    between atoms: C_7  and  C_9
REMARK    7  A    between atoms: C_9  and  N_10
REMARK    8  A    between atoms: N_10  and  C_11
REMARK    9  A    between atoms: C_16  and  O_17
REMARK   10  A    between atoms: O_17  and  C_18
REMARK                            x       y       z     vdW  Elec       q    Type
REMARK                         _______ _______ _______ _____ _____    ______ ____
ROOT
ATOM      1  N   UNL     1       2.192   3.807  17.613  0.00  0.00    +0.000 N 
ATOM      2  H   UNL     1       1.284   3.357  17.470  0.00  0.00    +0.000 HD
ENDROOT
BRANCH   1   3
ATOM      3  C   UNL     1       2.040   4.829  18.573  0.00  0.00    +0.000 A 
ATOM      4  C   UNL     1       2.518   6.134  18.366  0.00  0.00    +0.000 A 
ATOM      5  C   UNL     1       2.391   7.132  19.342  0.00  0.00    +0.000 A 
ATOM      6  C   UNL     1       1.764   6.855  20.550  0.00  0.00    +0.000 A 
ATOM      7  C   UNL     1       1.292   5.570  20.786  0.00  0.00    +0.000 A 
ATOM      8  C   UNL     1       1.455   4.556  19.832  0.00  0.00    +0.000 A 
BRANCH   8   9
ATOM      9  O   UNL     1       0.911   3.368  20.234  0.00  0.00    +0.000 OA
BRANCH   9  10
ATOM     10  C   UNL     1       1.677   2.557  21.107  0.00  0.00    +0.000 C 
ATOM     11  F   UNL     1       2.892   3.105  21.374  0.00  0.00    +0.000 F 
ATOM     12  F   UNL     1       1.016   2.524  22.295  0.00  0.00    +0.000 F 
ENDBRANCH   9  10
ENDBRANCH   8   9
ENDBRANCH   1   3
BRANCH   1  13
ATOM     13  C   UNL     1       3.253   2.798  17.769  0.00  0.00    +0.000 C 
BRANCH  13  15
ATOM     14  N   UNL     1       5.126   4.276  17.192  0.00  0.00    +0.000 N 
ATOM     15  C   UNL     1       4.581   3.466  18.173  0.00  0.00    +0.000 C 
ATOM     16  O   UNL     1       5.094   3.322  19.280  0.00  0.00    +0.000 OA
ATOM     17  H   UNL     1       4.701   4.285  16.272  0.00  0.00    +0.000 HD
BRANCH  14  18
ATOM     18  C   UNL     1       6.376   5.015  17.379  0.00  0.00    +0.000 C 
ATOM     19  C   UNL     1       6.095   6.515  17.273  0.00  0.00    +0.000 C 
BRANCH  18  20
ATOM     20  C   UNL     1       7.472   4.582  16.378  0.00  0.00    +0.000 C 
BRANCH  20  22
ATOM     21  C   UNL     1       6.907   4.777  14.085  0.00  0.00    +0.000 C 
ATOM     22  O   UNL     1       7.437   5.433  15.228  0.00  0.00    +0.000 OA
ENDBRANCH  20  22
ENDBRANCH  18  20
ENDBRANCH  14  18
ENDBRANCH  13  15
ENDBRANCH   1  13
TORSDOF 8
ENDMDL
MODEL 4
REMARK VINA RESULT:      -6.3      2.761      4.090
REMARK  Name = 
REMARK  10 active torsions:
REMARK  status: ('A' for Active; 'I' for Inactive)
REMARK    1  A    between atoms: C_1  and  O_2
REMARK    2  A    between atoms: O_2  and  C_3
REMARK    3  A    between atoms: C_3  and  C_4
REMARK    4  A    between atoms: C_4  and  C_5
REMARK    5  A    between atoms: C_4  and  N_6
REMARK    6  A    between atoms: C_7  and  C_9
REMARK    7  A    between atoms: C_9  and  N_10
REMARK    8  A    between atoms: N_10  and  C_11
REMARK    9  A    between atoms: C_16  and  O_17
REMARK   10  A    between atoms: O_17  and  C_18
REMARK                            x       y       z     vdW  Elec       q    Type
REMARK                         _______ _______ _______ _____ _____    ______ ____
ROOT
ATOM      1  N   UNL     1       5.053   3.583  19.256  0.00  0.00    +0.000 N 
ATOM      2  H   UNL     1       5.566   2.783  19.636  0.00  0.00    +0.000 HD
ENDROOT
BRANCH   1   3
ATOM      3  C   UNL     1       3.713   3.503  19.687  0.00  0.00    +0.000 A 
ATOM      4  C   UNL     1       3.310   2.673  20.748  0.00  0.00    +0.000 A 
ATOM      5  C   UNL     1       1.970   2.578  21.145  0.00  0.00    +0.000 A 
ATOM      6  C   UNL     1       0.993   3.326  20.501  0.00  0.00    +0.000 A 
ATOM      7  C   UNL     1       1.360   4.146  19.442  0.00  0.00    +0.000 A 
ATOM      8  C   UNL     1       2.693   4.212  19.010  0.00  0.00    +0.000 A 
BRANCH   8   9
ATOM      9  O   UNL     1       2.863   5.085  17.971  0.00  0.00    +0.000 OA
BRANCH   9  10
ATOM     10  C   UNL     1       2.659   6.462  18.230  0.00  0.00    +0.000 C 
ATOM     11  F   UNL     1       3.028   6.801  19.494  0.00  0.00    +0.000 F 
ATOM     12  F   UNL     1       3.494   7.146  17.404  0.00  0.00    +0.000 F 
ENDBRANCH   9  10
ENDBRANCH   8   9
ENDBRANCH   1   3
BRANCH   1  13
ATOM     13  C   UNL     1       5.817   4.828  19.444  0.00  0.00    +0.000 C 
BRANCH  13  15
ATOM     14  N   UNL     1       5.932   4.604  17.002  0.00  0.00    +0.000 N 
ATOM     15  C   UNL     1       6.286   5.387  18.087  0.00  0.00    +0.000 C 
ATOM     16  O   UNL     1       6.890   6.451  17.974  0.00  0.00    +0.000 OA
ATOM     17  H   UNL     1       5.511   3.697  17.169  0.00  0.00    +0.000 HD
BRANCH  14  18
ATOM     18  C   UNL     1       6.267   4.963  15.623  0.00  0.00    +0.000 C 
ATOM     19  C   UNL     1       5.248   5.981  15.107  0.00  0.00    +0.000 C 
BRANCH  18  20
ATOM     20  C   UNL     1       6.341   3.730  14.694  0.00  0.00    +0.000 C 
BRANCH  20  22
ATOM     21  C   UNL     1       6.336   3.510  12.335  0.00  0.00    +0.000 C 
ATOM     22  O   UNL     1       5.645   4.003  13.475  0.00  0.00    +0.000 OA
ENDBRANCH  20  22
ENDBRANCH  18  20
ENDBRANCH  14  18
ENDBRANCH  13  15
ENDBRANCH   1  13
TORSDOF 8
ENDMDL
MODEL 5
REMARK VINA RESULT:      -6.3      3.714      5.841
REMARK  Name = 
REMARK  10 active torsions:
REMARK  status: ('A' for Active; 'I' for Inactive)
REMARK    1  A    between atoms: C_1  and  O_2
REMARK    2  A    between atoms: O_2  and  C_3
REMARK    3  A    between atoms: C_3  and  C_4
REMARK    4  A    between atoms: C_4  and  C_5
REMARK    5  A    between atoms: C_4  and  N_6
REMARK    6  A    between atoms: C_7  and  C_9
REMARK    7  A    between atoms: C_9  and  N_10
REMARK    8  A    between atoms: N_10  and  C_11
REMARK    9  A    between atoms: C_16  and  O_17
REMARK   10  A    between atoms: O_17  and  C_18
REMARK                            x       y       z     vdW  Elec       q    Type
REMARK                         _______ _______ _______ _____ _____    ______ ____
ROOT
ATOM      1  N   UNL     1       4.294   3.135  17.479  0.00  0.00    +0.000 N 
ATOM      2  H   UNL     1       5.087   3.000  18.112  0.00  0.00    +0.000 HD
ENDROOT
BRANCH   1   3
ATOM      3  C   UNL     1       3.113   3.193  18.247  0.00  0.00    +0.000 A 
ATOM      4  C   UNL     1       2.198   2.127  18.304  0.00  0.00    +0.000 A 
ATOM      5  C   UNL     1       1.011   2.210  19.044  0.00  0.00    +0.000 A 
ATOM      6  C   UNL     1       0.713   3.359  19.766  0.00  0.00    +0.000 A 
ATOM      7  C   UNL     1       1.594   4.431  19.719  0.00  0.00    +0.000 A 
ATOM      8  C   UNL     1       2.762   4.372  18.945  0.00  0.00    +0.000 A 
BRANCH   8   9
ATOM      9  O   UNL     1       3.510   5.513  19.039  0.00  0.00    +0.000 OA
BRANCH   9  10
ATOM     10  C   UNL     1       2.936   6.716  18.558  0.00  0.00    +0.000 C 
ATOM     11  F   UNL     1       3.831   7.460  17.855  0.00  0.00    +0.000 F 
ATOM     12  F   UNL     1       1.969   6.362  17.670  0.00  0.00    +0.000 F 
ENDBRANCH   9  10
ENDBRANCH   8   9
ENDBRANCH   1   3
BRANCH   1  13
ATOM     13  C   UNL     1       4.588   4.192  16.496  0.00  0.00    +0.000 C 
BRANCH  13  15
ATOM     14  N   UNL     1       6.258   5.639  17.565  0.00  0.00    +0.000 N 
ATOM     15  C   UNL     1       6.054   4.652  16.617  0.00  0.00    +0.000 C 
ATOM     16  O   UNL     1       6.966   4.162  15.955  0.00  0.00    +0.000 OA
ATOM     17  H   UNL     1       5.454   6.060  18.015  0.00  0.00    +0.000 HD
BRANCH  14  18
ATOM     18  C   UNL     1       7.579   6.203  17.848  0.00  0.00    +0.000 C 
ATOM     19  C   UNL     1       7.976   5.861  19.285  0.00  0.00    +0.000 C 
BRANCH  18  20
ATOM     20  C   UNL     1       7.632   7.729  17.605  0.00  0.00    +0.000 C 
BRANCH  20  22
ATOM     21  C   UNL     1       8.605   9.746  18.383  0.00  0.00    +0.000 C 
ATOM     22  O   UNL     1       8.508   8.338  18.558  0.00  0.00    +0.000 OA
ENDBRANCH  20  22
ENDBRANCH  18  20
ENDBRANCH  14  18
ENDBRANCH  13  15
ENDBRANCH   1  13
TORSDOF 8
ENDMDL
MODEL 6
REMARK VINA RESULT:      -6.3      3.991      5.922
REMARK  Name = 
REMARK  10 active torsions:
REMARK  status: ('A' for Active; 'I' for Inactive)
REMARK    1  A    between atoms: C_1  and  O_2
REMARK    2  A    between atoms: O_2  and  C_3
REMARK    3  A    between atoms: C_3  and  C_4
REMARK    4  A    between atoms: C_4  and  C_5
REMARK    5  A    between atoms: C_4  and  N_6
REMARK    6  A    between atoms: C_7  and  C_9
REMARK    7  A    between atoms: C_9  and  N_10
REMARK    8  A    between atoms: N_10  and  C_11
REMARK    9  A    between atoms: C_16  and  O_17
REMARK   10  A    between atoms: O_17  and  C_18
REMARK                            x       y       z     vdW  Elec       q    Type
REMARK                         _______ _______ _______ _____ _____    ______ ____
ROOT
ATOM      1  N   UNL     1       3.577   4.867  17.387  0.00  0.00    +0.000 N 
ATOM      2  H   UNL     1       3.093   5.518  16.763  0.00  0.00    +0.000 HD
ENDROOT
BRANCH   1   3
ATOM      3  C   UNL     1       2.638   4.331  18.292  0.00  0.00    +0.000 A 
ATOM      4  C   UNL     1       1.906   3.164  18.015  0.00  0.00    +0.000 A 
ATOM      5  C   UNL     1       0.951   2.660  18.909  0.00  0.00    +0.000 A 
ATOM      6  C   UNL     1       0.714   3.303  20.117  0.00  0.00    +0.000 A 
ATOM      7  C   UNL     1       1.415   4.464  20.412  0.00  0.00    +0.000 A 
ATOM      8  C   UNL     1       2.339   4.998  19.503  0.00  0.00    +0.000 A 
BRANCH   8   9
ATOM      9  O   UNL     1       2.942   6.132  19.976  0.00  0.00    +0.000 OA
BRANCH   9  10
ATOM     10  C   UNL     1       2.336   7.374  19.667  0.00  0.00    +0.000 C 
ATOM     11  F   UNL     1       1.852   7.402  18.397  0.00  0.00    +0.000 F 
ATOM     12  F   UNL     1       1.253   7.497  20.480  0.00  0.00    +0.000 F 
ENDBRANCH   9  10
ENDBRANCH   8   9
ENDBRANCH   1   3
BRANCH   1  13
ATOM     13  C   UNL     1       4.459   3.970  16.620  0.00  0.00    +0.000 C 
BRANCH  13  15
ATOM     14  N   UNL     1       6.164   5.371  17.696  0.00  0.00    +0.000 N 
ATOM     15  C   UNL     1       5.918   4.462  16.681  0.00  0.00    +0.000 C 
ATOM     16  O   UNL     1       6.793   4.058  15.919  0.00  0.00    +0.000 OA
ATOM     17  H   UNL     1       5.383   5.728  18.233  0.00  0.00    +0.000 HD
BRANCH  14  18
ATOM     18  C   UNL     1       7.487   5.949  17.937  0.00  0.00    +0.000 C 
ATOM     19  C   UNL     1       7.864   5.750  19.406  0.00  0.00    +0.000 C 
BRANCH  18  20
ATOM     20  C   UNL     1       7.558   7.442  17.542  0.00  0.00    +0.000 C 
BRANCH  20  22
ATOM     21  C   UNL     1       8.436   9.541  18.205  0.00  0.00    +0.000 C 
ATOM     22  O   UNL     1       8.399   8.144  18.462  0.00  0.00    +0.000 OA
ENDBRANCH  20  22
ENDBRANCH  18  20
ENDBRANCH  14  18
ENDBRANCH  13  15
ENDBRANCH   1  13
TORSDOF 8
ENDMDL
MODEL 7
REMARK VINA RESULT:      -6.2      3.663      5.183
REMARK  Name = 
REMARK  10 active torsions:
REMARK  status: ('A' for Active; 'I' for Inactive)
REMARK    1  A    between atoms: C_1  and  O_2
REMARK    2  A    between atoms: O_2  and  C_3
REMARK    3  A    between atoms: C_3  and  C_4
REMARK    4  A    between atoms: C_4  and  C_5
REMARK    5  A    between atoms: C_4  and  N_6
REMARK    6  A    between atoms: C_7  and  C_9
REMARK    7  A    between atoms: C_9  and  N_10
REMARK    8  A    between atoms: N_10  and  C_11
REMARK    9  A    between atoms: C_16  and  O_17
REMARK   10  A    between atoms: O_17  and  C_18
REMARK                            x       y       z     vdW  Elec       q    Type
REMARK                         _______ _______ _______ _____ _____    ______ ____
ROOT
ATOM      1  N   UNL     1       3.275   6.012  19.956  0.00  0.00    +0.000 N 
ATOM      2  H   UNL     1       3.494   6.499  20.829  0.00  0.00    +0.000 HD
ENDROOT
BRANCH   1   3
ATOM      3  C   UNL     1       2.797   4.723  20.268  0.00  0.00    +0.000 A 
ATOM      4  C   UNL     1       2.108   4.443  21.461  0.00  0.00    +0.000 A 
ATOM      5  C   UNL     1       1.668   3.150  21.774  0.00  0.00    +0.000 A 
ATOM      6  C   UNL     1       1.889   2.100  20.892  0.00  0.00    +0.000 A 
ATOM      7  C   UNL     1       2.577   2.346  19.711  0.00  0.00    +0.000 A 
ATOM      8  C   UNL     1       3.060   3.628  19.412  0.00  0.00    +0.000 A 
BRANCH   8   9
ATOM      9  O   UNL     1       3.693   3.678  18.200  0.00  0.00    +0.000 OA
BRANCH   9  10
ATOM     10  C   UNL     1       2.899   3.527  17.038  0.00  0.00    +0.000 C 
ATOM     11  F   UNL     1       2.494   2.241  16.863  0.00  0.00    +0.000 F 
ATOM     12  F   UNL     1       1.764   4.248  17.240  0.00  0.00    +0.000 F 
ENDBRANCH   9  10
ENDBRANCH   8   9
ENDBRANCH   1   3
BRANCH   1  13
ATOM     13  C   UNL     1       2.507   6.886  19.052  0.00  0.00    +0.000 C 
BRANCH  13  15
ATOM     14  N   UNL     1       4.548   6.615  17.716  0.00  0.00    +0.000 N 
ATOM     15  C   UNL     1       3.381   7.342  17.868  0.00  0.00    +0.000 C 
ATOM     16  O   UNL     1       3.054   8.248  17.105  0.00  0.00    +0.000 OA
ATOM     17  H   UNL     1       4.801   5.940  18.427  0.00  0.00    +0.000 HD
BRANCH  14  18
ATOM     18  C   UNL     1       5.510   6.877  16.643  0.00  0.00    +0.000 C 
ATOM     19  C   UNL     1       5.240   5.920  15.480  0.00  0.00    +0.000 C 
BRANCH  18  20
ATOM     20  C   UNL     1       6.975   6.766  17.125  0.00  0.00    +0.000 C 
BRANCH  20  22
ATOM     21  C   UNL     1       7.674   4.603  17.793  0.00  0.00    +0.000 C 
ATOM     22  O   UNL     1       7.525   5.512  16.711  0.00  0.00    +0.000 OA
ENDBRANCH  20  22
ENDBRANCH  18  20
ENDBRANCH  14  18
ENDBRANCH  13  15
ENDBRANCH   1  13
TORSDOF 8
ENDMDL
MODEL 8
REMARK VINA RESULT:      -6.2      2.944      3.794
REMARK  Name = 
REMARK  10 active torsions:
REMARK  status: ('A' for Active; 'I' for Inactive)
REMARK    1  A    between atoms: C_1  and  O_2
REMARK    2  A    between atoms: O_2  and  C_3
REMARK    3  A    between atoms: C_3  and  C_4
REMARK    4  A    between atoms: C_4  and  C_5
REMARK    5  A    between atoms: C_4  and  N_6
REMARK    6  A    between atoms: C_7  and  C_9
REMARK    7  A    between atoms: C_9  and  N_10
REMARK    8  A    between atoms: N_10  and  C_11
REMARK    9  A    between atoms: C_16  and  O_17
REMARK   10  A    between atoms: O_17  and  C_18
REMARK                            x       y       z     vdW  Elec       q    Type
REMARK                         _______ _______ _______ _____ _____    ______ ____
ROOT
ATOM      1  N   UNL     1       5.652   4.561  19.148  0.00  0.00    +0.000 N 
ATOM      2  H   UNL     1       5.620   4.885  20.119  0.00  0.00    +0.000 HD
ENDROOT
BRANCH   1   3
ATOM      3  C   UNL     1       4.358   4.147  18.771  0.00  0.00    +0.000 A 
ATOM      4  C   UNL     1       4.090   2.855  18.290  0.00  0.00    +0.000 A 
ATOM      5  C   UNL     1       2.805   2.467  17.887  0.00  0.00    +0.000 A 
ATOM      6  C   UNL     1       1.744   3.360  17.971  0.00  0.00    +0.000 A 
ATOM      7  C   UNL     1       1.982   4.647  18.433  0.00  0.00    +0.000 A 
ATOM      8  C   UNL     1       3.274   5.056  18.796  0.00  0.00    +0.000 A 
BRANCH   8   9
ATOM      9  O   UNL     1       3.307   6.348  19.243  0.00  0.00    +0.000 OA
BRANCH   9  10
ATOM     10  C   UNL     1       2.653   7.330  18.459  0.00  0.00    +0.000 C 
ATOM     11  F   UNL     1       2.104   8.310  19.226  0.00  0.00    +0.000 F 
ATOM     12  F   UNL     1       3.611   7.938  17.711  0.00  0.00    +0.000 F 
ENDBRANCH   9  10
ENDBRANCH   8   9
ENDBRANCH   1   3
BRANCH   1  13
ATOM     13  C   UNL     1       6.399   5.512  18.306  0.00  0.00    +0.000 C 
BRANCH  13  15
ATOM     14  N   UNL     1       6.299   4.890  15.933  0.00  0.00    +0.000 N 
ATOM     15  C   UNL     1       7.032   4.787  17.103  0.00  0.00    +0.000 C 
ATOM     16  O   UNL     1       8.109   4.200  17.166  0.00  0.00    +0.000 OA
ATOM     17  H   UNL     1       5.379   5.313  15.968  0.00  0.00    +0.000 HD
BRANCH  14  18
ATOM     18  C   UNL     1       6.732   4.287  14.672  0.00  0.00    +0.000 C 
ATOM     19  C   UNL     1       7.489   5.331  13.849  0.00  0.00    +0.000 C 
BRANCH  18  20
ATOM     20  C   UNL     1       5.553   3.693  13.867  0.00  0.00    +0.000 C 
BRANCH  20  22
ATOM     21  C   UNL     1       4.875   3.191  11.652  0.00  0.00    +0.000 C 
ATOM     22  O   UNL     1       5.972   3.426  12.526  0.00  0.00    +0.000 OA
ENDBRANCH  20  22
ENDBRANCH  18  20
ENDBRANCH  14  18
ENDBRANCH  13  15
ENDBRANCH   1  13
TORSDOF 8
ENDMDL
MODEL 9
REMARK VINA RESULT:      -6.2      4.147      6.660
REMARK  Name = 
REMARK  10 active torsions:
REMARK  status: ('A' for Active; 'I' for Inactive)
REMARK    1  A    between atoms: C_1  and  O_2
REMARK    2  A    between atoms: O_2  and  C_3
REMARK    3  A    between atoms: C_3  and  C_4
REMARK    4  A    between atoms: C_4  and  C_5
REMARK    5  A    between atoms: C_4  and  N_6
REMARK    6  A    between atoms: C_7  and  C_9
REMARK    7  A    between atoms: C_9  and  N_10
REMARK    8  A    between atoms: N_10  and  C_11
REMARK    9  A    between atoms: C_16  and  O_17
REMARK   10  A    between atoms: O_17  and  C_18
REMARK                            x       y       z     vdW  Elec       q    Type
REMARK                         _______ _______ _______ _____ _____    ______ ____
ROOT
ATOM      1  N   UNL     1       5.481   4.106  18.614  0.00  0.00    +0.000 N 
ATOM      2  H   UNL     1       4.831   3.319  18.689  0.00  0.00    +0.000 HD
ENDROOT
BRANCH   1   3
ATOM      3  C   UNL     1       5.774   4.318  17.251  0.00  0.00    +0.000 A 
ATOM      4  C   UNL     1       4.934   3.862  16.220  0.00  0.00    +0.000 A 
ATOM      5  C   UNL     1       5.253   4.050  14.868  0.00  0.00    +0.000 A 
ATOM      6  C   UNL     1       6.417   4.717  14.509  0.00  0.00    +0.000 A 
ATOM      7  C   UNL     1       7.271   5.169  15.507  0.00  0.00    +0.000 A 
ATOM      8  C   UNL     1       6.980   4.945  16.860  0.00  0.00    +0.000 A 
BRANCH   8   9
ATOM      9  O   UNL     1       7.925   5.477  17.693  0.00  0.00    +0.000 OA
BRANCH   9  10
ATOM     10  C   UNL     1       7.742   6.814  18.123  0.00  0.00    +0.000 C 
ATOM     11  F   UNL     1       8.669   7.182  19.048  0.00  0.00    +0.000 F 
ATOM     12  F   UNL     1       7.962   7.609  17.042  0.00  0.00    +0.000 F 
ENDBRANCH   9  10
ENDBRANCH   8   9
ENDBRANCH   1   3
BRANCH   1  13
ATOM     13  C   UNL     1       5.037   5.229  19.458  0.00  0.00    +0.000 C 
BRANCH  13  15
ATOM     14  N   UNL     1       3.033   3.908  19.973  0.00  0.00    +0.000 N 
ATOM     15  C   UNL     1       3.513   5.172  19.677  0.00  0.00    +0.000 C 
ATOM     16  O   UNL     1       2.792   6.166  19.628  0.00  0.00    +0.000 OA
ATOM     17  H   UNL     1       3.664   3.118  19.914  0.00  0.00    +0.000 HD
BRANCH  14  18
ATOM     18  C   UNL     1       1.617   3.639  20.232  0.00  0.00    +0.000 C 
ATOM     19  C   UNL     1       1.489   2.793  21.500  0.00  0.00    +0.000 C 
BRANCH  18  20
ATOM     20  C   UNL     1       0.918   2.956  19.034  0.00  0.00    +0.000 C 
BRANCH  20  22
ATOM     21  C   UNL     1       2.564   1.826  17.757  0.00  0.00    +0.000 C 
ATOM     22  O   UNL     1       1.774   3.000  17.889  0.00  0.00    +0.000 OA
ENDBRANCH  20  22
ENDBRANCH  18  20
ENDBRANCH  14  18
ENDBRANCH  13  15
ENDBRANCH   1  13
TORSDOF 8
ENDMDL
