MODEL 1
REMARK VINA RESULT:      -9.8      0.000      0.000
REMARK  Name = 
REMARK  9 active torsions:
REMARK  status: ('A' for Active; 'I' for Inactive)
REMARK    1  A    between atoms: C_1  and  O_2
REMARK    2  A    between atoms: O_2  and  C_3
REMARK    3  A    between atoms: C_5  and  N_6
REMARK    4  A    between atoms: N_6  and  C_7
REMARK    5  A    between atoms: C_7  and  C_8
REMARK    6  A    between atoms: C_7  and  C_21
REMARK    7  A    between atoms: C_11  and  C_12
REMARK    8  A    between atoms: C_12  and  N_13
REMARK    9  A    between atoms: C_30  and  C_31
REMARK                            x       y       z     vdW  Elec       q    Type
REMARK                         _______ _______ _______ _____ _____    ______ ____
ROOT
ATOM      1  C   UNL     1       3.096   6.097  18.646  0.00  0.00    +0.000 C 
ENDROOT
BRANCH   1   2
ATOM      2  C   UNL     1       2.270   4.850  18.954  0.00  0.00    +0.000 A 
ATOM      3  C   UNL     1       1.528   4.171  17.974  0.00  0.00    +0.000 A 
ATOM      4  C   UNL     1       0.821   3.004  18.290  0.00  0.00    +0.000 A 
ATOM      5  C   UNL     1       0.837   2.505  19.590  0.00  0.00    +0.000 A 
ATOM      6  C   UNL     1       1.553   3.177  20.576  0.00  0.00    +0.000 A 
ATOM      7 CL   UNL     1       1.579   2.566  22.184  0.00  0.00    +0.000 Cl
ATOM      8  C   UNL     1       2.261   4.340  20.266  0.00  0.00    +0.000 A 
ENDBRANCH   1   2
BRANCH   1   9
ATOM      9  C   UNL     1       2.332   7.415  18.872  0.00  0.00    +0.000 A 
ATOM     10  C   UNL     1       2.048   8.349  17.855  0.00  0.00    +0.000 A 
ATOM     11  C   UNL     1       1.308   9.530  18.132  0.00  0.00    +0.000 A 
ATOM     12  C   UNL     1       0.826   9.798  19.423  0.00  0.00    +0.000 A 
ATOM     13  C   UNL     1       1.126   8.863  20.428  0.00  0.00    +0.000 A 
ATOM     14  C   UNL     1       1.858   7.701  20.154  0.00  0.00    +0.000 A 
BRANCH  12  15
ATOM     15  C   UNL     1       0.132  11.093  19.854  0.00  0.00    +0.000 C 
BRANCH  15  16
ATOM     16  N   UNL     1      -0.894  11.665  18.970  0.00  0.00    +0.000 NA
ATOM     17  C   UNL     1      -2.159  12.007  19.651  0.00  0.00    +0.000 C 
ATOM     18  C   UNL     1      -2.207  13.334  20.454  0.00  0.00    +0.000 C 
ATOM     19  N   UNL     1      -1.589  14.502  19.816  0.00  0.00    +0.000 NA
ATOM     20  C   UNL     1      -0.331  14.170  19.147  0.00  0.00    +0.000 C 
ATOM     21  C   UNL     1      -0.394  12.886  18.287  0.00  0.00    +0.000 C 
ATOM     22  H   UNL     1      -1.430  15.228  20.511  0.00  0.00    +0.000 HD
ENDBRANCH  15  16
ENDBRANCH  12  15
ENDBRANCH   1   9
BRANCH   1  23
ATOM     23  N   UNL     1       3.751   6.022  17.330  0.00  0.00    +0.000 N 
ATOM     24  H   UNL     1       3.194   6.431  16.573  0.00  0.00    +0.000 HD
BRANCH  23  27
ATOM     25  C   UNL     1       7.384   7.016  17.429  0.00  0.00    +0.000 A 
ATOM     26  C   UNL     1       5.973   6.915  17.882  0.00  0.00    +0.000 A 
ATOM     27  C   UNL     1       5.135   6.202  17.099  0.00  0.00    +0.000 A 
ATOM     28  N   UNL     1       5.709   5.581  15.951  0.00  0.00    +0.000 N 
ATOM     29  N   UNL     1       5.110   4.793  15.011  0.00  0.00    +0.000 NA
ATOM     30  C   UNL     1       6.137   4.476  14.216  0.00  0.00    +0.000 A 
ATOM     31  C   UNL     1       6.022   3.568  13.057  0.00  0.00    +0.000 C 
ATOM     32  N   UNL     1       7.337   5.032  14.549  0.00  0.00    +0.000 NA
ATOM     33  C   UNL     1       7.072   5.722  15.634  0.00  0.00    +0.000 A 
ATOM     34  N   UNL     1       7.919   6.475  16.386  0.00  0.00    +0.000 NA
BRANCH  25  36
ATOM     35  C   UNL     1       8.151   9.199  17.927  0.00  0.00    +0.000 C 
ATOM     36  O   UNL     1       8.075   7.810  18.285  0.00  0.00    +0.000 OA
ENDBRANCH  25  36
ENDBRANCH  23  27
ENDBRANCH   1  23
TORSDOF 7
ENDMDL
MODEL 2
REMARK VINA RESULT:      -9.8      1.259      1.735
REMARK  Name = 
REMARK  9 active torsions:
REMARK  status: ('A' for Active; 'I' for Inactive)
REMARK    1  A    between atoms: C_1  and  O_2
REMARK    2  A    between atoms: O_2  and  C_3
REMARK    3  A    between atoms: C_5  and  N_6
REMARK    4  A    between atoms: N_6  and  C_7
REMARK    5  A    between atoms: C_7  and  C_8
REMARK    6  A    between atoms: C_7  and  C_21
REMARK    7  A    between atoms: C_11  and  C_12
REMARK    8  A    between atoms: C_12  and  N_13
REMARK    9  A    between atoms: C_30  and  C_31
REMARK                            x       y       z     vdW  Elec       q    Type
REMARK                         _______ _______ _______ _____ _____    ______ ____
ROOT
ATOM      1  C   UNL     1       3.246   6.192  18.724  0.00  0.00    +0.000 C 
ENDROOT
BRANCH   1   2
ATOM      2  C   UNL     1       2.412   4.933  18.945  0.00  0.00    +0.000 A 
ATOM      3  C   UNL     1       1.732   4.282  17.903  0.00  0.00    +0.000 A 
ATOM      4  C   UNL     1       1.015   3.103  18.141  0.00  0.00    +0.000 A 
ATOM      5  C   UNL     1       0.960   2.562  19.423  0.00  0.00    +0.000 A 
ATOM      6  C   UNL     1       1.614   3.206  20.469  0.00  0.00    +0.000 A 
ATOM      7 CL   UNL     1       1.551   2.545  22.056  0.00  0.00    +0.000 Cl
ATOM      8  C   UNL     1       2.331   4.382  20.238  0.00  0.00    +0.000 A 
ENDBRANCH   1   2
BRANCH   1   9
ATOM      9  C   UNL     1       2.448   7.499  18.887  0.00  0.00    +0.000 A 
ATOM     10  C   UNL     1       1.840   7.909  20.092  0.00  0.00    +0.000 A 
ATOM     11  C   UNL     1       1.147   9.147  20.177  0.00  0.00    +0.000 A 
ATOM     12  C   UNL     1       1.056  10.005  19.071  0.00  0.00    +0.000 A 
ATOM     13  C   UNL     1       1.658   9.578  17.875  0.00  0.00    +0.000 A 
ATOM     14  C   UNL     1       2.339   8.357  17.792  0.00  0.00    +0.000 A 
BRANCH  12  15
ATOM     15  C   UNL     1       0.231  11.294  19.019  0.00  0.00    +0.000 C 
BRANCH  15  16
ATOM     16  N   UNL     1       0.533  12.358  19.989  0.00  0.00    +0.000 NA
ATOM     17  C   UNL     1       0.934  13.640  19.376  0.00  0.00    +0.000 C 
ATOM     18  C   UNL     1      -0.189  14.556  18.823  0.00  0.00    +0.000 C 
ATOM     19  N   UNL     1      -1.386  14.694  19.661  0.00  0.00    +0.000 NA
ATOM     20  C   UNL     1      -1.793  13.425  20.263  0.00  0.00    +0.000 C 
ATOM     21  C   UNL     1      -0.628  12.616  20.880  0.00  0.00    +0.000 C 
ATOM     22  H   UNL     1      -2.150  15.075  19.107  0.00  0.00    +0.000 HD
ENDBRANCH  15  16
ENDBRANCH  12  15
ENDBRANCH   1   9
BRANCH   1  23
ATOM     23  N   UNL     1       4.023   6.137  17.475  0.00  0.00    +0.000 N 
ATOM     24  H   UNL     1       3.958   6.993  16.916  0.00  0.00    +0.000 HD
BRANCH  23  27
ATOM     25  C   UNL     1       7.516   4.801  17.926  0.00  0.00    +0.000 A 
ATOM     26  C   UNL     1       6.228   5.435  18.303  0.00  0.00    +0.000 A 
ATOM     27  C   UNL     1       5.293   5.531  17.332  0.00  0.00    +0.000 A 
ATOM     28  N   UNL     1       5.627   4.964  16.068  0.00  0.00    +0.000 N 
ATOM     29  N   UNL     1       4.874   4.898  14.931  0.00  0.00    +0.000 NA
ATOM     30  C   UNL     1       5.682   4.231  14.099  0.00  0.00    +0.000 A 
ATOM     31  C   UNL     1       5.297   3.838  12.728  0.00  0.00    +0.000 C 
ATOM     32  N   UNL     1       6.907   3.902  14.601  0.00  0.00    +0.000 NA
ATOM     33  C   UNL     1       6.874   4.358  15.832  0.00  0.00    +0.000 A 
ATOM     34  N   UNL     1       7.844   4.296  16.783  0.00  0.00    +0.000 NA
BRANCH  25  36
ATOM     35  C   UNL     1       8.076   5.833  19.980  0.00  0.00    +0.000 C 
ATOM     36  O   UNL     1       8.362   4.838  18.986  0.00  0.00    +0.000 OA
ENDBRANCH  25  36
ENDBRANCH  23  27
ENDBRANCH   1  23
TORSDOF 7
ENDMDL
MODEL 3
REMARK VINA RESULT:      -9.7      0.787      1.262
REMARK  Name = 
REMARK  9 active torsions:
REMARK  status: ('A' for Active; 'I' for Inactive)
REMARK    1  A    between atoms: C_1  and  O_2
REMARK    2  A    between atoms: O_2  and  C_3
REMARK    3  A    between atoms: C_5  and  N_6
REMARK    4  A    between atoms: N_6  and  C_7
REMARK    5  A    between atoms: C_7  and  C_8
REMARK    6  A    between atoms: C_7  and  C_21
REMARK    7  A    between atoms: C_11  and  C_12
REMARK    8  A    between atoms: C_12  and  N_13
REMARK    9  A    between atoms: C_30  and  C_31
REMARK                            x       y       z     vdW  Elec       q    Type
REMARK                         _______ _______ _______ _____ _____    ______ ____
ROOT
ATOM      1  C   UNL     1       3.086   6.047  18.696  0.00  0.00    +0.000 C 
ENDROOT
BRANCH   1   2
ATOM      2  C   UNL     1       2.274   4.786  18.983  0.00  0.00    +0.000 A 
ATOM      3  C   UNL     1       1.547   4.111  17.990  0.00  0.00    +0.000 A 
ATOM      4  C   UNL     1       0.852   2.931  18.287  0.00  0.00    +0.000 A 
ATOM      5  C   UNL     1       0.866   2.416  19.580  0.00  0.00    +0.000 A 
ATOM      6  C   UNL     1       1.567   3.084  20.579  0.00  0.00    +0.000 A 
ATOM      7 CL   UNL     1       1.590   2.454  22.180  0.00  0.00    +0.000 Cl
ATOM      8  C   UNL     1       2.262   4.260  20.289  0.00  0.00    +0.000 A 
ENDBRANCH   1   2
BRANCH   1   9
ATOM      9  C   UNL     1       2.314   7.353  18.961  0.00  0.00    +0.000 A 
ATOM     10  C   UNL     1       1.779   7.715  20.214  0.00  0.00    +0.000 A 
ATOM     11  C   UNL     1       1.108   8.955  20.392  0.00  0.00    +0.000 A 
ATOM     12  C   UNL     1       0.966   9.862  19.331  0.00  0.00    +0.000 A 
ATOM     13  C   UNL     1       1.495   9.483  18.086  0.00  0.00    +0.000 A 
ATOM     14  C   UNL     1       2.156   8.260  17.911  0.00  0.00    +0.000 A 
BRANCH  12  15
ATOM     15  C   UNL     1       0.156  11.160  19.382  0.00  0.00    +0.000 C 
BRANCH  15  16
ATOM     16  N   UNL     1       0.690  12.347  18.697  0.00  0.00    +0.000 NA
ATOM     17  C   UNL     1      -0.306  13.412  18.465  0.00  0.00    +0.000 C 
ATOM     18  C   UNL     1      -0.657  14.341  19.656  0.00  0.00    +0.000 C 
ATOM     19  N   UNL     1       0.472  14.807  20.470  0.00  0.00    +0.000 NA
ATOM     20  C   UNL     1       1.456  13.753  20.712  0.00  0.00    +0.000 C 
ATOM     21  C   UNL     1       1.826  12.935  19.452  0.00  0.00    +0.000 C 
ATOM     22  H   UNL     1       0.127  15.169  21.358  0.00  0.00    +0.000 HD
ENDBRANCH  15  16
ENDBRANCH  12  15
ENDBRANCH   1   9
BRANCH   1  23
ATOM     23  N   UNL     1       3.729   6.008  17.373  0.00  0.00    +0.000 N 
ATOM     24  H   UNL     1       3.170   6.448  16.635  0.00  0.00    +0.000 HD
BRANCH  23  27
ATOM     25  C   UNL     1       7.369   6.978  17.457  0.00  0.00    +0.000 A 
ATOM     26  C   UNL     1       5.960   6.883  17.917  0.00  0.00    +0.000 A 
ATOM     27  C   UNL     1       5.112   6.180  17.135  0.00  0.00    +0.000 A 
ATOM     28  N   UNL     1       5.676   5.562  15.981  0.00  0.00    +0.000 N 
ATOM     29  N   UNL     1       5.066   4.784  15.039  0.00  0.00    +0.000 NA
ATOM     30  C   UNL     1       6.087   4.465  14.236  0.00  0.00    +0.000 A 
ATOM     31  C   UNL     1       5.959   3.563  13.073  0.00  0.00    +0.000 C 
ATOM     32  N   UNL     1       7.292   5.010  14.566  0.00  0.00    +0.000 NA
ATOM     33  C   UNL     1       7.038   5.696  15.657  0.00  0.00    +0.000 A 
ATOM     34  N   UNL     1       7.895   6.439  16.408  0.00  0.00    +0.000 NA
BRANCH  25  36
ATOM     35  C   UNL     1       8.185   9.145  17.943  0.00  0.00    +0.000 C 
ATOM     36  O   UNL     1       8.069   7.762  18.314  0.00  0.00    +0.000 OA
ENDBRANCH  25  36
ENDBRANCH  23  27
ENDBRANCH   1  23
TORSDOF 7
ENDMDL
MODEL 4
REMARK VINA RESULT:      -9.5      1.378      1.649
REMARK  Name = 
REMARK  9 active torsions:
REMARK  status: ('A' for Active; 'I' for Inactive)
REMARK    1  A    between atoms: C_1  and  O_2
REMARK    2  A    between atoms: O_2  and  C_3
REMARK    3  A    between atoms: C_5  and  N_6
REMARK    4  A    between atoms: N_6  and  C_7
REMARK    5  A    between atoms: C_7  and  C_8
REMARK    6  A    between atoms: C_7  and  C_21
REMARK    7  A    between atoms: C_11  and  C_12
REMARK    8  A    between atoms: C_12  and  N_13
REMARK    9  A    between atoms: C_30  and  C_31
REMARK                            x       y       z     vdW  Elec       q    Type
REMARK                         _______ _______ _______ _____ _____    ______ ____
ROOT
ATOM      1  C   UNL     1       3.230   6.178  18.679  0.00  0.00    +0.000 C 
ENDROOT
BRANCH   1   2
ATOM      2  C   UNL     1       2.406   4.915  18.915  0.00  0.00    +0.000 A 
ATOM      3  C   UNL     1       1.680   4.283  17.893  0.00  0.00    +0.000 A 
ATOM      4  C   UNL     1       0.974   3.099  18.142  0.00  0.00    +0.000 A 
ATOM      5  C   UNL     1       0.975   2.536  19.416  0.00  0.00    +0.000 A 
ATOM      6  C   UNL     1       1.675   3.162  20.443  0.00  0.00    +0.000 A 
ATOM      7 CL   UNL     1       1.683   2.473  22.019  0.00  0.00    +0.000 Cl
ATOM      8  C   UNL     1       2.382   4.341  20.200  0.00  0.00    +0.000 A 
ENDBRANCH   1   2
BRANCH   1   9
ATOM      9  C   UNL     1       2.423   7.481  18.834  0.00  0.00    +0.000 A 
ATOM     10  C   UNL     1       2.160   8.378  17.778  0.00  0.00    +0.000 A 
ATOM     11  C   UNL     1       1.378   9.545  17.989  0.00  0.00    +0.000 A 
ATOM     12  C   UNL     1       0.831   9.836  19.248  0.00  0.00    +0.000 A 
ATOM     13  C   UNL     1       1.110   8.937  20.292  0.00  0.00    +0.000 A 
ATOM     14  C   UNL     1       1.883   7.788  20.084  0.00  0.00    +0.000 A 
BRANCH  12  15
ATOM     15  C   UNL     1       0.084  11.122  19.611  0.00  0.00    +0.000 C 
BRANCH  15  16
ATOM     16  N   UNL     1       0.354  11.744  20.916  0.00  0.00    +0.000 NA
ATOM     17  C   UNL     1       0.734  13.169  20.842  0.00  0.00    +0.000 C 
ATOM     18  C   UNL     1      -0.403  14.208  20.657  0.00  0.00    +0.000 C 
ATOM     19  N   UNL     1      -1.611  13.998  21.465  0.00  0.00    +0.000 NA
ATOM     20  C   UNL     1      -1.997  12.590  21.534  0.00  0.00    +0.000 C 
ATOM     21  C   UNL     1      -0.820  11.627  21.819  0.00  0.00    +0.000 C 
ATOM     22  H   UNL     1      -2.377  14.549  21.083  0.00  0.00    +0.000 HD
ENDBRANCH  15  16
ENDBRANCH  12  15
ENDBRANCH   1   9
BRANCH   1  23
ATOM     23  N   UNL     1       4.002   6.117  17.428  0.00  0.00    +0.000 N 
ATOM     24  H   UNL     1       3.935   6.970  16.865  0.00  0.00    +0.000 HD
BRANCH  23  27
ATOM     25  C   UNL     1       7.494   4.774  17.876  0.00  0.00    +0.000 A 
ATOM     26  C   UNL     1       6.206   5.408  18.254  0.00  0.00    +0.000 A 
ATOM     27  C   UNL     1       5.272   5.510  17.283  0.00  0.00    +0.000 A 
ATOM     28  N   UNL     1       5.607   4.950  16.016  0.00  0.00    +0.000 N 
ATOM     29  N   UNL     1       4.856   4.890  14.878  0.00  0.00    +0.000 NA
ATOM     30  C   UNL     1       5.664   4.227  14.044  0.00  0.00    +0.000 A 
ATOM     31  C   UNL     1       5.280   3.842  12.670  0.00  0.00    +0.000 C 
ATOM     32  N   UNL     1       6.887   3.894  14.545  0.00  0.00    +0.000 NA
ATOM     33  C   UNL     1       6.854   4.344  15.778  0.00  0.00    +0.000 A 
ATOM     34  N   UNL     1       7.823   4.276  16.731  0.00  0.00    +0.000 NA
BRANCH  25  36
ATOM     35  C   UNL     1       8.071   5.817  19.920  0.00  0.00    +0.000 C 
ATOM     36  O   UNL     1       8.339   4.805  18.937  0.00  0.00    +0.000 OA
ENDBRANCH  25  36
ENDBRANCH  23  27
ENDBRANCH   1  23
TORSDOF 7
ENDMDL
MODEL 5
REMARK VINA RESULT:      -9.4      1.130      1.725
REMARK  Name = 
REMARK  9 active torsions:
REMARK  status: ('A' for Active; 'I' for Inactive)
REMARK    1  A    between atoms: C_1  and  O_2
REMARK    2  A    between atoms: O_2  and  C_3
REMARK    3  A    between atoms: C_5  and  N_6
REMARK    4  A    between atoms: N_6  and  C_7
REMARK    5  A    between atoms: C_7  and  C_8
REMARK    6  A    between atoms: C_7  and  C_21
REMARK    7  A    between atoms: C_11  and  C_12
REMARK    8  A    between atoms: C_12  and  N_13
REMARK    9  A    between atoms: C_30  and  C_31
REMARK                            x       y       z     vdW  Elec       q    Type
REMARK                         _______ _______ _______ _____ _____    ______ ____
ROOT
ATOM      1  C   UNL     1       3.275   6.103  19.130  0.00  0.00    +0.000 C 
ENDROOT
BRANCH   1   2
ATOM      2  C   UNL     1       2.602   4.887  19.761  0.00  0.00    +0.000 A 
ATOM      3  C   UNL     1       2.653   4.622  21.139  0.00  0.00    +0.000 A 
ATOM      4  C   UNL     1       1.982   3.519  21.683  0.00  0.00    +0.000 A 
ATOM      5  C   UNL     1       1.261   2.660  20.857  0.00  0.00    +0.000 A 
ATOM      6  C   UNL     1       1.217   2.899  19.487  0.00  0.00    +0.000 A 
ATOM      7 CL   UNL     1       0.326   1.844  18.461  0.00  0.00    +0.000 Cl
ATOM      8  C   UNL     1       1.882   3.998  18.940  0.00  0.00    +0.000 A 
ENDBRANCH   1   2
BRANCH   1   9
ATOM      9  C   UNL     1       2.397   7.368  19.137  0.00  0.00    +0.000 A 
ATOM     10  C   UNL     1       1.773   7.892  20.288  0.00  0.00    +0.000 A 
ATOM     11  C   UNL     1       1.005   9.085  20.225  0.00  0.00    +0.000 A 
ATOM     12  C   UNL     1       0.852   9.787  19.019  0.00  0.00    +0.000 A 
ATOM     13  C   UNL     1       1.471   9.248  17.879  0.00  0.00    +0.000 A 
ATOM     14  C   UNL     1       2.227   8.070  17.942  0.00  0.00    +0.000 A 
BRANCH  12  15
ATOM     15  C   UNL     1      -0.052  11.005  18.815  0.00  0.00    +0.000 C 
BRANCH  15  16
ATOM     16  N   UNL     1       0.573  12.295  18.488  0.00  0.00    +0.000 NA
ATOM     17  C   UNL     1      -0.363  13.436  18.473  0.00  0.00    +0.000 C 
ATOM     18  C   UNL     1      -0.765  14.055  19.838  0.00  0.00    +0.000 C 
ATOM     19  N   UNL     1       0.319  14.241  20.809  0.00  0.00    +0.000 NA
ATOM     20  C   UNL     1       1.244  13.109  20.835  0.00  0.00    +0.000 C 
ATOM     21  C   UNL     1       1.673  12.614  19.433  0.00  0.00    +0.000 C 
ATOM     22  H   UNL     1      -0.075  14.387  21.737  0.00  0.00    +0.000 HD
ENDBRANCH  15  16
ENDBRANCH  12  15
ENDBRANCH   1   9
BRANCH   1  23
ATOM     23  N   UNL     1       3.851   5.801  17.810  0.00  0.00    +0.000 N 
ATOM     24  H   UNL     1       3.204   5.970  17.034  0.00  0.00    +0.000 HD
BRANCH  23  27
ATOM     25  C   UNL     1       7.415   6.991  17.520  0.00  0.00    +0.000 A 
ATOM     26  C   UNL     1       6.075   6.799  18.131  0.00  0.00    +0.000 A 
ATOM     27  C   UNL     1       5.187   6.064  17.426  0.00  0.00    +0.000 A 
ATOM     28  N   UNL     1       5.652   5.510  16.198  0.00  0.00    +0.000 N 
ATOM     29  N   UNL     1       4.987   4.718  15.306  0.00  0.00    +0.000 NA
ATOM     30  C   UNL     1       5.929   4.482  14.385  0.00  0.00    +0.000 A 
ATOM     31  C   UNL     1       5.724   3.603  13.216  0.00  0.00    +0.000 C 
ATOM     32  N   UNL     1       7.129   5.093  14.596  0.00  0.00    +0.000 NA
ATOM     33  C   UNL     1       6.959   5.735  15.729  0.00  0.00    +0.000 A 
ATOM     34  N   UNL     1       7.850   6.512  16.403  0.00  0.00    +0.000 NA
BRANCH  25  36
ATOM     35  C   UNL     1       8.161   9.190  17.973  0.00  0.00    +0.000 C 
ATOM     36  O   UNL     1       8.160   7.796  18.318  0.00  0.00    +0.000 OA
ENDBRANCH  25  36
ENDBRANCH  23  27
ENDBRANCH   1  23
TORSDOF 7
ENDMDL
MODEL 6
REMARK VINA RESULT:      -9.4      1.148      1.842
REMARK  Name = 
REMARK  9 active torsions:
REMARK  status: ('A' for Active; 'I' for Inactive)
REMARK    1  A    between atoms: C_1  and  O_2
REMARK    2  A    between atoms: O_2  and  C_3
REMARK    3  A    between atoms: C_5  and  N_6
REMARK    4  A    between atoms: N_6  and  C_7
REMARK    5  A    between atoms: C_7  and  C_8
REMARK    6  A    between atoms: C_7  and  C_21
REMARK    7  A    between atoms: C_11  and  C_12
REMARK    8  A    between atoms: C_12  and  N_13
REMARK    9  A    between atoms: C_30  and  C_31
REMARK                            x       y       z     vdW  Elec       q    Type
REMARK                         _______ _______ _______ _____ _____    ______ ____
ROOT
ATOM      1  C   UNL     1       3.305   6.050  19.181  0.00  0.00    +0.000 C 
ENDROOT
BRANCH   1   2
ATOM      2  C   UNL     1       2.627   4.832  19.802  0.00  0.00    +0.000 A 
ATOM      3  C   UNL     1       2.672   4.559  21.179  0.00  0.00    +0.000 A 
ATOM      4  C   UNL     1       1.997   3.454  21.714  0.00  0.00    +0.000 A 
ATOM      5  C   UNL     1       1.277   2.602  20.881  0.00  0.00    +0.000 A 
ATOM      6  C   UNL     1       1.240   2.848  19.512  0.00  0.00    +0.000 A 
ATOM      7 CL   UNL     1       0.352   1.800  18.475  0.00  0.00    +0.000 Cl
ATOM      8  C   UNL     1       1.910   3.949  18.973  0.00  0.00    +0.000 A 
ENDBRANCH   1   2
BRANCH   1   9
ATOM      9  C   UNL     1       2.433   7.320  19.200  0.00  0.00    +0.000 A 
ATOM     10  C   UNL     1       1.773   7.808  20.346  0.00  0.00    +0.000 A 
ATOM     11  C   UNL     1       1.013   9.007  20.296  0.00  0.00    +0.000 A 
ATOM     12  C   UNL     1       0.904   9.749  19.110  0.00  0.00    +0.000 A 
ATOM     13  C   UNL     1       1.560   9.244  17.974  0.00  0.00    +0.000 A 
ATOM     14  C   UNL     1       2.308   8.061  18.024  0.00  0.00    +0.000 A 
BRANCH  12  15
ATOM     15  C   UNL     1       0.013  10.978  18.916  0.00  0.00    +0.000 C 
BRANCH  15  16
ATOM     16  N   UNL     1      -0.041  11.982  19.990  0.00  0.00    +0.000 NA
ATOM     17  C   UNL     1       1.280  12.479  20.423  0.00  0.00    +0.000 C 
ATOM     18  C   UNL     1       1.966  13.557  19.543  0.00  0.00    +0.000 C 
ATOM     19  N   UNL     1       1.103  14.636  19.049  0.00  0.00    +0.000 NA
ATOM     20  C   UNL     1      -0.204  14.148  18.611  0.00  0.00    +0.000 C 
ATOM     21  C   UNL     1      -0.866  13.151  19.591  0.00  0.00    +0.000 C 
ATOM     22  H   UNL     1       1.566  15.121  18.283  0.00  0.00    +0.000 HD
ENDBRANCH  15  16
ENDBRANCH  12  15
ENDBRANCH   1   9
BRANCH   1  23
ATOM     23  N   UNL     1       3.878   5.757  17.857  0.00  0.00    +0.000 N 
ATOM     24  H   UNL     1       3.225   5.919  17.085  0.00  0.00    +0.000 HD
BRANCH  23  27
ATOM     25  C   UNL     1       7.426   6.988  17.553  0.00  0.00    +0.000 A 
ATOM     26  C   UNL     1       6.092   6.777  18.170  0.00  0.00    +0.000 A 
ATOM     27  C   UNL     1       5.208   6.036  17.466  0.00  0.00    +0.000 A 
ATOM     28  N   UNL     1       5.672   5.495  16.232  0.00  0.00    +0.000 N 
ATOM     29  N   UNL     1       5.011   4.701  15.340  0.00  0.00    +0.000 NA
ATOM     30  C   UNL     1       5.948   4.481  14.412  0.00  0.00    +0.000 A 
ATOM     31  C   UNL     1       5.746   3.606  13.239  0.00  0.00    +0.000 C 
ATOM     32  N   UNL     1       7.143   5.104  14.619  0.00  0.00    +0.000 NA
ATOM     33  C   UNL     1       6.974   5.737  15.757  0.00  0.00    +0.000 A 
ATOM     34  N   UNL     1       7.860   6.520  16.430  0.00  0.00    +0.000 NA
BRANCH  25  36
ATOM     35  C   UNL     1       8.209   9.181  17.971  0.00  0.00    +0.000 C 
ATOM     36  O   UNL     1       8.168   7.797  18.350  0.00  0.00    +0.000 OA
ENDBRANCH  25  36
ENDBRANCH  23  27
ENDBRANCH   1  23
TORSDOF 7
ENDMDL
MODEL 7
REMARK VINA RESULT:      -9.4      0.990      1.567
REMARK  Name = 
REMARK  9 active torsions:
REMARK  status: ('A' for Active; 'I' for Inactive)
REMARK    1  A    between atoms: C_1  and  O_2
REMARK    2  A    between atoms: O_2  and  C_3
REMARK    3  A    between atoms: C_5  and  N_6
REMARK    4  A    between atoms: N_6  and  C_7
REMARK    5  A    between atoms: C_7  and  C_8
REMARK    6  A    between atoms: C_7  and  C_21
REMARK    7  A    between atoms: C_11  and  C_12
REMARK    8  A    between atoms: C_12  and  N_13
REMARK    9  A    between atoms: C_30  and  C_31
REMARK                            x       y       z     vdW  Elec       q    Type
REMARK                         _______ _______ _______ _____ _____    ______ ____
ROOT
ATOM      1  C   UNL     1       3.344   6.038  19.112  0.00  0.00    +0.000 C 
ENDROOT
BRANCH   1   2
ATOM      2  C   UNL     1       2.639   4.856  19.773  0.00  0.00    +0.000 A 
ATOM      3  C   UNL     1       2.699   4.614  21.155  0.00  0.00    +0.000 A 
ATOM      4  C   UNL     1       1.999   3.544  21.727  0.00  0.00    +0.000 A 
ATOM      5  C   UNL     1       1.238   2.696  20.926  0.00  0.00    +0.000 A 
ATOM      6  C   UNL     1       1.184   2.912  19.553  0.00  0.00    +0.000 A 
ATOM      7 CL   UNL     1       0.246   1.869  18.557  0.00  0.00    +0.000 Cl
ATOM      8  C   UNL     1       1.879   3.978  18.977  0.00  0.00    +0.000 A 
ENDBRANCH   1   2
BRANCH   1   9
ATOM      9  C   UNL     1       2.472   7.304  19.018  0.00  0.00    +0.000 A 
ATOM     10  C   UNL     1       2.214   7.999  17.818  0.00  0.00    +0.000 A 
ATOM     11  C   UNL     1       1.371   9.142  17.803  0.00  0.00    +0.000 A 
ATOM     12  C   UNL     1       0.758   9.609  18.976  0.00  0.00    +0.000 A 
ATOM     13  C   UNL     1       1.033   8.911  20.165  0.00  0.00    +0.000 A 
ATOM     14  C   UNL     1       1.866   7.785  20.179  0.00  0.00    +0.000 A 
BRANCH  12  15
ATOM     15  C   UNL     1      -0.061  10.896  19.092  0.00  0.00    +0.000 C 
BRANCH  15  16
ATOM     16  N   UNL     1       0.402  11.941  20.018  0.00  0.00    +0.000 NA
ATOM     17  C   UNL     1       1.023  13.106  19.357  0.00  0.00    +0.000 C 
ATOM     18  C   UNL     1       0.079  14.169  18.737  0.00  0.00    +0.000 C 
ATOM     19  N   UNL     1      -1.089  14.547  19.542  0.00  0.00    +0.000 NA
ATOM     20  C   UNL     1      -1.714  13.395  20.191  0.00  0.00    +0.000 C 
ATOM     21  C   UNL     1      -0.711  12.433  20.871  0.00  0.00    +0.000 C 
ATOM     22  H   UNL     1      -1.770  15.024  18.954  0.00  0.00    +0.000 HD
ENDBRANCH  15  16
ENDBRANCH  12  15
ENDBRANCH   1   9
BRANCH   1  23
ATOM     23  N   UNL     1       3.974   5.669  17.834  0.00  0.00    +0.000 N 
ATOM     24  H   UNL     1       3.334   5.713  17.035  0.00  0.00    +0.000 HD
BRANCH  23  27
ATOM     25  C   UNL     1       7.467   7.052  17.549  0.00  0.00    +0.000 A 
ATOM     26  C   UNL     1       6.142   6.780  18.161  0.00  0.00    +0.000 A 
ATOM     27  C   UNL     1       5.292   6.008  17.449  0.00  0.00    +0.000 A 
ATOM     28  N   UNL     1       5.782   5.496  16.212  0.00  0.00    +0.000 N 
ATOM     29  N   UNL     1       5.157   4.682  15.312  0.00  0.00    +0.000 NA
ATOM     30  C   UNL     1       6.106   4.509  14.385  0.00  0.00    +0.000 A 
ATOM     31  C   UNL     1       5.944   3.636  13.205  0.00  0.00    +0.000 C 
ATOM     32  N   UNL     1       7.273   5.181  14.601  0.00  0.00    +0.000 NA
ATOM     33  C   UNL     1       7.073   5.797  15.742  0.00  0.00    +0.000 A 
ATOM     34  N   UNL     1       7.923   6.612  16.425  0.00  0.00    +0.000 NA
BRANCH  25  36
ATOM     35  C   UNL     1       8.219   9.261  17.945  0.00  0.00    +0.000 C 
ATOM     36  O   UNL     1       8.171   7.885  18.355  0.00  0.00    +0.000 OA
ENDBRANCH  25  36
ENDBRANCH  23  27
ENDBRANCH   1  23
TORSDOF 7
ENDMDL
MODEL 8
REMARK VINA RESULT:      -9.3      0.933      1.280
REMARK  Name = 
REMARK  9 active torsions:
REMARK  status: ('A' for Active; 'I' for Inactive)
REMARK    1  A    between atoms: C_1  and  O_2
REMARK    2  A    between atoms: O_2  and  C_3
REMARK    3  A    between atoms: C_5  and  N_6
REMARK    4  A    between atoms: N_6  and  C_7
REMARK    5  A    between atoms: C_7  and  C_8
REMARK    6  A    between atoms: C_7  and  C_21
REMARK    7  A    between atoms: C_11  and  C_12
REMARK    8  A    between atoms: C_12  and  N_13
REMARK    9  A    between atoms: C_30  and  C_31
REMARK                            x       y       z     vdW  Elec       q    Type
REMARK                         _______ _______ _______ _____ _____    ______ ____
ROOT
ATOM      1  C   UNL     1       3.299   6.059  19.200  0.00  0.00    +0.000 C 
ENDROOT
BRANCH   1   2
ATOM      2  C   UNL     1       2.612   4.832  19.794  0.00  0.00    +0.000 A 
ATOM      3  C   UNL     1       2.646   4.535  21.166  0.00  0.00    +0.000 A 
ATOM      4  C   UNL     1       1.964   3.423  21.676  0.00  0.00    +0.000 A 
ATOM      5  C   UNL     1       1.248   2.587  20.822  0.00  0.00    +0.000 A 
ATOM      6  C   UNL     1       1.221   2.859  19.458  0.00  0.00    +0.000 A 
ATOM      7 CL   UNL     1       0.338   1.832  18.396  0.00  0.00    +0.000 Cl
ATOM      8  C   UNL     1       1.898   3.966  18.944  0.00  0.00    +0.000 A 
ENDBRANCH   1   2
BRANCH   1   9
ATOM      9  C   UNL     1       2.456   7.345  19.295  0.00  0.00    +0.000 A 
ATOM     10  C   UNL     1       2.208   8.210  18.209  0.00  0.00    +0.000 A 
ATOM     11  C   UNL     1       1.392   9.362  18.363  0.00  0.00    +0.000 A 
ATOM     12  C   UNL     1       0.796   9.670  19.596  0.00  0.00    +0.000 A 
ATOM     13  C   UNL     1       1.060   8.804  20.671  0.00  0.00    +0.000 A 
ATOM     14  C   UNL     1       1.867   7.670  20.518  0.00  0.00    +0.000 A 
BRANCH  12  15
ATOM     15  C   UNL     1       0.007  10.946  19.901  0.00  0.00    +0.000 C 
BRANCH  15  16
ATOM     16  N   UNL     1      -0.687  11.622  18.795  0.00  0.00    +0.000 NA
ATOM     17  C   UNL     1      -2.153  11.445  18.800  0.00  0.00    +0.000 C 
ATOM     18  C   UNL     1      -2.980  12.330  19.770  0.00  0.00    +0.000 C 
ATOM     19  N   UNL     1      -2.593  13.743  19.849  0.00  0.00    +0.000 NA
ATOM     20  C   UNL     1      -1.142  13.923  19.854  0.00  0.00    +0.000 C 
ATOM     21  C   UNL     1      -0.398  13.079  18.792  0.00  0.00    +0.000 C 
ATOM     22  H   UNL     1      -2.996  14.162  20.685  0.00  0.00    +0.000 HD
ENDBRANCH  15  16
ENDBRANCH  12  15
ENDBRANCH   1   9
BRANCH   1  23
ATOM     23  N   UNL     1       3.825   5.807  17.849  0.00  0.00    +0.000 N 
ATOM     24  H   UNL     1       3.162   6.038  17.102  0.00  0.00    +0.000 HD
BRANCH  23  27
ATOM     25  C   UNL     1       7.405   6.923  17.486  0.00  0.00    +0.000 A 
ATOM     26  C   UNL     1       6.074   6.758  18.124  0.00  0.00    +0.000 A 
ATOM     27  C   UNL     1       5.157   6.042  17.437  0.00  0.00    +0.000 A 
ATOM     28  N   UNL     1       5.586   5.478  16.200  0.00  0.00    +0.000 N 
ATOM     29  N   UNL     1       4.887   4.700  15.323  0.00  0.00    +0.000 NA
ATOM     30  C   UNL     1       5.804   4.445  14.383  0.00  0.00    +0.000 A 
ATOM     31  C   UNL     1       5.558   3.570  13.219  0.00  0.00    +0.000 C 
ATOM     32  N   UNL     1       7.021   5.031  14.570  0.00  0.00    +0.000 NA
ATOM     33  C   UNL     1       6.888   5.676  15.705  0.00  0.00    +0.000 A 
ATOM     34  N   UNL     1       7.808   6.435  16.361  0.00  0.00    +0.000 NA
BRANCH  25  36
ATOM     35  C   UNL     1       8.159   9.115  17.960  0.00  0.00    +0.000 C 
ATOM     36  O   UNL     1       8.183   7.713  18.268  0.00  0.00    +0.000 OA
ENDBRANCH  25  36
ENDBRANCH  23  27
ENDBRANCH   1  23
TORSDOF 7
ENDMDL
MODEL 9
REMARK VINA RESULT:      -9.3      1.492      1.928
REMARK  Name = 
REMARK  9 active torsions:
REMARK  status: ('A' for Active; 'I' for Inactive)
REMARK    1  A    between atoms: C_1  and  O_2
REMARK    2  A    between atoms: O_2  and  C_3
REMARK    3  A    between atoms: C_5  and  N_6
REMARK    4  A    between atoms: N_6  and  C_7
REMARK    5  A    between atoms: C_7  and  C_8
REMARK    6  A    between atoms: C_7  and  C_21
REMARK    7  A    between atoms: C_11  and  C_12
REMARK    8  A    between atoms: C_12  and  N_13
REMARK    9  A    between atoms: C_30  and  C_31
REMARK                            x       y       z     vdW  Elec       q    Type
REMARK                         _______ _______ _______ _____ _____    ______ ____
ROOT
ATOM      1  C   UNL     1       3.329   6.185  18.997  0.00  0.00    +0.000 C 
ENDROOT
BRANCH   1   2
ATOM      2  C   UNL     1       2.660   4.989  19.669  0.00  0.00    +0.000 A 
ATOM      3  C   UNL     1       2.723   4.765  21.055  0.00  0.00    +0.000 A 
ATOM      4  C   UNL     1       2.056   3.680  21.637  0.00  0.00    +0.000 A 
ATOM      5  C   UNL     1       1.325   2.799  20.844  0.00  0.00    +0.000 A 
ATOM      6  C   UNL     1       1.268   2.997  19.468  0.00  0.00    +0.000 A 
ATOM      7 CL   UNL     1       0.367   1.913  18.481  0.00  0.00    +0.000 Cl
ATOM      8  C   UNL     1       1.931   4.078  18.882  0.00  0.00    +0.000 A 
ENDBRANCH   1   2
BRANCH   1   9
ATOM      9  C   UNL     1       2.447   7.447  18.959  0.00  0.00    +0.000 A 
ATOM     10  C   UNL     1       2.185   8.194  17.792  0.00  0.00    +0.000 A 
ATOM     11  C   UNL     1       1.332   9.329  17.827  0.00  0.00    +0.000 A 
ATOM     12  C   UNL     1       0.713   9.736  19.019  0.00  0.00    +0.000 A 
ATOM     13  C   UNL     1       0.991   8.987  20.175  0.00  0.00    +0.000 A 
ATOM     14  C   UNL     1       1.834   7.869  20.140  0.00  0.00    +0.000 A 
BRANCH  12  15
ATOM     15  C   UNL     1      -0.118  11.010  19.192  0.00  0.00    +0.000 C 
BRANCH  15  16
ATOM     16  N   UNL     1       0.409  12.078  20.055  0.00  0.00    +0.000 NA
ATOM     17  C   UNL     1       0.921  13.253  19.323  0.00  0.00    +0.000 C 
ATOM     18  C   UNL     1      -0.115  14.281  18.797  0.00  0.00    +0.000 C 
ATOM     19  N   UNL     1      -1.203  14.634  19.717  0.00  0.00    +0.000 NA
ATOM     20  C   UNL     1      -1.720  13.472  20.439  0.00  0.00    +0.000 C 
ATOM     21  C   UNL     1      -0.622  12.548  21.016  0.00  0.00    +0.000 C 
ATOM     22  H   UNL     1      -1.956  15.084  19.201  0.00  0.00    +0.000 HD
ENDBRANCH  15  16
ENDBRANCH  12  15
ENDBRANCH   1   9
BRANCH   1  23
ATOM     23  N   UNL     1       3.906   5.839  17.688  0.00  0.00    +0.000 N 
ATOM     24  H   UNL     1       3.619   6.471  16.935  0.00  0.00    +0.000 HD
BRANCH  23  27
ATOM     25  C   UNL     1       7.526   4.832  17.967  0.00  0.00    +0.000 A 
ATOM     26  C   UNL     1       6.199   5.325  18.412  0.00  0.00    +0.000 A 
ATOM     27  C   UNL     1       5.222   5.364  17.479  0.00  0.00    +0.000 A 
ATOM     28  N   UNL     1       5.561   4.876  16.183  0.00  0.00    +0.000 N 
ATOM     29  N   UNL     1       4.776   4.776  15.071  0.00  0.00    +0.000 NA
ATOM     30  C   UNL     1       5.611   4.219  14.188  0.00  0.00    +0.000 A 
ATOM     31  C   UNL     1       5.214   3.838  12.816  0.00  0.00    +0.000 C 
ATOM     32  N   UNL     1       6.880   3.993  14.634  0.00  0.00    +0.000 NA
ATOM     33  C   UNL     1       6.850   4.402  15.881  0.00  0.00    +0.000 A 
ATOM     34  N   UNL     1       7.857   4.402  16.796  0.00  0.00    +0.000 NA
BRANCH  25  36
ATOM     35  C   UNL     1       7.951   5.643  20.150  0.00  0.00    +0.000 C 
ATOM     36  O   UNL     1       8.404   4.915  18.998  0.00  0.00    +0.000 OA
ENDBRANCH  25  36
ENDBRANCH  23  27
ENDBRANCH   1  23
TORSDOF 7
ENDMDL
