MODEL 1
REMARK VINA RESULT:      -7.8      0.000      0.000
REMARK  Name = 
REMARK  6 active torsions:
REMARK  status: ('A' for Active; 'I' for Inactive)
REMARK    1  A    between atoms: C_1  and  C_2
REMARK    2  A    between atoms: C_6  and  S_7
REMARK    3  A    between atoms: S_7  and  N_10
REMARK    4  A    between atoms: C_18  and  O_19
REMARK    5  A    between atoms: O_19  and  C_20
REMARK    6  A    between atoms: C_20  and  C_21
REMARK                            x       y       z     vdW  Elec       q    Type
REMARK                         _______ _______ _______ _____ _____    ______ ____
ROOT
ATOM      1  C   UNL     1       1.887   4.689  20.833  0.00  0.00    +0.000 C 
ATOM      2  C   UNL     1       2.835   5.118  19.746  0.00  0.00    +0.000 A 
ATOM      3  C   UNL     1       2.657   6.385  19.161  0.00  0.00    +0.000 A 
ATOM      4  C   UNL     1       3.492   6.852  18.137  0.00  0.00    +0.000 A 
ATOM      5 CL   UNL     1       3.099   8.406  17.505  0.00  0.00    +0.000 Cl
ATOM      6  C   UNL     1       4.536   6.043  17.700  0.00  0.00    +0.000 A 
ATOM      7  C   UNL     1       4.748   4.789  18.309  0.00  0.00    +0.000 A 
ATOM      8  C   UNL     1       3.880   4.298  19.295  0.00  0.00    +0.000 A 
ENDROOT
BRANCH   6   9
ATOM      9  S   UNL     1       5.668   6.513  16.411  0.00  0.00    +0.000 S 
ATOM     10  O   UNL     1       4.943   6.937  15.233  0.00  0.00    +0.000 OA
ATOM     11  O   UNL     1       6.631   7.417  17.019  0.00  0.00    +0.000 OA
BRANCH   9  12
ATOM     12  N   UNL     1       6.533   5.108  16.070  0.00  0.00    +0.000 N 
ATOM     13  C   UNL     1       6.709   4.786  14.714  0.00  0.00    +0.000 A 
ATOM     14  C   UNL     1       7.677   5.383  13.927  0.00  0.00    +0.000 A 
ATOM     15  C   UNL     1       7.757   4.985  12.594  0.00  0.00    +0.000 A 
ATOM     16  C   UNL     1       6.860   4.039  12.111  0.00  0.00    +0.000 A 
ATOM     17  C   UNL     1       5.917   3.519  12.985  0.00  0.00    +0.000 A 
ATOM     18  N   UNL     1       5.822   3.871  14.287  0.00  0.00    +0.000 NA
ATOM     19  H   UNL     1       6.151   4.317  16.583  0.00  0.00    +0.000 HD
ENDBRANCH   9  12
ENDBRANCH   6   9
BRANCH   8  20
ATOM     20  O   UNL     1       3.983   3.041  19.848  0.00  0.00    +0.000 OA
BRANCH  20  21
ATOM     21  C   UNL     1       3.723   1.955  18.953  0.00  0.00    +0.000 C 
BRANCH  21  22
ATOM     22  C   UNL     1       2.409   2.049  18.180  0.00  0.00    +0.000 C 
ATOM     23  N   UNL     1       1.286   1.641  18.832  0.00  0.00    +0.000 N 
ATOM     24  O   UNL     1       2.347   2.463  17.026  0.00  0.00    +0.000 OA
ATOM     25  H   UNL     1       1.326   1.288  19.778  0.00  0.00    +0.000 HD
ATOM     26  H   UNL     1       0.400   1.699  18.350  0.00  0.00    +0.000 HD
ENDBRANCH  21  22
ENDBRANCH  20  21
ENDBRANCH   8  20
TORSDOF 5
ENDMDL
MODEL 2
REMARK VINA RESULT:      -7.3      1.305      1.635
REMARK  Name = 
REMARK  6 active torsions:
REMARK  status: ('A' for Active; 'I' for Inactive)
REMARK    1  A    between atoms: C_1  and  C_2
REMARK    2  A    between atoms: C_6  and  S_7
REMARK    3  A    between atoms: S_7  and  N_10
REMARK    4  A    between atoms: C_18  and  O_19
REMARK    5  A    between atoms: O_19  and  C_20
REMARK    6  A    between atoms: C_20  and  C_21
REMARK                            x       y       z     vdW  Elec       q    Type
REMARK                         _______ _______ _______ _____ _____    ______ ____
ROOT
ATOM      1  C   UNL     1       0.820   3.889  19.566  0.00  0.00    +0.000 C 
ATOM      2  C   UNL     1       1.976   4.436  18.774  0.00  0.00    +0.000 A 
ATOM      3  C   UNL     1       2.135   5.831  18.693  0.00  0.00    +0.000 A 
ATOM      4  C   UNL     1       3.181   6.417  17.967  0.00  0.00    +0.000 A 
ATOM      5 CL   UNL     1       3.194   8.139  17.936  0.00  0.00    +0.000 Cl
ATOM      6  C   UNL     1       4.096   5.590  17.322  0.00  0.00    +0.000 A 
ATOM      7  C   UNL     1       3.970   4.190  17.432  0.00  0.00    +0.000 A 
ATOM      8  C   UNL     1       2.892   3.605  18.112  0.00  0.00    +0.000 A 
ENDROOT
BRANCH   6   9
ATOM      9  S   UNL     1       5.468   6.201  16.369  0.00  0.00    +0.000 S 
ATOM     10  O   UNL     1       4.997   6.857  15.168  0.00  0.00    +0.000 OA
ATOM     11  O   UNL     1       6.317   6.935  17.294  0.00  0.00    +0.000 OA
BRANCH   9  12
ATOM     12  N   UNL     1       6.348   4.825  15.956  0.00  0.00    +0.000 N 
ATOM     13  C   UNL     1       6.595   4.618  14.590  0.00  0.00    +0.000 A 
ATOM     14  C   UNL     1       7.605   5.273  13.908  0.00  0.00    +0.000 A 
ATOM     15  C   UNL     1       7.756   4.988  12.552  0.00  0.00    +0.000 A 
ATOM     16  C   UNL     1       6.884   4.092  11.945  0.00  0.00    +0.000 A 
ATOM     17  C   UNL     1       5.895   3.507  12.720  0.00  0.00    +0.000 A 
ATOM     18  N   UNL     1       5.731   3.748  14.040  0.00  0.00    +0.000 NA
ATOM     19  H   UNL     1       5.938   3.996  16.380  0.00  0.00    +0.000 HD
ENDBRANCH   9  12
ENDBRANCH   6   9
BRANCH   8  20
ATOM     20  O   UNL     1       2.668   2.247  18.164  0.00  0.00    +0.000 OA
BRANCH  20  21
ATOM     21  C   UNL     1       3.728   1.472  18.734  0.00  0.00    +0.000 C 
BRANCH  21  22
ATOM     22  C   UNL     1       4.079   1.816  20.181  0.00  0.00    +0.000 C 
ATOM     23  N   UNL     1       5.371   1.611  20.561  0.00  0.00    +0.000 N 
ATOM     24  O   UNL     1       3.254   2.252  20.978  0.00  0.00    +0.000 OA
ATOM     25  H   UNL     1       6.056   1.243  19.917  0.00  0.00    +0.000 HD
ATOM     26  H   UNL     1       5.636   1.838  21.509  0.00  0.00    +0.000 HD
ENDBRANCH  21  22
ENDBRANCH  20  21
ENDBRANCH   8  20
TORSDOF 5
ENDMDL
MODEL 3
REMARK VINA RESULT:      -7.1      1.783      1.991
REMARK  Name = 
REMARK  6 active torsions:
REMARK  status: ('A' for Active; 'I' for Inactive)
REMARK    1  A    between atoms: C_1  and  C_2
REMARK    2  A    between atoms: C_6  and  S_7
REMARK    3  A    between atoms: S_7  and  N_10
REMARK    4  A    between atoms: C_18  and  O_19
REMARK    5  A    between atoms: O_19  and  C_20
REMARK    6  A    between atoms: C_20  and  C_21
REMARK                            x       y       z     vdW  Elec       q    Type
REMARK                         _______ _______ _______ _____ _____    ______ ____
ROOT
ATOM      1  C   UNL     1       2.837   4.363  20.813  0.00  0.00    +0.000 C 
ATOM      2  C   UNL     1       3.665   4.862  19.660  0.00  0.00    +0.000 A 
ATOM      3  C   UNL     1       5.050   5.027  19.848  0.00  0.00    +0.000 A 
ATOM      4  C   UNL     1       5.885   5.496  18.827  0.00  0.00    +0.000 A 
ATOM      5 CL   UNL     1       7.546   5.682  19.248  0.00  0.00    +0.000 Cl
ATOM      6  C   UNL     1       5.329   5.792  17.586  0.00  0.00    +0.000 A 
ATOM      7  C   UNL     1       3.950   5.591  17.375  0.00  0.00    +0.000 A 
ATOM      8  C   UNL     1       3.104   5.174  18.412  0.00  0.00    +0.000 A 
ENDROOT
BRANCH   6   9
ATOM      9  S   UNL     1       6.275   6.394  16.205  0.00  0.00    +0.000 S 
ATOM     10  O   UNL     1       5.395   6.811  15.134  0.00  0.00    +0.000 OA
ATOM     11  O   UNL     1       7.236   7.340  16.746  0.00  0.00    +0.000 OA
BRANCH   9  12
ATOM     12  N   UNL     1       7.189   5.070  15.704  0.00  0.00    +0.000 N 
ATOM     13  C   UNL     1       7.098   4.714  14.349  0.00  0.00    +0.000 A 
ATOM     14  C   UNL     1       7.802   5.372  13.357  0.00  0.00    +0.000 A 
ATOM     15  C   UNL     1       7.631   4.932  12.046  0.00  0.00    +0.000 A 
ATOM     16  C   UNL     1       6.757   3.883  11.790  0.00  0.00    +0.000 A 
ATOM     17  C   UNL     1       6.087   3.307  12.859  0.00  0.00    +0.000 A 
ATOM     18  N   UNL     1       6.242   3.699  14.144  0.00  0.00    +0.000 NA
ATOM     19  H   UNL     1       7.014   4.266  16.302  0.00  0.00    +0.000 HD
ENDBRANCH   9  12
ENDBRANCH   6   9
BRANCH   8  20
ATOM     20  O   UNL     1       1.737   5.059  18.286  0.00  0.00    +0.000 OA
BRANCH  20  21
ATOM     21  C   UNL     1       1.286   3.935  17.522  0.00  0.00    +0.000 C 
BRANCH  21  22
ATOM     22  C   UNL     1       1.189   2.620  18.294  0.00  0.00    +0.000 C 
ATOM     23  N   UNL     1       2.245   1.767  18.181  0.00  0.00    +0.000 N 
ATOM     24  O   UNL     1       0.217   2.325  18.983  0.00  0.00    +0.000 OA
ATOM     25  H   UNL     1       3.046   1.995  17.609  0.00  0.00    +0.000 HD
ATOM     26  H   UNL     1       2.214   0.894  18.687  0.00  0.00    +0.000 HD
ENDBRANCH  21  22
ENDBRANCH  20  21
ENDBRANCH   8  20
TORSDOF 5
ENDMDL
MODEL 4
REMARK VINA RESULT:      -7.0      2.732      6.349
REMARK  Name = 
REMARK  6 active torsions:
REMARK  status: ('A' for Active; 'I' for Inactive)
REMARK    1  A    between atoms: C_1  and  C_2
REMARK    2  A    between atoms: C_6  and  S_7
REMARK    3  A    between atoms: S_7  and  N_10
REMARK    4  A    between atoms: C_18  and  O_19
REMARK    5  A    between atoms: O_19  and  C_20
REMARK    6  A    between atoms: C_20  and  C_21
REMARK                            x       y       z     vdW  Elec       q    Type
REMARK                         _______ _______ _______ _____ _____    ______ ____
ROOT
ATOM      1  C   UNL     1       7.824   5.350  13.226  0.00  0.00    +0.000 C 
ATOM      2  C   UNL     1       7.236   5.192  14.602  0.00  0.00    +0.000 A 
ATOM      3  C   UNL     1       7.619   6.103  15.604  0.00  0.00    +0.000 A 
ATOM      4  C   UNL     1       7.123   6.016  16.911  0.00  0.00    +0.000 A 
ATOM      5 CL   UNL     1       7.736   7.184  18.020  0.00  0.00    +0.000 Cl
ATOM      6  C   UNL     1       6.214   5.009  17.220  0.00  0.00    +0.000 A 
ATOM      7  C   UNL     1       5.793   4.117  16.212  0.00  0.00    +0.000 A 
ATOM      8  C   UNL     1       6.330   4.170  14.918  0.00  0.00    +0.000 A 
ENDROOT
BRANCH   6   9
ATOM      9  S   UNL     1       5.507   4.786  18.837  0.00  0.00    +0.000 S 
ATOM     10  O   UNL     1       6.536   4.860  19.852  0.00  0.00    +0.000 OA
ATOM     11  O   UNL     1       4.366   5.684  18.914  0.00  0.00    +0.000 OA
BRANCH   9  12
ATOM     12  N   UNL     1       4.851   3.235  18.807  0.00  0.00    +0.000 N 
ATOM     13  C   UNL     1       3.468   3.128  19.024  0.00  0.00    +0.000 A 
ATOM     14  C   UNL     1       2.538   3.368  18.029  0.00  0.00    +0.000 A 
ATOM     15  C   UNL     1       1.191   3.232  18.361  0.00  0.00    +0.000 A 
ATOM     16  C   UNL     1       0.843   2.891  19.663  0.00  0.00    +0.000 A 
ATOM     17  C   UNL     1       1.858   2.692  20.586  0.00  0.00    +0.000 A 
ATOM     18  N   UNL     1       3.174   2.800  20.293  0.00  0.00    +0.000 NA
ATOM     19  H   UNL     1       5.364   2.616  19.430  0.00  0.00    +0.000 HD
ENDBRANCH   9  12
ENDBRANCH   6   9
BRANCH   8  20
ATOM     20  O   UNL     1       6.028   3.262  13.927  0.00  0.00    +0.000 OA
BRANCH  20  21
ATOM     21  C   UNL     1       5.027   3.684  12.995  0.00  0.00    +0.000 C 
BRANCH  21  22
ATOM     22  C   UNL     1       4.895   2.816  11.744  0.00  0.00    +0.000 C 
ATOM     23  N   UNL     1       5.844   1.856  11.564  0.00  0.00    +0.000 N 
ATOM     24  O   UNL     1       3.991   2.963  10.927  0.00  0.00    +0.000 OA
ATOM     25  H   UNL     1       6.599   1.733  12.225  0.00  0.00    +0.000 HD
ATOM     26  H   UNL     1       5.779   1.261  10.752  0.00  0.00    +0.000 HD
ENDBRANCH  21  22
ENDBRANCH  20  21
ENDBRANCH   8  20
TORSDOF 5
ENDMDL
MODEL 5
REMARK VINA RESULT:      -7.0      3.570      6.964
REMARK  Name = 
REMARK  6 active torsions:
REMARK  status: ('A' for Active; 'I' for Inactive)
REMARK    1  A    between atoms: C_1  and  C_2
REMARK    2  A    between atoms: C_6  and  S_7
REMARK    3  A    between atoms: S_7  and  N_10
REMARK    4  A    between atoms: C_18  and  O_19
REMARK    5  A    between atoms: O_19  and  C_20
REMARK    6  A    between atoms: C_20  and  C_21
REMARK                            x       y       z     vdW  Elec       q    Type
REMARK                         _______ _______ _______ _____ _____    ______ ____
ROOT
ATOM      1  C   UNL     1       5.543   3.941  15.241  0.00  0.00    +0.000 C 
ATOM      2  C   UNL     1       4.723   4.306  16.448  0.00  0.00    +0.000 A 
ATOM      3  C   UNL     1       3.708   3.424  16.862  0.00  0.00    +0.000 A 
ATOM      4  C   UNL     1       2.895   3.698  17.970  0.00  0.00    +0.000 A 
ATOM      5 CL   UNL     1       1.672   2.531  18.304  0.00  0.00    +0.000 Cl
ATOM      6  C   UNL     1       3.111   4.869  18.689  0.00  0.00    +0.000 A 
ATOM      7  C   UNL     1       4.153   5.739  18.307  0.00  0.00    +0.000 A 
ATOM      8  C   UNL     1       4.930   5.493  17.166  0.00  0.00    +0.000 A 
ENDROOT
BRANCH   6   9
ATOM      9  S   UNL     1       2.154   5.337  20.114  0.00  0.00    +0.000 S 
ATOM     10  O   UNL     1       0.742   5.332  19.797  0.00  0.00    +0.000 OA
ATOM     11  O   UNL     1       2.639   4.527  21.219  0.00  0.00    +0.000 OA
BRANCH   9  12
ATOM     12  N   UNL     1       2.651   6.908  20.464  0.00  0.00    +0.000 N 
ATOM     13  C   UNL     1       1.670   7.912  20.403  0.00  0.00    +0.000 A 
ATOM     14  C   UNL     1       0.771   8.137  21.428  0.00  0.00    +0.000 A 
ATOM     15  C   UNL     1      -0.159   9.160  21.255  0.00  0.00    +0.000 A 
ATOM     16  C   UNL     1      -0.162   9.883  20.068  0.00  0.00    +0.000 A 
ATOM     17  C   UNL     1       0.774   9.559  19.097  0.00  0.00    +0.000 A 
ATOM     18  N   UNL     1       1.700   8.584  19.240  0.00  0.00    +0.000 NA
ATOM     19  H   UNL     1       3.463   7.161  19.907  0.00  0.00    +0.000 HD
ENDBRANCH   9  12
ENDBRANCH   6   9
BRANCH   8  20
ATOM     20  O   UNL     1       5.891   6.359  16.694  0.00  0.00    +0.000 OA
BRANCH  20  21
ATOM     21  C   UNL     1       7.006   6.571  17.566  0.00  0.00    +0.000 C 
BRANCH  21  22
ATOM     22  C   UNL     1       7.620   5.303  18.157  0.00  0.00    +0.000 C 
ATOM     23  N   UNL     1       7.608   5.194  19.515  0.00  0.00    +0.000 N 
ATOM     24  O   UNL     1       8.110   4.418  17.463  0.00  0.00    +0.000 OA
ATOM     25  H   UNL     1       7.217   5.922  20.097  0.00  0.00    +0.000 HD
ATOM     26  H   UNL     1       7.999   4.363  19.935  0.00  0.00    +0.000 HD
ENDBRANCH  21  22
ENDBRANCH  20  21
ENDBRANCH   8  20
TORSDOF 5
ENDMDL
MODEL 6
REMARK VINA RESULT:      -6.9      1.296      1.650
REMARK  Name = 
REMARK  6 active torsions:
REMARK  status: ('A' for Active; 'I' for Inactive)
REMARK    1  A    between atoms: C_1  and  C_2
REMARK    2  A    between atoms: C_6  and  S_7
REMARK    3  A    between atoms: S_7  and  N_10
REMARK    4  A    between atoms: C_18  and  O_19
REMARK    5  A    between atoms: O_19  and  C_20
REMARK    6  A    between atoms: C_20  and  C_21
REMARK                            x       y       z     vdW  Elec       q    Type
REMARK                         _______ _______ _______ _____ _____    ______ ____
ROOT
ATOM      1  C   UNL     1       1.659   4.634  20.263  0.00  0.00    +0.000 C 
ATOM      2  C   UNL     1       2.970   4.890  19.571  0.00  0.00    +0.000 A 
ATOM      3  C   UNL     1       3.164   6.131  18.937  0.00  0.00    +0.000 A 
ATOM      4  C   UNL     1       4.353   6.440  18.263  0.00  0.00    +0.000 A 
ATOM      5 CL   UNL     1       4.399   7.987  17.504  0.00  0.00    +0.000 Cl
ATOM      6  C   UNL     1       5.375   5.497  18.236  0.00  0.00    +0.000 A 
ATOM      7  C   UNL     1       5.207   4.267  18.903  0.00  0.00    +0.000 A 
ATOM      8  C   UNL     1       3.997   3.935  19.530  0.00  0.00    +0.000 A 
ENDROOT
BRANCH   6   9
ATOM      9  S   UNL     1       6.933   5.761  17.419  0.00  0.00    +0.000 S 
ATOM     10  O   UNL     1       7.718   6.744  18.135  0.00  0.00    +0.000 OA
ATOM     11  O   UNL     1       7.496   4.444  17.170  0.00  0.00    +0.000 OA
BRANCH   9  12
ATOM     12  N   UNL     1       6.522   6.362  15.899  0.00  0.00    +0.000 N 
ATOM     13  C   UNL     1       6.413   5.427  14.857  0.00  0.00    +0.000 A 
ATOM     14  C   UNL     1       5.288   4.644  14.675  0.00  0.00    +0.000 A 
ATOM     15  C   UNL     1       5.293   3.749  13.606  0.00  0.00    +0.000 A 
ATOM     16  C   UNL     1       6.419   3.664  12.796  0.00  0.00    +0.000 A 
ATOM     17  C   UNL     1       7.500   4.485  13.081  0.00  0.00    +0.000 A 
ATOM     18  N   UNL     1       7.521   5.375  14.099  0.00  0.00    +0.000 NA
ATOM     19  H   UNL     1       7.139   7.127  15.637  0.00  0.00    +0.000 HD
ENDBRANCH   9  12
ENDBRANCH   6   9
BRANCH   8  20
ATOM     20  O   UNL     1       3.746   2.710  20.109  0.00  0.00    +0.000 OA
BRANCH  20  21
ATOM     21  C   UNL     1       3.546   1.630  19.192  0.00  0.00    +0.000 C 
BRANCH  21  22
ATOM     22  C   UNL     1       2.412   1.830  18.187  0.00  0.00    +0.000 C 
ATOM     23  N   UNL     1       1.146   1.628  18.647  0.00  0.00    +0.000 N 
ATOM     24  O   UNL     1       2.609   2.152  17.020  0.00  0.00    +0.000 OA
ATOM     25  H   UNL     1       0.972   1.353  19.604  0.00  0.00    +0.000 HD
ATOM     26  H   UNL     1       0.375   1.761  18.009  0.00  0.00    +0.000 HD
ENDBRANCH  21  22
ENDBRANCH  20  21
ENDBRANCH   8  20
TORSDOF 5
ENDMDL
MODEL 7
REMARK VINA RESULT:      -6.8      2.015      2.681
REMARK  Name = 
REMARK  6 active torsions:
REMARK  status: ('A' for Active; 'I' for Inactive)
REMARK    1  A    between atoms: C_1  and  C_2
REMARK    2  A    between atoms: C_6  and  S_7
REMARK    3  A    between atoms: S_7  and  N_10
REMARK    4  A    between atoms: C_18  and  O_19
REMARK    5  A    between atoms: O_19  and  C_20
REMARK    6  A    between atoms: C_20  and  C_21
REMARK                            x       y       z     vdW  Elec       q    Type
REMARK                         _______ _______ _______ _____ _____    ______ ____
ROOT
ATOM      1  C   UNL     1       1.481   3.301  19.193  0.00  0.00    +0.000 C 
ATOM      2  C   UNL     1       2.813   3.857  18.769  0.00  0.00    +0.000 A 
ATOM      3  C   UNL     1       2.849   5.133  18.177  0.00  0.00    +0.000 A 
ATOM      4  C   UNL     1       4.049   5.716  17.746  0.00  0.00    +0.000 A 
ATOM      5 CL   UNL     1       3.901   7.262  17.000  0.00  0.00    +0.000 Cl
ATOM      6  C   UNL     1       5.238   5.016  17.926  0.00  0.00    +0.000 A 
ATOM      7  C   UNL     1       5.217   3.755  18.556  0.00  0.00    +0.000 A 
ATOM      8  C   UNL     1       4.011   3.148  18.936  0.00  0.00    +0.000 A 
ENDROOT
BRANCH   6   9
ATOM      9  S   UNL     1       6.828   5.639  17.427  0.00  0.00    +0.000 S 
ATOM     10  O   UNL     1       7.283   6.657  18.349  0.00  0.00    +0.000 OA
ATOM     11  O   UNL     1       7.666   4.476  17.180  0.00  0.00    +0.000 OA
BRANCH   9  12
ATOM     12  N   UNL     1       6.562   6.324  15.911  0.00  0.00    +0.000 N 
ATOM     13  C   UNL     1       6.497   5.442  14.820  0.00  0.00    +0.000 A 
ATOM     14  C   UNL     1       5.359   4.718  14.515  0.00  0.00    +0.000 A 
ATOM     15  C   UNL     1       5.411   3.872  13.409  0.00  0.00    +0.000 A 
ATOM     16  C   UNL     1       6.593   3.774  12.683  0.00  0.00    +0.000 A 
ATOM     17  C   UNL     1       7.680   4.533  13.090  0.00  0.00    +0.000 A 
ATOM     18  N   UNL     1       7.658   5.375  14.148  0.00  0.00    +0.000 NA
ATOM     19  H   UNL     1       7.228   7.071  15.733  0.00  0.00    +0.000 HD
ENDBRANCH   9  12
ENDBRANCH   6   9
BRANCH   8  20
ATOM     20  O   UNL     1       3.927   1.878  19.463  0.00  0.00    +0.000 OA
BRANCH  20  21
ATOM     21  C   UNL     1       4.284   1.763  20.844  0.00  0.00    +0.000 C 
BRANCH  21  22
ATOM     22  C   UNL     1       5.453   0.824  21.138  0.00  0.00    +0.000 C 
ATOM     23  N   UNL     1       5.775  -0.074  20.165  0.00  0.00    +0.000 N 
ATOM     24  O   UNL     1       6.082   0.856  22.191  0.00  0.00    +0.000 OA
ATOM     25  H   UNL     1       5.258  -0.117  19.298  0.00  0.00    +0.000 HD
ATOM     26  H   UNL     1       6.549  -0.702  20.326  0.00  0.00    +0.000 HD
ENDBRANCH  21  22
ENDBRANCH  20  21
ENDBRANCH   8  20
TORSDOF 5
ENDMDL
MODEL 8
REMARK VINA RESULT:      -6.8      2.169      2.673
REMARK  Name = 
REMARK  6 active torsions:
REMARK  status: ('A' for Active; 'I' for Inactive)
REMARK    1  A    between atoms: C_1  and  C_2
REMARK    2  A    between atoms: C_6  and  S_7
REMARK    3  A    between atoms: S_7  and  N_10
REMARK    4  A    between atoms: C_18  and  O_19
REMARK    5  A    between atoms: O_19  and  C_20
REMARK    6  A    between atoms: C_20  and  C_21
REMARK                            x       y       z     vdW  Elec       q    Type
REMARK                         _______ _______ _______ _____ _____    ______ ____
ROOT
ATOM      1  C   UNL     1       2.232   7.509  18.878  0.00  0.00    +0.000 C 
ATOM      2  C   UNL     1       3.293   6.710  18.171  0.00  0.00    +0.000 A 
ATOM      3  C   UNL     1       4.537   7.317  17.922  0.00  0.00    +0.000 A 
ATOM      4  C   UNL     1       5.571   6.642  17.261  0.00  0.00    +0.000 A 
ATOM      5 CL   UNL     1       7.009   7.554  16.998  0.00  0.00    +0.000 Cl
ATOM      6  C   UNL     1       5.364   5.327  16.855  0.00  0.00    +0.000 A 
ATOM      7  C   UNL     1       4.136   4.696  17.138  0.00  0.00    +0.000 A 
ATOM      8  C   UNL     1       3.081   5.389  17.750  0.00  0.00    +0.000 A 
ENDROOT
BRANCH   6   9
ATOM      9  S   UNL     1       6.591   4.356  16.009  0.00  0.00    +0.000 S 
ATOM     10  O   UNL     1       7.873   4.474  16.671  0.00  0.00    +0.000 OA
ATOM     11  O   UNL     1       6.010   3.038  15.814  0.00  0.00    +0.000 OA
BRANCH   9  12
ATOM     12  N   UNL     1       6.684   5.032  14.469  0.00  0.00    +0.000 N 
ATOM     13  C   UNL     1       6.261   4.229  13.398  0.00  0.00    +0.000 A 
ATOM     14  C   UNL     1       4.927   4.066  13.071  0.00  0.00    +0.000 A 
ATOM     15  C   UNL     1       4.626   3.243  11.988  0.00  0.00    +0.000 A 
ATOM     16  C   UNL     1       5.659   2.611  11.306  0.00  0.00    +0.000 A 
ATOM     17  C   UNL     1       6.961   2.831  11.731  0.00  0.00    +0.000 A 
ATOM     18  N   UNL     1       7.289   3.635  12.768  0.00  0.00    +0.000 NA
ATOM     19  H   UNL     1       7.614   5.406  14.296  0.00  0.00    +0.000 HD
ENDBRANCH   9  12
ENDBRANCH   6   9
BRANCH   8  20
ATOM     20  O   UNL     1       1.830   4.850  17.957  0.00  0.00    +0.000 OA
BRANCH  20  21
ATOM     21  C   UNL     1       1.736   3.920  19.041  0.00  0.00    +0.000 C 
BRANCH  21  22
ATOM     22  C   UNL     1       1.382   2.489  18.641  0.00  0.00    +0.000 C 
ATOM     23  N   UNL     1       2.418   1.612  18.529  0.00  0.00    +0.000 N 
ATOM     24  O   UNL     1       0.230   2.126  18.423  0.00  0.00    +0.000 OA
ATOM     25  H   UNL     1       3.372   1.901  18.696  0.00  0.00    +0.000 HD
ATOM     26  H   UNL     1       2.215   0.656  18.275  0.00  0.00    +0.000 HD
ENDBRANCH  21  22
ENDBRANCH  20  21
ENDBRANCH   8  20
TORSDOF 5
ENDMDL
MODEL 9
REMARK VINA RESULT:      -6.7      3.428      7.160
REMARK  Name = 
REMARK  6 active torsions:
REMARK  status: ('A' for Active; 'I' for Inactive)
REMARK    1  A    between atoms: C_1  and  C_2
REMARK    2  A    between atoms: C_6  and  S_7
REMARK    3  A    between atoms: S_7  and  N_10
REMARK    4  A    between atoms: C_18  and  O_19
REMARK    5  A    between atoms: O_19  and  C_20
REMARK    6  A    between atoms: C_20  and  C_21
REMARK                            x       y       z     vdW  Elec       q    Type
REMARK                         _______ _______ _______ _____ _____    ______ ____
ROOT
ATOM      1  C   UNL     1       6.219   4.158  14.898  0.00  0.00    +0.000 C 
ATOM      2  C   UNL     1       5.304   4.426  16.061  0.00  0.00    +0.000 A 
ATOM      3  C   UNL     1       4.371   3.437  16.424  0.00  0.00    +0.000 A 
ATOM      4  C   UNL     1       3.478   3.615  17.489  0.00  0.00    +0.000 A 
ATOM      5 CL   UNL     1       2.375   2.321  17.761  0.00  0.00    +0.000 Cl
ATOM      6  C   UNL     1       3.529   4.800  18.217  0.00  0.00    +0.000 A 
ATOM      7  C   UNL     1       4.488   5.780  17.887  0.00  0.00    +0.000 A 
ATOM      8  C   UNL     1       5.344   5.625  16.788  0.00  0.00    +0.000 A 
ENDROOT
BRANCH   6   9
ATOM      9  S   UNL     1       2.456   5.155  19.590  0.00  0.00    +0.000 S 
ATOM     10  O   UNL     1       1.077   5.206  19.153  0.00  0.00    +0.000 OA
ATOM     11  O   UNL     1       2.832   4.237  20.653  0.00  0.00    +0.000 OA
BRANCH   9  12
ATOM     12  N   UNL     1       2.938   6.677  20.127  0.00  0.00    +0.000 N 
ATOM     13  C   UNL     1       1.944   7.666  20.201  0.00  0.00    +0.000 A 
ATOM     14  C   UNL     1       1.056   7.751  21.257  0.00  0.00    +0.000 A 
ATOM     15  C   UNL     1       0.110   8.774  21.223  0.00  0.00    +0.000 A 
ATOM     16  C   UNL     1       0.083   9.638  20.134  0.00  0.00    +0.000 A 
ATOM     17  C   UNL     1       1.009   9.450  19.120  0.00  0.00    +0.000 A 
ATOM     18  N   UNL     1       1.950   8.478  19.130  0.00  0.00    +0.000 NA
ATOM     19  H   UNL     1       3.739   7.008  19.595  0.00  0.00    +0.000 HD
ENDBRANCH   9  12
ENDBRANCH   6   9
BRANCH   8  20
ATOM     20  O   UNL     1       6.228   6.593  16.364  0.00  0.00    +0.000 OA
BRANCH  20  21
ATOM     21  C   UNL     1       7.513   6.567  16.994  0.00  0.00    +0.000 C 
BRANCH  21  22
ATOM     22  C   UNL     1       7.838   7.783  17.859  0.00  0.00    +0.000 C 
ATOM     23  N   UNL     1       8.547   7.550  18.999  0.00  0.00    +0.000 N 
ATOM     24  O   UNL     1       7.484   8.921  17.565  0.00  0.00    +0.000 OA
ATOM     25  H   UNL     1       8.834   6.617  19.257  0.00  0.00    +0.000 HD
ATOM     26  H   UNL     1       8.785   8.335  19.587  0.00  0.00    +0.000 HD
ENDBRANCH  21  22
ENDBRANCH  20  21
ENDBRANCH   8  20
TORSDOF 5
ENDMDL
