MODEL 1
REMARK VINA RESULT:      -7.9      0.000      0.000
REMARK  Name = 
REMARK  5 active torsions:
REMARK  status: ('A' for Active; 'I' for Inactive)
REMARK    1  A    between atoms: N_1  and  C_2
REMARK    2  A    between atoms: C_2  and  C_3
REMARK    3  A    between atoms: C_3  and  C_4
REMARK    4  A    between atoms: C_8  and  C_9
REMARK    5  A    between atoms: C_16  and  C_17
REMARK                            x       y       z     vdW  Elec       q    Type
REMARK                         _______ _______ _______ _____ _____    ______ ____
ROOT
ATOM      1  C   UNL     1       1.473   8.871  19.952  0.00  0.00    +0.000 A 
ATOM      2  C   UNL     1       1.649   9.169  18.592  0.00  0.00    +0.000 A 
ATOM      3  C   UNL     1       2.013   8.186  17.680  0.00  0.00    +0.000 A 
ATOM      4  C   UNL     1       2.231   6.880  18.117  0.00  0.00    +0.000 A 
ATOM      5  C   UNL     1       2.268   6.551  19.471  0.00  0.00    +0.000 A 
ATOM      6  C   UNL     1       1.867   7.573  20.363  0.00  0.00    +0.000 A 
ENDROOT
BRANCH   5   7
ATOM      7  C   UNL     1       2.600   5.197  19.954  0.00  0.00    +0.000 A 
ATOM      8  C   UNL     1       1.761   4.564  20.903  0.00  0.00    +0.000 A 
ATOM      9  C   UNL     1       2.044   3.294  21.373  0.00  0.00    +0.000 A 
ATOM     10  N   UNL     1       3.083   2.546  20.977  0.00  0.00    +0.000 NA
ATOM     11  C   UNL     1       3.861   3.162  20.071  0.00  0.00    +0.000 A 
ATOM     12  N   UNL     1       4.961   2.593  19.519  0.00  0.00    +0.000 N 
ATOM     13  N   UNL     1       5.606   3.382  18.657  0.00  0.00    +0.000 NA
ATOM     14  C   UNL     1       4.902   4.539  18.667  0.00  0.00    +0.000 A 
ATOM     15  C   UNL     1       3.733   4.439  19.520  0.00  0.00    +0.000 A 
ATOM     16  H   UNL     1       5.319   1.660  19.706  0.00  0.00    +0.000 HD
BRANCH  14  17
ATOM     17  C   UNL     1       5.415   5.698  17.844  0.00  0.00    +0.000 C 
ATOM     18  F   UNL     1       6.740   5.583  17.540  0.00  0.00    +0.000 F 
ATOM     19  F   UNL     1       4.783   5.806  16.644  0.00  0.00    +0.000 F 
ATOM     20  F   UNL     1       5.282   6.889  18.483  0.00  0.00    +0.000 F 
ENDBRANCH  14  17
ENDBRANCH   5   7
BRANCH   1  21
ATOM     21  C   UNL     1       0.724   9.886  20.958  0.00  0.00    +0.000 C 
ATOM     22  C   UNL     1      -0.718  10.351  20.630  0.00  0.00    +0.000 C 
ATOM     23  O   UNL     1      -0.241  11.642  20.175  0.00  0.00    +0.000 OA
ATOM     24  C   UNL     1       1.039  11.399  20.808  0.00  0.00    +0.000 C 
BRANCH  21  25
ATOM     25  C   UNL     1       0.894   9.391  22.411  0.00  0.00    +0.000 C 
BRANCH  25  26
ATOM     26  N   UNL     1      -0.014  10.069  23.345  0.00  0.00    +0.000 NA
ATOM     27  H   UNL     1       0.531  10.609  24.016  0.00  0.00    +0.000 HD
ATOM     28  H   UNL     1      -0.505   9.365  23.904  0.00  0.00    +0.000 HD
ENDBRANCH  25  26
ENDBRANCH  21  25
ENDBRANCH   1  21
TORSDOF 5
ENDMDL
MODEL 2
REMARK VINA RESULT:      -7.7      0.731      1.095
REMARK  Name = 
REMARK  5 active torsions:
REMARK  status: ('A' for Active; 'I' for Inactive)
REMARK    1  A    between atoms: N_1  and  C_2
REMARK    2  A    between atoms: C_2  and  C_3
REMARK    3  A    between atoms: C_3  and  C_4
REMARK    4  A    between atoms: C_8  and  C_9
REMARK    5  A    between atoms: C_16  and  C_17
REMARK                            x       y       z     vdW  Elec       q    Type
REMARK                         _______ _______ _______ _____ _____    ______ ____
ROOT
ATOM      1  C   UNL     1       1.372   9.200  19.954  0.00  0.00    +0.000 A 
ATOM      2  C   UNL     1       1.438   9.647  18.625  0.00  0.00    +0.000 A 
ATOM      3  C   UNL     1       1.831   8.798  17.598  0.00  0.00    +0.000 A 
ATOM      4  C   UNL     1       2.191   7.482  17.884  0.00  0.00    +0.000 A 
ATOM      5  C   UNL     1       2.338   7.025  19.192  0.00  0.00    +0.000 A 
ATOM      6  C   UNL     1       1.904   7.911  20.206  0.00  0.00    +0.000 A 
ENDROOT
BRANCH   5   7
ATOM      7  C   UNL     1       2.818   5.667  19.514  0.00  0.00    +0.000 A 
ATOM      8  C   UNL     1       2.111   4.876  20.452  0.00  0.00    +0.000 A 
ATOM      9  C   UNL     1       2.535   3.598  20.773  0.00  0.00    +0.000 A 
ATOM     10  N   UNL     1       3.597   2.986  20.232  0.00  0.00    +0.000 NA
ATOM     11  C   UNL     1       4.247   3.751  19.340  0.00  0.00    +0.000 A 
ATOM     12  N   UNL     1       5.343   3.337  18.657  0.00  0.00    +0.000 N 
ATOM     13  N   UNL     1       5.852   4.257  17.834  0.00  0.00    +0.000 NA
ATOM     14  C   UNL     1       5.058   5.341  18.009  0.00  0.00    +0.000 A 
ATOM     15  C   UNL     1       3.972   5.057  18.928  0.00  0.00    +0.000 A 
ATOM     16  H   UNL     1       5.791   2.426  18.725  0.00  0.00    +0.000 HD
BRANCH  14  17
ATOM     17  C   UNL     1       5.407   6.612  17.271  0.00  0.00    +0.000 C 
ATOM     18  F   UNL     1       5.144   7.734  18.002  0.00  0.00    +0.000 F 
ATOM     19  F   UNL     1       6.730   6.690  16.964  0.00  0.00    +0.000 F 
ATOM     20  F   UNL     1       4.711   6.750  16.114  0.00  0.00    +0.000 F 
ENDBRANCH  14  17
ENDBRANCH   5   7
BRANCH   1  21
ATOM     21  C   UNL     1       0.597  10.035  21.096  0.00  0.00    +0.000 C 
ATOM     22  C   UNL     1      -0.866  10.480  20.849  0.00  0.00    +0.000 C 
ATOM     23  O   UNL     1      -0.448  11.840  20.573  0.00  0.00    +0.000 OA
ATOM     24  C   UNL     1       0.849  11.566  21.154  0.00  0.00    +0.000 C 
BRANCH  21  25
ATOM     25  C   UNL     1       0.809   9.352  22.465  0.00  0.00    +0.000 C 
BRANCH  25  26
ATOM     26  N   UNL     1      -0.158   9.805  23.474  0.00  0.00    +0.000 NA
ATOM     27  H   UNL     1      -0.206   9.122  24.229  0.00  0.00    +0.000 HD
ATOM     28  H   UNL     1      -1.094   9.813  23.060  0.00  0.00    +0.000 HD
ENDBRANCH  25  26
ENDBRANCH  21  25
ENDBRANCH   1  21
TORSDOF 5
ENDMDL
MODEL 3
REMARK VINA RESULT:      -7.5      2.683      3.872
REMARK  Name = 
REMARK  5 active torsions:
REMARK  status: ('A' for Active; 'I' for Inactive)
REMARK    1  A    between atoms: N_1  and  C_2
REMARK    2  A    between atoms: C_2  and  C_3
REMARK    3  A    between atoms: C_3  and  C_4
REMARK    4  A    between atoms: C_8  and  C_9
REMARK    5  A    between atoms: C_16  and  C_17
REMARK                            x       y       z     vdW  Elec       q    Type
REMARK                         _______ _______ _______ _____ _____    ______ ____
ROOT
ATOM      1  C   UNL     1       1.480   8.861  19.209  0.00  0.00    +0.000 A 
ATOM      2  C   UNL     1       1.137   8.350  20.470  0.00  0.00    +0.000 A 
ATOM      3  C   UNL     1       1.684   7.162  20.939  0.00  0.00    +0.000 A 
ATOM      4  C   UNL     1       2.574   6.444  20.140  0.00  0.00    +0.000 A 
ATOM      5  C   UNL     1       2.809   6.784  18.809  0.00  0.00    +0.000 A 
ATOM      6  C   UNL     1       2.254   8.012  18.380  0.00  0.00    +0.000 A 
ENDROOT
BRANCH   5   7
ATOM      7  C   UNL     1       3.667   5.977  17.920  0.00  0.00    +0.000 A 
ATOM      8  C   UNL     1       4.569   6.622  17.039  0.00  0.00    +0.000 A 
ATOM      9  C   UNL     1       5.388   5.892  16.195  0.00  0.00    +0.000 A 
ATOM     10  N   UNL     1       5.434   4.554  16.142  0.00  0.00    +0.000 NA
ATOM     11  C   UNL     1       4.576   3.964  16.991  0.00  0.00    +0.000 A 
ATOM     12  N   UNL     1       4.458   2.619  17.120  0.00  0.00    +0.000 N 
ATOM     13  N   UNL     1       3.533   2.237  18.002  0.00  0.00    +0.000 NA
ATOM     14  C   UNL     1       3.000   3.397  18.456  0.00  0.00    +0.000 A 
ATOM     15  C   UNL     1       3.671   4.547  17.879  0.00  0.00    +0.000 A 
ATOM     16  H   UNL     1       4.989   1.912  16.616  0.00  0.00    +0.000 HD
BRANCH  14  17
ATOM     17  C   UNL     1       1.847   3.325  19.430  0.00  0.00    +0.000 C 
ATOM     18  F   UNL     1       1.267   2.090  19.469  0.00  0.00    +0.000 F 
ATOM     19  F   UNL     1       2.229   3.579  20.710  0.00  0.00    +0.000 F 
ATOM     20  F   UNL     1       0.850   4.194  19.121  0.00  0.00    +0.000 F 
ENDBRANCH  14  17
ENDBRANCH   5   7
BRANCH   1  21
ATOM     21  C   UNL     1       1.146  10.382  18.787  0.00  0.00    +0.000 C 
ATOM     22  C   UNL     1       0.821  11.421  19.890  0.00  0.00    +0.000 C 
ATOM     23  O   UNL     1      -0.596  11.354  19.592  0.00  0.00    +0.000 OA
ATOM     24  C   UNL     1      -0.306  10.694  18.336  0.00  0.00    +0.000 C 
BRANCH  21  25
ATOM     25  C   UNL     1       2.197  10.876  17.769  0.00  0.00    +0.000 C 
BRANCH  25  26
ATOM     26  N   UNL     1       2.310  12.341  17.744  0.00  0.00    +0.000 NA
ATOM     27  H   UNL     1       2.858  12.625  16.933  0.00  0.00    +0.000 HD
ATOM     28  H   UNL     1       2.854  12.648  18.555  0.00  0.00    +0.000 HD
ENDBRANCH  25  26
ENDBRANCH  21  25
ENDBRANCH   1  21
TORSDOF 5
ENDMDL
MODEL 4
REMARK VINA RESULT:      -7.5      0.929      1.276
REMARK  Name = 
REMARK  5 active torsions:
REMARK  status: ('A' for Active; 'I' for Inactive)
REMARK    1  A    between atoms: N_1  and  C_2
REMARK    2  A    between atoms: C_2  and  C_3
REMARK    3  A    between atoms: C_3  and  C_4
REMARK    4  A    between atoms: C_8  and  C_9
REMARK    5  A    between atoms: C_16  and  C_17
REMARK                            x       y       z     vdW  Elec       q    Type
REMARK                         _______ _______ _______ _____ _____    ______ ____
ROOT
ATOM      1  C   UNL     1       1.497   8.867  19.902  0.00  0.00    +0.000 A 
ATOM      2  C   UNL     1       1.693   9.151  18.542  0.00  0.00    +0.000 A 
ATOM      3  C   UNL     1       2.062   8.158  17.644  0.00  0.00    +0.000 A 
ATOM      4  C   UNL     1       2.265   6.854  18.095  0.00  0.00    +0.000 A 
ATOM      5  C   UNL     1       2.281   6.538  19.452  0.00  0.00    +0.000 A 
ATOM      6  C   UNL     1       1.876   7.571  20.330  0.00  0.00    +0.000 A 
ENDROOT
BRANCH   5   7
ATOM      7  C   UNL     1       2.596   5.185  19.953  0.00  0.00    +0.000 A 
ATOM      8  C   UNL     1       1.743   4.570  20.901  0.00  0.00    +0.000 A 
ATOM      9  C   UNL     1       2.011   3.303  21.386  0.00  0.00    +0.000 A 
ATOM     10  N   UNL     1       3.047   2.541  21.007  0.00  0.00    +0.000 NA
ATOM     11  C   UNL     1       3.837   3.140  20.101  0.00  0.00    +0.000 A 
ATOM     12  N   UNL     1       4.936   2.555  19.563  0.00  0.00    +0.000 N 
ATOM     13  N   UNL     1       5.595   3.329  18.698  0.00  0.00    +0.000 NA
ATOM     14  C   UNL     1       4.902   4.493  18.690  0.00  0.00    +0.000 A 
ATOM     15  C   UNL     1       3.725   4.412  19.536  0.00  0.00    +0.000 A 
ATOM     16  H   UNL     1       5.284   1.621  19.763  0.00  0.00    +0.000 HD
BRANCH  14  17
ATOM     17  C   UNL     1       5.432   5.638  17.860  0.00  0.00    +0.000 C 
ATOM     18  F   UNL     1       6.757   5.503  17.561  0.00  0.00    +0.000 F 
ATOM     19  F   UNL     1       4.805   5.745  16.658  0.00  0.00    +0.000 F 
ATOM     20  F   UNL     1       5.314   6.836  18.490  0.00  0.00    +0.000 F 
ENDBRANCH  14  17
ENDBRANCH   5   7
BRANCH   1  21
ATOM     21  C   UNL     1       0.742   9.897  20.888  0.00  0.00    +0.000 C 
ATOM     22  C   UNL     1       0.823   9.677  22.420  0.00  0.00    +0.000 C 
ATOM     23  O   UNL     1      -0.523   9.139  22.454  0.00  0.00    +0.000 OA
ATOM     24  C   UNL     1      -0.775   9.669  21.131  0.00  0.00    +0.000 C 
BRANCH  21  25
ATOM     25  C   UNL     1       1.057  11.346  20.458  0.00  0.00    +0.000 C 
BRANCH  25  26
ATOM     26  N   UNL     1       0.788  12.320  21.524  0.00  0.00    +0.000 NA
ATOM     27  H   UNL     1       0.571  13.225  21.110  0.00  0.00    +0.000 HD
ATOM     28  H   UNL     1       1.645  12.470  22.063  0.00  0.00    +0.000 HD
ENDBRANCH  25  26
ENDBRANCH  21  25
ENDBRANCH   1  21
TORSDOF 5
ENDMDL
MODEL 5
REMARK VINA RESULT:      -7.5      1.421      1.695
REMARK  Name = 
REMARK  5 active torsions:
REMARK  status: ('A' for Active; 'I' for Inactive)
REMARK    1  A    between atoms: N_1  and  C_2
REMARK    2  A    between atoms: C_2  and  C_3
REMARK    3  A    between atoms: C_3  and  C_4
REMARK    4  A    between atoms: C_8  and  C_9
REMARK    5  A    between atoms: C_16  and  C_17
REMARK                            x       y       z     vdW  Elec       q    Type
REMARK                         _______ _______ _______ _____ _____    ______ ____
ROOT
ATOM      1  C   UNL     1       1.579   8.751  19.248  0.00  0.00    +0.000 A 
ATOM      2  C   UNL     1       2.247   8.928  18.027  0.00  0.00    +0.000 A 
ATOM      3  C   UNL     1       2.824   7.855  17.359  0.00  0.00    +0.000 A 
ATOM      4  C   UNL     1       2.765   6.577  17.915  0.00  0.00    +0.000 A 
ATOM      5  C   UNL     1       2.294   6.357  19.208  0.00  0.00    +0.000 A 
ATOM      6  C   UNL     1       1.693   7.469  19.842  0.00  0.00    +0.000 A 
ENDROOT
BRANCH   5   7
ATOM      7  C   UNL     1       2.319   5.029  19.851  0.00  0.00    +0.000 A 
ATOM      8  C   UNL     1       1.204   4.593  20.607  0.00  0.00    +0.000 A 
ATOM      9  C   UNL     1       1.197   3.352  21.219  0.00  0.00    +0.000 A 
ATOM     10  N   UNL     1       2.190   2.455  21.142  0.00  0.00    +0.000 NA
ATOM     11  C   UNL     1       3.233   2.886  20.413  0.00  0.00    +0.000 A 
ATOM     12  N   UNL     1       4.345   2.144  20.187  0.00  0.00    +0.000 N 
ATOM     13  N   UNL     1       5.274   2.764  19.457  0.00  0.00    +0.000 NA
ATOM     14  C   UNL     1       4.749   3.989  19.214  0.00  0.00    +0.000 A 
ATOM     15  C   UNL     1       3.410   4.107  19.761  0.00  0.00    +0.000 A 
ATOM     16  H   UNL     1       4.522   1.199  20.520  0.00  0.00    +0.000 HD
BRANCH  14  17
ATOM     17  C   UNL     1       5.591   4.995  18.464  0.00  0.00    +0.000 C 
ATOM     18  F   UNL     1       6.893   4.606  18.341  0.00  0.00    +0.000 F 
ATOM     19  F   UNL     1       5.157   5.191  17.189  0.00  0.00    +0.000 F 
ATOM     20  F   UNL     1       5.621   6.207  19.075  0.00  0.00    +0.000 F 
ENDBRANCH  14  17
ENDBRANCH   5   7
BRANCH   1  21
ATOM     21  C   UNL     1       0.612   9.886  19.863  0.00  0.00    +0.000 C 
ATOM     22  C   UNL     1       1.238  11.093  20.607  0.00  0.00    +0.000 C 
ATOM     23  O   UNL     1       0.885  10.532  21.896  0.00  0.00    +0.000 OA
ATOM     24  C   UNL     1      -0.022   9.606  21.252  0.00  0.00    +0.000 C 
BRANCH  21  25
ATOM     25  C   UNL     1      -0.440  10.294  18.808  0.00  0.00    +0.000 C 
BRANCH  25  26
ATOM     26  N   UNL     1      -0.256  11.672  18.335  0.00  0.00    +0.000 NA
ATOM     27  H   UNL     1      -0.854  11.835  17.526  0.00  0.00    +0.000 HD
ATOM     28  H   UNL     1       0.700  11.781  17.986  0.00  0.00    +0.000 HD
ENDBRANCH  25  26
ENDBRANCH  21  25
ENDBRANCH   1  21
TORSDOF 5
ENDMDL
MODEL 6
REMARK VINA RESULT:      -7.4      1.161      1.636
REMARK  Name = 
REMARK  5 active torsions:
REMARK  status: ('A' for Active; 'I' for Inactive)
REMARK    1  A    between atoms: N_1  and  C_2
REMARK    2  A    between atoms: C_2  and  C_3
REMARK    3  A    between atoms: C_3  and  C_4
REMARK    4  A    between atoms: C_8  and  C_9
REMARK    5  A    between atoms: C_16  and  C_17
REMARK                            x       y       z     vdW  Elec       q    Type
REMARK                         _______ _______ _______ _____ _____    ______ ____
ROOT
ATOM      1  C   UNL     1       1.334   8.886  19.590  0.00  0.00    +0.000 A 
ATOM      2  C   UNL     1       1.788   9.180  18.295  0.00  0.00    +0.000 A 
ATOM      3  C   UNL     1       2.378   8.205  17.500  0.00  0.00    +0.000 A 
ATOM      4  C   UNL     1       2.547   6.912  17.996  0.00  0.00    +0.000 A 
ATOM      5  C   UNL     1       2.302   6.597  19.331  0.00  0.00    +0.000 A 
ATOM      6  C   UNL     1       1.679   7.610  20.099  0.00  0.00    +0.000 A 
ENDROOT
BRANCH   5   7
ATOM      7  C   UNL     1       2.573   5.262  19.898  0.00  0.00    +0.000 A 
ATOM      8  C   UNL     1       1.662   4.693  20.822  0.00  0.00    +0.000 A 
ATOM      9  C   UNL     1       1.888   3.442  21.369  0.00  0.00    +0.000 A 
ATOM     10  N   UNL     1       2.932   2.655  21.074  0.00  0.00    +0.000 NA
ATOM     11  C   UNL     1       3.777   3.211  20.191  0.00  0.00    +0.000 A 
ATOM     12  N   UNL     1       4.896   2.594  19.736  0.00  0.00    +0.000 N 
ATOM     13  N   UNL     1       5.611   3.327  18.879  0.00  0.00    +0.000 NA
ATOM     14  C   UNL     1       4.934   4.497  18.790  0.00  0.00    +0.000 A 
ATOM     15  C   UNL     1       3.713   4.461  19.573  0.00  0.00    +0.000 A 
ATOM     16  H   UNL     1       5.221   1.664  19.989  0.00  0.00    +0.000 HD
BRANCH  14  17
ATOM     17  C   UNL     1       5.523   5.604  17.947  0.00  0.00    +0.000 C 
ATOM     18  F   UNL     1       4.920   5.715  16.728  0.00  0.00    +0.000 F 
ATOM     19  F   UNL     1       5.386   6.828  18.524  0.00  0.00    +0.000 F 
ATOM     20  F   UNL     1       6.844   5.419  17.694  0.00  0.00    +0.000 F 
ENDBRANCH  14  17
ENDBRANCH   5   7
BRANCH   1  21
ATOM     21  C   UNL     1       0.347   9.879  20.393  0.00  0.00    +0.000 C 
ATOM     22  C   UNL     1       0.949  11.062  21.192  0.00  0.00    +0.000 C 
ATOM     23  O   UNL     1       0.761  10.361  22.447  0.00  0.00    +0.000 OA
ATOM     24  C   UNL     1      -0.131   9.425  21.798  0.00  0.00    +0.000 C 
BRANCH  21  25
ATOM     25  C   UNL     1      -0.826  10.290  19.476  0.00  0.00    +0.000 C 
BRANCH  25  26
ATOM     26  N   UNL     1      -0.773  11.708  19.099  0.00  0.00    +0.000 NA
ATOM     27  H   UNL     1      -1.581  11.936  18.520  0.00  0.00    +0.000 HD
ATOM     28  H   UNL     1       0.040  11.864  18.497  0.00  0.00    +0.000 HD
ENDBRANCH  25  26
ENDBRANCH  21  25
ENDBRANCH   1  21
TORSDOF 5
ENDMDL
MODEL 7
REMARK VINA RESULT:      -7.4      2.697      3.829
REMARK  Name = 
REMARK  5 active torsions:
REMARK  status: ('A' for Active; 'I' for Inactive)
REMARK    1  A    between atoms: N_1  and  C_2
REMARK    2  A    between atoms: C_2  and  C_3
REMARK    3  A    between atoms: C_3  and  C_4
REMARK    4  A    between atoms: C_8  and  C_9
REMARK    5  A    between atoms: C_16  and  C_17
REMARK                            x       y       z     vdW  Elec       q    Type
REMARK                         _______ _______ _______ _____ _____    ______ ____
ROOT
ATOM      1  C   UNL     1       1.069   9.273  19.479  0.00  0.00    +0.000 A 
ATOM      2  C   UNL     1       0.752   8.831  20.773  0.00  0.00    +0.000 A 
ATOM      3  C   UNL     1       1.325   7.681  21.302  0.00  0.00    +0.000 A 
ATOM      4  C   UNL     1       2.216   6.932  20.535  0.00  0.00    +0.000 A 
ATOM      5  C   UNL     1       2.428   7.197  19.183  0.00  0.00    +0.000 A 
ATOM      6  C   UNL     1       1.847   8.389  18.691  0.00  0.00    +0.000 A 
ENDROOT
BRANCH   5   7
ATOM      7  C   UNL     1       3.288   6.353  18.330  0.00  0.00    +0.000 A 
ATOM      8  C   UNL     1       4.116   6.956  17.352  0.00  0.00    +0.000 A 
ATOM      9  C   UNL     1       4.934   6.191  16.540  0.00  0.00    +0.000 A 
ATOM     10  N   UNL     1       5.048   4.858  16.606  0.00  0.00    +0.000 NA
ATOM     11  C   UNL     1       4.261   4.308  17.546  0.00  0.00    +0.000 A 
ATOM     12  N   UNL     1       4.219   2.977  17.802  0.00  0.00    +0.000 N 
ATOM     13  N   UNL     1       3.355   2.635  18.759  0.00  0.00    +0.000 NA
ATOM     14  C   UNL     1       2.782   3.805  19.131  0.00  0.00    +0.000 A 
ATOM     15  C   UNL     1       3.365   4.927  18.420  0.00  0.00    +0.000 A 
ATOM     16  H   UNL     1       4.764   2.253  17.340  0.00  0.00    +0.000 HD
BRANCH  14  17
ATOM     17  C   UNL     1       1.677   3.768  20.161  0.00  0.00    +0.000 C 
ATOM     18  F   UNL     1       1.178   2.513  20.353  0.00  0.00    +0.000 F 
ATOM     19  F   UNL     1       2.096   4.176  21.389  0.00  0.00    +0.000 F 
ATOM     20  F   UNL     1       0.617   4.542  19.815  0.00  0.00    +0.000 F 
ENDBRANCH  14  17
ENDBRANCH   5   7
BRANCH   1  21
ATOM     21  C   UNL     1       0.705  10.761  18.974  0.00  0.00    +0.000 C 
ATOM     22  C   UNL     1       1.804  11.624  18.304  0.00  0.00    +0.000 C 
ATOM     23  O   UNL     1       1.977  12.410  19.510  0.00  0.00    +0.000 OA
ATOM     24  C   UNL     1       0.727  11.898  20.031  0.00  0.00    +0.000 C 
BRANCH  21  25
ATOM     25  C   UNL     1      -0.618  10.724  18.177  0.00  0.00    +0.000 C 
BRANCH  25  26
ATOM     26  N   UNL     1      -1.069  12.063  17.777  0.00  0.00    +0.000 NA
ATOM     27  H   UNL     1      -2.059  12.167  17.997  0.00  0.00    +0.000 HD
ATOM     28  H   UNL     1      -1.012  12.144  16.758  0.00  0.00    +0.000 HD
ENDBRANCH  25  26
ENDBRANCH  21  25
ENDBRANCH   1  21
TORSDOF 5
ENDMDL
MODEL 8
REMARK VINA RESULT:      -7.2      2.703      3.823
REMARK  Name = 
REMARK  5 active torsions:
REMARK  status: ('A' for Active; 'I' for Inactive)
REMARK    1  A    between atoms: N_1  and  C_2
REMARK    2  A    between atoms: C_2  and  C_3
REMARK    3  A    between atoms: C_3  and  C_4
REMARK    4  A    between atoms: C_8  and  C_9
REMARK    5  A    between atoms: C_16  and  C_17
REMARK                            x       y       z     vdW  Elec       q    Type
REMARK                         _______ _______ _______ _____ _____    ______ ____
ROOT
ATOM      1  C   UNL     1       0.788   9.318  19.641  0.00  0.00    +0.000 A 
ATOM      2  C   UNL     1       0.577   8.933  20.974  0.00  0.00    +0.000 A 
ATOM      3  C   UNL     1       1.263   7.861  21.531  0.00  0.00    +0.000 A 
ATOM      4  C   UNL     1       2.163   7.133  20.755  0.00  0.00    +0.000 A 
ATOM      5  C   UNL     1       2.280   7.330  19.381  0.00  0.00    +0.000 A 
ATOM      6  C   UNL     1       1.585   8.447  18.858  0.00  0.00    +0.000 A 
ENDROOT
BRANCH   5   7
ATOM      7  C   UNL     1       3.151   6.500  18.526  0.00  0.00    +0.000 A 
ATOM      8  C   UNL     1       3.943   7.113  17.525  0.00  0.00    +0.000 A 
ATOM      9  C   UNL     1       4.772   6.362  16.710  0.00  0.00    +0.000 A 
ATOM     10  N   UNL     1       4.929   5.034  16.795  0.00  0.00    +0.000 NA
ATOM     11  C   UNL     1       4.175   4.475  17.756  0.00  0.00    +0.000 A 
ATOM     12  N   UNL     1       4.179   3.147  18.034  0.00  0.00    +0.000 N 
ATOM     13  N   UNL     1       3.342   2.793  19.010  0.00  0.00    +0.000 NA
ATOM     14  C   UNL     1       2.738   3.951  19.374  0.00  0.00    +0.000 A 
ATOM     15  C   UNL     1       3.275   5.079  18.636  0.00  0.00    +0.000 A 
ATOM     16  H   UNL     1       4.739   2.434  17.573  0.00  0.00    +0.000 HD
BRANCH  14  17
ATOM     17  C   UNL     1       1.653   3.896  20.423  0.00  0.00    +0.000 C 
ATOM     18  F   UNL     1       1.180   2.632  20.626  0.00  0.00    +0.000 F 
ATOM     19  F   UNL     1       2.085   4.314  21.643  0.00  0.00    +0.000 F 
ATOM     20  F   UNL     1       0.572   4.649  20.094  0.00  0.00    +0.000 F 
ENDBRANCH  14  17
ENDBRANCH   5   7
BRANCH   1  21
ATOM     21  C   UNL     1       0.286  10.744  19.076  0.00  0.00    +0.000 C 
ATOM     22  C   UNL     1      -0.711  11.582  19.914  0.00  0.00    +0.000 C 
ATOM     23  O   UNL     1      -1.815  11.201  19.055  0.00  0.00    +0.000 OA
ATOM     24  C   UNL     1      -0.881  10.733  18.053  0.00  0.00    +0.000 C 
BRANCH  21  25
ATOM     25  C   UNL     1       1.501  11.555  18.575  0.00  0.00    +0.000 C 
BRANCH  25  26
ATOM     26  N   UNL     1       1.121  12.884  18.077  0.00  0.00    +0.000 NA
ATOM     27  H   UNL     1       0.117  13.014  18.190  0.00  0.00    +0.000 HD
ATOM     28  H   UNL     1       1.284  12.920  17.066  0.00  0.00    +0.000 HD
ENDBRANCH  25  26
ENDBRANCH  21  25
ENDBRANCH   1  21
TORSDOF 5
ENDMDL
MODEL 9
REMARK VINA RESULT:      -7.1      1.426      1.562
REMARK  Name = 
REMARK  5 active torsions:
REMARK  status: ('A' for Active; 'I' for Inactive)
REMARK    1  A    between atoms: N_1  and  C_2
REMARK    2  A    between atoms: C_2  and  C_3
REMARK    3  A    between atoms: C_3  and  C_4
REMARK    4  A    between atoms: C_8  and  C_9
REMARK    5  A    between atoms: C_16  and  C_17
REMARK                            x       y       z     vdW  Elec       q    Type
REMARK                         _______ _______ _______ _____ _____    ______ ____
ROOT
ATOM      1  C   UNL     1       1.426   8.745  19.840  0.00  0.00    +0.000 A 
ATOM      2  C   UNL     1       1.680   9.514  18.693  0.00  0.00    +0.000 A 
ATOM      3  C   UNL     1       2.105   8.925  17.509  0.00  0.00    +0.000 A 
ATOM      4  C   UNL     1       2.307   7.546  17.453  0.00  0.00    +0.000 A 
ATOM      5  C   UNL     1       2.266   6.748  18.594  0.00  0.00    +0.000 A 
ATOM      6  C   UNL     1       1.806   7.381  19.773  0.00  0.00    +0.000 A 
ENDROOT
BRANCH   5   7
ATOM      7  C   UNL     1       2.579   5.306  18.571  0.00  0.00    +0.000 A 
ATOM      8  C   UNL     1       1.743   4.394  19.260  0.00  0.00    +0.000 A 
ATOM      9  C   UNL     1       2.009   3.036  19.254  0.00  0.00    +0.000 A 
ATOM     10  N   UNL     1       3.027   2.459  18.601  0.00  0.00    +0.000 NA
ATOM     11  C   UNL     1       3.801   3.341  17.948  0.00  0.00    +0.000 A 
ATOM     12  N   UNL     1       4.881   2.985  17.208  0.00  0.00    +0.000 N 
ATOM     13  N   UNL     1       5.527   4.015  16.659  0.00  0.00    +0.000 NA
ATOM     14  C   UNL     1       4.847   5.106  17.085  0.00  0.00    +0.000 A 
ATOM     15  C   UNL     1       3.690   4.731  17.876  0.00  0.00    +0.000 A 
ATOM     16  H   UNL     1       5.224   2.040  17.052  0.00  0.00    +0.000 HD
BRANCH  14  17
ATOM     17  C   UNL     1       5.369   6.472  16.704  0.00  0.00    +0.000 C 
ATOM     18  F   UNL     1       6.689   6.454  16.361  0.00  0.00    +0.000 F 
ATOM     19  F   UNL     1       4.727   6.993  15.624  0.00  0.00    +0.000 F 
ATOM     20  F   UNL     1       5.259   7.371  17.716  0.00  0.00    +0.000 F 
ENDBRANCH  14  17
ENDBRANCH   5   7
BRANCH   1  21
ATOM     21  C   UNL     1       0.611   9.336  21.100  0.00  0.00    +0.000 C 
ATOM     22  C   UNL     1      -0.039  10.738  20.991  0.00  0.00    +0.000 C 
ATOM     23  O   UNL     1       1.015  11.334  21.788  0.00  0.00    +0.000 OA
ATOM     24  C   UNL     1       1.436  10.019  22.224  0.00  0.00    +0.000 C 
BRANCH  21  25
ATOM     25  C   UNL     1      -0.347   8.255  21.646  0.00  0.00    +0.000 C 
BRANCH  25  26
ATOM     26  N   UNL     1      -0.878   8.594  22.973  0.00  0.00    +0.000 NA
ATOM     27  H   UNL     1      -0.299   8.161  23.691  0.00  0.00    +0.000 HD
ATOM     28  H   UNL     1      -1.802   8.168  23.082  0.00  0.00    +0.000 HD
ENDBRANCH  25  26
ENDBRANCH  21  25
ENDBRANCH   1  21
TORSDOF 5
ENDMDL
