MODEL 1
REMARK VINA RESULT:      -8.1      0.000      0.000
REMARK  Name = 
REMARK  7 active torsions:
REMARK  status: ('A' for Active; 'I' for Inactive)
REMARK    1  A    between atoms: C_1  and  C_2
REMARK    2  A    between atoms: C_7  and  C_8
REMARK    3  A    between atoms: C_8  and  C_9
REMARK    4  A    between atoms: C_9  and  C_10
REMARK    5  A    between atoms: C_10  and  O_11
REMARK    6  A    between atoms: N_15  and  C_16
REMARK    7  A    between atoms: C_16  and  C_17
REMARK                            x       y       z     vdW  Elec       q    Type
REMARK                         _______ _______ _______ _____ _____    ______ ____
ROOT
ATOM      1  C   UNL     1       4.280   3.570  18.600  0.00  0.00    +0.000 C 
ATOM      2  C   UNL     1       3.083   2.869  17.909  0.00  0.00    +0.000 C 
ATOM      3  C   UNL     1       1.992   3.775  17.352  0.00  0.00    +0.000 C 
ATOM      4  C   UNL     1       1.595   4.942  18.247  0.00  0.00    +0.000 C 
ATOM      5  N   UNL     1       2.704   5.616  18.895  0.00  0.00    +0.000 NA
ATOM      6  C   UNL     1       3.794   4.805  19.424  0.00  0.00    +0.000 C 
ENDROOT
BRANCH   1   7
ATOM      7  C   UNL     1       5.441   3.977  17.592  0.00  0.00    +0.000 C 
BRANCH   7  14
ATOM      8  C   UNL     1       4.793   6.701  16.287  0.00  0.00    +0.000 C 
ATOM      9  C   UNL     1       5.965   6.472  17.195  0.00  0.00    +0.000 A 
ATOM     10  C   UNL     1       6.953   7.476  17.269  0.00  0.00    +0.000 A 
ATOM     11  C   UNL     1       8.016   7.371  18.162  0.00  0.00    +0.000 A 
ATOM     12  C   UNL     1       8.054   6.316  19.063  0.00  0.00    +0.000 A 
ATOM     13  C   UNL     1       7.101   5.303  18.978  0.00  0.00    +0.000 A 
ATOM     14  C   UNL     1       6.137   5.307  17.949  0.00  0.00    +0.000 A 
ENDBRANCH   7  14
ENDBRANCH   1   7
BRANCH   1  15
ATOM     15  C   UNL     1       4.839   2.570  19.653  0.00  0.00    +0.000 C 
BRANCH  15  16
ATOM     16  O   UNL     1       4.615   1.222  19.254  0.00  0.00    +0.000 OA
ATOM     17  H   UNL     1       4.511   1.216  18.288  0.00  0.00    +0.000 HD
ENDBRANCH  15  16
ENDBRANCH   1  15
BRANCH   5  18
ATOM     18  C   UNL     1       2.305   6.699  19.820  0.00  0.00    +0.000 C 
BRANCH  18  19
ATOM     19  C   UNL     1       1.912   8.107  19.358  0.00  0.00    +0.000 A 
ATOM     20  C   UNL     1       2.184   8.704  18.117  0.00  0.00    +0.000 A 
ATOM     21  C   UNL     1       1.836  10.054  17.872  0.00  0.00    +0.000 A 
ATOM     22  C   UNL     1       1.177  10.797  18.847  0.00  0.00    +0.000 A 
ATOM     23  C   UNL     1       0.796  10.175  20.027  0.00  0.00    +0.000 A 
ATOM     24  C   UNL     1       1.169   8.858  20.282  0.00  0.00    +0.000 A 
ATOM     25  O   UNL     1       0.051  10.802  20.989  0.00  0.00    +0.000 OA
ATOM     26  C   UNL     1       0.462  12.160  21.068  0.00  0.00    +0.000 C 
ATOM     27  C   UNL     1       0.436  12.864  19.715  0.00  0.00    +0.000 C 
ATOM     28  O   UNL     1       0.972  12.128  18.606  0.00  0.00    +0.000 OA
ENDBRANCH  18  19
ENDBRANCH   5  18
TORSDOF 6
ENDMDL
MODEL 2
REMARK VINA RESULT:      -7.7      1.650      2.022
REMARK  Name = 
REMARK  7 active torsions:
REMARK  status: ('A' for Active; 'I' for Inactive)
REMARK    1  A    between atoms: C_1  and  C_2
REMARK    2  A    between atoms: C_7  and  C_8
REMARK    3  A    between atoms: C_8  and  C_9
REMARK    4  A    between atoms: C_9  and  C_10
REMARK    5  A    between atoms: C_10  and  O_11
REMARK    6  A    between atoms: N_15  and  C_16
REMARK    7  A    between atoms: C_16  and  C_17
REMARK                            x       y       z     vdW  Elec       q    Type
REMARK                         _______ _______ _______ _____ _____    ______ ____
ROOT
ATOM      1  C   UNL     1       3.495   3.973  18.942  0.00  0.00    +0.000 C 
ATOM      2  C   UNL     1       2.648   2.847  19.585  0.00  0.00    +0.000 C 
ATOM      3  C   UNL     1       1.225   3.213  19.991  0.00  0.00    +0.000 C 
ATOM      4  C   UNL     1       1.069   4.570  20.666  0.00  0.00    +0.000 C 
ATOM      5  N   UNL     1       1.849   5.638  20.071  0.00  0.00    +0.000 NA
ATOM      6  C   UNL     1       3.209   5.343  19.637  0.00  0.00    +0.000 C 
ENDROOT
BRANCH   1   7
ATOM      7  C   UNL     1       3.310   4.082  17.366  0.00  0.00    +0.000 C 
BRANCH   7  14
ATOM      8  C   UNL     1       4.401   6.962  17.118  0.00  0.00    +0.000 C 
ATOM      9  C   UNL     1       4.947   5.796  16.347  0.00  0.00    +0.000 A 
ATOM     10  C   UNL     1       5.837   6.062  15.285  0.00  0.00    +0.000 A 
ATOM     11  C   UNL     1       6.455   5.025  14.591  0.00  0.00    +0.000 A 
ATOM     12  C   UNL     1       6.275   3.715  15.011  0.00  0.00    +0.000 A 
ATOM     13  C   UNL     1       5.375   3.438  16.039  0.00  0.00    +0.000 A 
ATOM     14  C   UNL     1       4.601   4.468  16.614  0.00  0.00    +0.000 A 
ENDBRANCH   7  14
ENDBRANCH   1   7
BRANCH   1  15
ATOM     15  C   UNL     1       4.984   3.655  19.265  0.00  0.00    +0.000 C 
BRANCH  15  16
ATOM     16  O   UNL     1       5.148   2.295  19.653  0.00  0.00    +0.000 OA
ATOM     17  H   UNL     1       5.228   1.767  18.841  0.00  0.00    +0.000 HD
ENDBRANCH  15  16
ENDBRANCH   1  15
BRANCH   5  18
ATOM     18  C   UNL     1       1.750   6.933  20.778  0.00  0.00    +0.000 C 
BRANCH  18  19
ATOM     19  C   UNL     1       1.495   8.269  20.070  0.00  0.00    +0.000 A 
ATOM     20  C   UNL     1       1.743   8.580  18.724  0.00  0.00    +0.000 A 
ATOM     21  C   UNL     1       1.542   9.894  18.237  0.00  0.00    +0.000 A 
ATOM     22  C   UNL     1       1.050  10.887  19.079  0.00  0.00    +0.000 A 
ATOM     23  C   UNL     1       0.686  10.553  20.375  0.00  0.00    +0.000 A 
ATOM     24  C   UNL     1       0.916   9.271  20.865  0.00  0.00    +0.000 A 
ATOM     25  O   UNL     1       0.094  11.443  21.232  0.00  0.00    +0.000 OA
ATOM     26  C   UNL     1       0.669  12.725  21.024  0.00  0.00    +0.000 C 
ATOM     27  C   UNL     1       0.626  13.160  19.562  0.00  0.00    +0.000 C 
ATOM     28  O   UNL     1       0.987  12.165  18.593  0.00  0.00    +0.000 OA
ENDBRANCH  18  19
ENDBRANCH   5  18
TORSDOF 6
ENDMDL
MODEL 3
REMARK VINA RESULT:      -7.7      1.111      1.368
REMARK  Name = 
REMARK  7 active torsions:
REMARK  status: ('A' for Active; 'I' for Inactive)
REMARK    1  A    between atoms: C_1  and  C_2
REMARK    2  A    between atoms: C_7  and  C_8
REMARK    3  A    between atoms: C_8  and  C_9
REMARK    4  A    between atoms: C_9  and  C_10
REMARK    5  A    between atoms: C_10  and  O_11
REMARK    6  A    between atoms: N_15  and  C_16
REMARK    7  A    between atoms: C_16  and  C_17
REMARK                            x       y       z     vdW  Elec       q    Type
REMARK                         _______ _______ _______ _____ _____    ______ ____
ROOT
ATOM      1  C   UNL     1       4.020   3.302  18.278  0.00  0.00    +0.000 C 
ATOM      2  C   UNL     1       2.717   2.956  17.515  0.00  0.00    +0.000 C 
ATOM      3  C   UNL     1       1.764   4.111  17.235  0.00  0.00    +0.000 C 
ATOM      4  C   UNL     1       1.567   5.086  18.389  0.00  0.00    +0.000 C 
ATOM      5  N   UNL     1       2.778   5.429  19.109  0.00  0.00    +0.000 NA
ATOM      6  C   UNL     1       3.744   4.371  19.383  0.00  0.00    +0.000 C 
ENDROOT
BRANCH   1   7
ATOM      7  C   UNL     1       5.208   3.760  17.324  0.00  0.00    +0.000 C 
BRANCH   7  14
ATOM      8  C   UNL     1       4.672   6.610  16.260  0.00  0.00    +0.000 C 
ATOM      9  C   UNL     1       5.821   6.261  17.160  0.00  0.00    +0.000 A 
ATOM     10  C   UNL     1       6.840   7.220  17.338  0.00  0.00    +0.000 A 
ATOM     11  C   UNL     1       7.883   7.000  18.232  0.00  0.00    +0.000 A 
ATOM     12  C   UNL     1       7.872   5.868  19.035  0.00  0.00    +0.000 A 
ATOM     13  C   UNL     1       6.887   4.900  18.847  0.00  0.00    +0.000 A 
ATOM     14  C   UNL     1       5.941   5.028  17.809  0.00  0.00    +0.000 A 
ENDBRANCH   7  14
ENDBRANCH   1   7
BRANCH   1  15
ATOM     15  C   UNL     1       4.444   2.019  19.049  0.00  0.00    +0.000 C 
BRANCH  15  16
ATOM     16  O   UNL     1       5.173   2.342  20.228  0.00  0.00    +0.000 OA
ATOM     17  H   UNL     1       4.752   1.876  20.969  0.00  0.00    +0.000 HD
ENDBRANCH  15  16
ENDBRANCH   1  15
BRANCH   5  18
ATOM     18  C   UNL     1       2.567   6.316  20.273  0.00  0.00    +0.000 C 
BRANCH  18  19
ATOM     19  C   UNL     1       1.739   7.605  20.218  0.00  0.00    +0.000 A 
ATOM     20  C   UNL     1       1.694   8.545  19.176  0.00  0.00    +0.000 A 
ATOM     21  C   UNL     1       0.949   9.741  19.312  0.00  0.00    +0.000 A 
ATOM     22  C   UNL     1       0.211   9.980  20.468  0.00  0.00    +0.000 A 
ATOM     23  C   UNL     1       0.153   8.999  21.446  0.00  0.00    +0.000 A 
ATOM     24  C   UNL     1       0.913   7.839  21.329  0.00  0.00    +0.000 A 
ATOM     25  O   UNL     1      -0.635   9.109  22.561  0.00  0.00    +0.000 OA
ATOM     26  C   UNL     1      -0.626  10.463  22.992  0.00  0.00    +0.000 C 
ATOM     27  C   UNL     1      -0.997  11.438  21.879  0.00  0.00    +0.000 C 
ATOM     28  O   UNL     1      -0.393  11.201  20.599  0.00  0.00    +0.000 OA
ENDBRANCH  18  19
ENDBRANCH   5  18
TORSDOF 6
ENDMDL
MODEL 4
REMARK VINA RESULT:      -7.5      1.267      1.672
REMARK  Name = 
REMARK  7 active torsions:
REMARK  status: ('A' for Active; 'I' for Inactive)
REMARK    1  A    between atoms: C_1  and  C_2
REMARK    2  A    between atoms: C_7  and  C_8
REMARK    3  A    between atoms: C_8  and  C_9
REMARK    4  A    between atoms: C_9  and  C_10
REMARK    5  A    between atoms: C_10  and  O_11
REMARK    6  A    between atoms: N_15  and  C_16
REMARK    7  A    between atoms: C_16  and  C_17
REMARK                            x       y       z     vdW  Elec       q    Type
REMARK                         _______ _______ _______ _____ _____    ______ ____
ROOT
ATOM      1  C   UNL     1       3.560   3.738  18.880  0.00  0.00    +0.000 C 
ATOM      2  C   UNL     1       2.557   2.644  19.326  0.00  0.00    +0.000 C 
ATOM      3  C   UNL     1       1.121   3.094  19.565  0.00  0.00    +0.000 C 
ATOM      4  C   UNL     1       0.968   4.417  20.305  0.00  0.00    +0.000 C 
ATOM      5  N   UNL     1       1.893   5.455  19.894  0.00  0.00    +0.000 NA
ATOM      6  C   UNL     1       3.276   5.082  19.623  0.00  0.00    +0.000 C 
ENDROOT
BRANCH   1   7
ATOM      7  C   UNL     1       3.600   3.953  17.304  0.00  0.00    +0.000 C 
BRANCH   7  14
ATOM      8  C   UNL     1       5.938   3.381  15.367  0.00  0.00    +0.000 C 
ATOM      9  C   UNL     1       5.793   4.658  16.140  0.00  0.00    +0.000 A 
ATOM     10  C   UNL     1       6.891   5.543  16.172  0.00  0.00    +0.000 A 
ATOM     11  C   UNL     1       6.792   6.786  16.789  0.00  0.00    +0.000 A 
ATOM     12  C   UNL     1       5.569   7.207  17.293  0.00  0.00    +0.000 A 
ATOM     13  C   UNL     1       4.486   6.331  17.294  0.00  0.00    +0.000 A 
ATOM     14  C   UNL     1       4.636   5.002  16.846  0.00  0.00    +0.000 A 
ENDBRANCH   7  14
ENDBRANCH   1   7
BRANCH   1  15
ATOM     15  C   UNL     1       4.965   3.287  19.374  0.00  0.00    +0.000 C 
BRANCH  15  16
ATOM     16  O   UNL     1       4.940   1.942  19.841  0.00  0.00    +0.000 OA
ATOM     17  H   UNL     1       4.564   1.951  20.737  0.00  0.00    +0.000 HD
ENDBRANCH  15  16
ENDBRANCH   1  15
BRANCH   5  18
ATOM     18  C   UNL     1       1.787   6.710  20.669  0.00  0.00    +0.000 C 
BRANCH  18  19
ATOM     19  C   UNL     1       1.512   8.078  20.034  0.00  0.00    +0.000 A 
ATOM     20  C   UNL     1       1.858   8.503  18.742  0.00  0.00    +0.000 A 
ATOM     21  C   UNL     1       1.619   9.836  18.330  0.00  0.00    +0.000 A 
ATOM     22  C   UNL     1       0.993  10.734  19.190  0.00  0.00    +0.000 A 
ATOM     23  C   UNL     1       0.539  10.285  20.421  0.00  0.00    +0.000 A 
ATOM     24  C   UNL     1       0.805   8.985  20.840  0.00  0.00    +0.000 A 
ATOM     25  O   UNL     1      -0.180  11.074  21.279  0.00  0.00    +0.000 OA
ATOM     26  C   UNL     1       0.329  12.398  21.214  0.00  0.00    +0.000 C 
ATOM     27  C   UNL     1       0.388  12.937  19.788  0.00  0.00    +0.000 C 
ATOM     28  O   UNL     1       0.894  12.039  18.790  0.00  0.00    +0.000 OA
ENDBRANCH  18  19
ENDBRANCH   5  18
TORSDOF 6
ENDMDL
MODEL 5
REMARK VINA RESULT:      -7.5      2.425      7.988
REMARK  Name = 
REMARK  7 active torsions:
REMARK  status: ('A' for Active; 'I' for Inactive)
REMARK    1  A    between atoms: C_1  and  C_2
REMARK    2  A    between atoms: C_7  and  C_8
REMARK    3  A    between atoms: C_8  and  C_9
REMARK    4  A    between atoms: C_9  and  C_10
REMARK    5  A    between atoms: C_10  and  O_11
REMARK    6  A    between atoms: N_15  and  C_16
REMARK    7  A    between atoms: C_16  and  C_17
REMARK                            x       y       z     vdW  Elec       q    Type
REMARK                         _______ _______ _______ _____ _____    ______ ____
ROOT
ATOM      1  C   UNL     1       1.119  12.127  18.997  0.00  0.00    +0.000 C 
ATOM      2  C   UNL     1      -0.361  11.915  18.589  0.00  0.00    +0.000 C 
ATOM      3  C   UNL     1      -0.844  10.473  18.504  0.00  0.00    +0.000 C 
ATOM      4  C   UNL     1       0.126   9.500  17.847  0.00  0.00    +0.000 C 
ATOM      5  N   UNL     1       1.515   9.677  18.224  0.00  0.00    +0.000 NA
ATOM      6  C   UNL     1       2.030  11.036  18.350  0.00  0.00    +0.000 C 
ENDROOT
BRANCH   1   7
ATOM      7  C   UNL     1       1.337  12.194  20.571  0.00  0.00    +0.000 C 
BRANCH   7  14
ATOM      8  C   UNL     1      -1.396  12.829  21.865  0.00  0.00    +0.000 C 
ATOM      9  C   UNL     1      -0.638  11.556  22.104  0.00  0.00    +0.000 A 
ATOM     10  C   UNL     1      -1.070  10.713  23.149  0.00  0.00    +0.000 A 
ATOM     11  C   UNL     1      -0.473   9.474  23.365  0.00  0.00    +0.000 A 
ATOM     12  C   UNL     1       0.492   9.015  22.480  0.00  0.00    +0.000 A 
ATOM     13  C   UNL     1       0.949   9.851  21.462  0.00  0.00    +0.000 A 
ATOM     14  C   UNL     1       0.485  11.179  21.361  0.00  0.00    +0.000 A 
ENDBRANCH   7  14
ENDBRANCH   1   7
BRANCH   1  15
ATOM     15  C   UNL     1       1.573  13.471  18.356  0.00  0.00    +0.000 C 
BRANCH  15  16
ATOM     16  O   UNL     1       2.453  13.247  17.260  0.00  0.00    +0.000 OA
ATOM     17  H   UNL     1       3.324  13.597  17.507  0.00  0.00    +0.000 HD
ENDBRANCH  15  16
ENDBRANCH   1  15
BRANCH   5  18
ATOM     18  C   UNL     1       2.458   8.779  17.524  0.00  0.00    +0.000 C 
BRANCH  18  19
ATOM     19  C   UNL     1       2.944   7.444  18.102  0.00  0.00    +0.000 A 
ATOM     20  C   UNL     1       4.013   6.657  17.645  0.00  0.00    +0.000 A 
ATOM     21  C   UNL     1       4.283   5.395  18.227  0.00  0.00    +0.000 A 
ATOM     22  C   UNL     1       3.517   4.937  19.295  0.00  0.00    +0.000 A 
ATOM     23  C   UNL     1       2.541   5.765  19.830  0.00  0.00    +0.000 A 
ATOM     24  C   UNL     1       2.252   6.990  19.236  0.00  0.00    +0.000 A 
ATOM     25  O   UNL     1       1.819   5.436  20.945  0.00  0.00    +0.000 OA
ATOM     26  C   UNL     1       1.550   4.041  20.918  0.00  0.00    +0.000 C 
ATOM     27  C   UNL     1       2.810   3.201  20.732  0.00  0.00    +0.000 C 
ATOM     28  O   UNL     1       3.740   3.663  19.742  0.00  0.00    +0.000 OA
ENDBRANCH  18  19
ENDBRANCH   5  18
TORSDOF 6
ENDMDL
MODEL 6
REMARK VINA RESULT:      -7.4      1.587      4.055
REMARK  Name = 
REMARK  7 active torsions:
REMARK  status: ('A' for Active; 'I' for Inactive)
REMARK    1  A    between atoms: C_1  and  C_2
REMARK    2  A    between atoms: C_7  and  C_8
REMARK    3  A    between atoms: C_8  and  C_9
REMARK    4  A    between atoms: C_9  and  C_10
REMARK    5  A    between atoms: C_10  and  O_11
REMARK    6  A    between atoms: N_15  and  C_16
REMARK    7  A    between atoms: C_16  and  C_17
REMARK                            x       y       z     vdW  Elec       q    Type
REMARK                         _______ _______ _______ _____ _____    ______ ____
ROOT
ATOM      1  C   UNL     1       5.087   4.488  17.562  0.00  0.00    +0.000 C 
ATOM      2  C   UNL     1       6.436   5.152  17.188  0.00  0.00    +0.000 C 
ATOM      3  C   UNL     1       6.617   6.607  17.601  0.00  0.00    +0.000 C 
ATOM      4  C   UNL     1       5.403   7.502  17.380  0.00  0.00    +0.000 C 
ATOM      5  N   UNL     1       4.132   6.900  17.734  0.00  0.00    +0.000 NA
ATOM      6  C   UNL     1       3.909   5.500  17.390  0.00  0.00    +0.000 C 
ENDROOT
BRANCH   1   7
ATOM      7  C   UNL     1       5.081   3.845  19.017  0.00  0.00    +0.000 C 
BRANCH   7  14
ATOM      8  C   UNL     1       3.570   1.174  18.664  0.00  0.00    +0.000 C 
ATOM      9  C   UNL     1       2.937   2.421  19.207  0.00  0.00    +0.000 A 
ATOM     10  C   UNL     1       1.533   2.450  19.339  0.00  0.00    +0.000 A 
ATOM     11  C   UNL     1       0.890   3.537  19.924  0.00  0.00    +0.000 A 
ATOM     12  C   UNL     1       1.642   4.563  20.477  0.00  0.00    +0.000 A 
ATOM     13  C   UNL     1       3.028   4.561  20.326  0.00  0.00    +0.000 A 
ATOM     14  C   UNL     1       3.666   3.560  19.565  0.00  0.00    +0.000 A 
ENDBRANCH   7  14
ENDBRANCH   1   7
BRANCH   1  15
ATOM     15  C   UNL     1       4.826   3.375  16.506  0.00  0.00    +0.000 C 
BRANCH  15  16
ATOM     16  O   UNL     1       5.975   3.154  15.696  0.00  0.00    +0.000 OA
ATOM     17  H   UNL     1       6.054   3.907  15.088  0.00  0.00    +0.000 HD
ENDBRANCH  15  16
ENDBRANCH   1  15
BRANCH   5  18
ATOM     18  C   UNL     1       2.955   7.746  17.446  0.00  0.00    +0.000 C 
BRANCH  18  19
ATOM     19  C   UNL     1       2.129   8.448  18.531  0.00  0.00    +0.000 A 
ATOM     20  C   UNL     1       1.892   8.005  19.841  0.00  0.00    +0.000 A 
ATOM     21  C   UNL     1       1.026   8.722  20.702  0.00  0.00    +0.000 A 
ATOM     22  C   UNL     1       0.431   9.905  20.272  0.00  0.00    +0.000 A 
ATOM     23  C   UNL     1       0.760  10.411  19.023  0.00  0.00    +0.000 A 
ATOM     24  C   UNL     1       1.584   9.689  18.164  0.00  0.00    +0.000 A 
ATOM     25  O   UNL     1       0.305  11.620  18.570  0.00  0.00    +0.000 OA
ATOM     26  C   UNL     1      -1.031  11.800  19.017  0.00  0.00    +0.000 C 
ATOM     27  C   UNL     1      -1.179  11.614  20.523  0.00  0.00    +0.000 C 
ATOM     28  O   UNL     1      -0.490  10.494  21.096  0.00  0.00    +0.000 OA
ENDBRANCH  18  19
ENDBRANCH   5  18
TORSDOF 6
ENDMDL
MODEL 7
REMARK VINA RESULT:      -7.4      1.950      2.391
REMARK  Name = 
REMARK  7 active torsions:
REMARK  status: ('A' for Active; 'I' for Inactive)
REMARK    1  A    between atoms: C_1  and  C_2
REMARK    2  A    between atoms: C_7  and  C_8
REMARK    3  A    between atoms: C_8  and  C_9
REMARK    4  A    between atoms: C_9  and  C_10
REMARK    5  A    between atoms: C_10  and  O_11
REMARK    6  A    between atoms: N_15  and  C_16
REMARK    7  A    between atoms: C_16  and  C_17
REMARK                            x       y       z     vdW  Elec       q    Type
REMARK                         _______ _______ _______ _____ _____    ______ ____
ROOT
ATOM      1  C   UNL     1       3.414   3.998  19.027  0.00  0.00    +0.000 C 
ATOM      2  C   UNL     1       2.399   3.035  19.693  0.00  0.00    +0.000 C 
ATOM      3  C   UNL     1       1.060   3.635  20.104  0.00  0.00    +0.000 C 
ATOM      4  C   UNL     1       1.136   5.008  20.761  0.00  0.00    +0.000 C 
ATOM      5  N   UNL     1       2.075   5.925  20.145  0.00  0.00    +0.000 NA
ATOM      6  C   UNL     1       3.364   5.405  19.704  0.00  0.00    +0.000 C 
ENDROOT
BRANCH   1   7
ATOM      7  C   UNL     1       3.234   4.115  17.451  0.00  0.00    +0.000 C 
BRANCH   7  14
ATOM      8  C   UNL     1       4.269   7.013  17.176  0.00  0.00    +0.000 C 
ATOM      9  C   UNL     1       4.846   5.849  16.425  0.00  0.00    +0.000 A 
ATOM     10  C   UNL     1       5.740   6.118  15.369  0.00  0.00    +0.000 A 
ATOM     11  C   UNL     1       6.385   5.086  14.694  0.00  0.00    +0.000 A 
ATOM     12  C   UNL     1       6.227   3.778  15.129  0.00  0.00    +0.000 A 
ATOM     13  C   UNL     1       5.323   3.496  16.152  0.00  0.00    +0.000 A 
ATOM     14  C   UNL     1       4.524   4.517  16.706  0.00  0.00    +0.000 A 
ENDBRANCH   7  14
ENDBRANCH   1   7
BRANCH   1  15
ATOM     15  C   UNL     1       4.833   3.443  19.343  0.00  0.00    +0.000 C 
BRANCH  15  16
ATOM     16  O   UNL     1       4.818   2.024  19.455  0.00  0.00    +0.000 OA
ATOM     17  H   UNL     1       5.127   1.797  20.347  0.00  0.00    +0.000 HD
ENDBRANCH  15  16
ENDBRANCH   1  15
BRANCH   5  18
ATOM     18  C   UNL     1       2.198   7.228  20.834  0.00  0.00    +0.000 C 
BRANCH  18  19
ATOM     19  C   UNL     1       1.251   8.408  20.591  0.00  0.00    +0.000 A 
ATOM     20  C   UNL     1       1.025   9.085  19.382  0.00  0.00    +0.000 A 
ATOM     21  C   UNL     1       0.186  10.224  19.336  0.00  0.00    +0.000 A 
ATOM     22  C   UNL     1      -0.465  10.663  20.485  0.00  0.00    +0.000 A 
ATOM     23  C   UNL     1      -0.344   9.924  21.653  0.00  0.00    +0.000 A 
ATOM     24  C   UNL     1       0.509   8.826  21.708  0.00  0.00    +0.000 A 
ATOM     25  O   UNL     1      -1.036  10.225  22.796  0.00  0.00    +0.000 OA
ATOM     26  C   UNL     1      -1.116  11.638  22.920  0.00  0.00    +0.000 C 
ATOM     27  C   UNL     1      -1.675  12.309  21.670  0.00  0.00    +0.000 C 
ATOM     28  O   UNL     1      -1.168  11.835  20.414  0.00  0.00    +0.000 OA
ENDBRANCH  18  19
ENDBRANCH   5  18
TORSDOF 6
ENDMDL
MODEL 8
REMARK VINA RESULT:      -7.3      0.993      1.747
REMARK  Name = 
REMARK  7 active torsions:
REMARK  status: ('A' for Active; 'I' for Inactive)
REMARK    1  A    between atoms: C_1  and  C_2
REMARK    2  A    between atoms: C_7  and  C_8
REMARK    3  A    between atoms: C_8  and  C_9
REMARK    4  A    between atoms: C_9  and  C_10
REMARK    5  A    between atoms: C_10  and  O_11
REMARK    6  A    between atoms: N_15  and  C_16
REMARK    7  A    between atoms: C_16  and  C_17
REMARK                            x       y       z     vdW  Elec       q    Type
REMARK                         _______ _______ _______ _____ _____    ______ ____
ROOT
ATOM      1  C   UNL     1       4.545   3.801  19.148  0.00  0.00    +0.000 C 
ATOM      2  C   UNL     1       3.742   3.120  18.011  0.00  0.00    +0.000 C 
ATOM      3  C   UNL     1       2.867   4.029  17.156  0.00  0.00    +0.000 C 
ATOM      4  C   UNL     1       2.083   5.086  17.924  0.00  0.00    +0.000 C 
ATOM      5  N   UNL     1       2.822   5.740  18.986  0.00  0.00    +0.000 NA
ATOM      6  C   UNL     1       3.699   4.928  19.821  0.00  0.00    +0.000 C 
ENDROOT
BRANCH   1   7
ATOM      7  C   UNL     1       5.961   4.352  18.679  0.00  0.00    +0.000 C 
BRANCH   7  14
ATOM      8  C   UNL     1       5.588   7.198  17.537  0.00  0.00    +0.000 C 
ATOM      9  C   UNL     1       5.644   5.963  16.688  0.00  0.00    +0.000 A 
ATOM     10  C   UNL     1       5.272   6.072  15.332  0.00  0.00    +0.000 A 
ATOM     11  C   UNL     1       5.392   4.989  14.466  0.00  0.00    +0.000 A 
ATOM     12  C   UNL     1       5.979   3.814  14.913  0.00  0.00    +0.000 A 
ATOM     13  C   UNL     1       6.323   3.684  16.258  0.00  0.00    +0.000 A 
ATOM     14  C   UNL     1       6.024   4.709  17.179  0.00  0.00    +0.000 A 
ENDBRANCH   7  14
ENDBRANCH   1   7
BRANCH   1  15
ATOM     15  C   UNL     1       4.751   2.728  20.256  0.00  0.00    +0.000 C 
BRANCH  15  16
ATOM     16  O   UNL     1       5.038   1.453  19.692  0.00  0.00    +0.000 OA
ATOM     17  H   UNL     1       4.242   0.905  19.787  0.00  0.00    +0.000 HD
ENDBRANCH  15  16
ENDBRANCH   1  15
BRANCH   5  18
ATOM     18  C   UNL     1       2.031   6.710  19.773  0.00  0.00    +0.000 C 
BRANCH  18  19
ATOM     19  C   UNL     1       1.770   8.153  19.326  0.00  0.00    +0.000 A 
ATOM     20  C   UNL     1       2.135   8.747  18.108  0.00  0.00    +0.000 A 
ATOM     21  C   UNL     1       1.906  10.125  17.878  0.00  0.00    +0.000 A 
ATOM     22  C   UNL     1       1.273  10.902  18.843  0.00  0.00    +0.000 A 
ATOM     23  C   UNL     1       0.799  10.293  19.996  0.00  0.00    +0.000 A 
ATOM     24  C   UNL     1       1.055   8.946  20.238  0.00  0.00    +0.000 A 
ATOM     25  O   UNL     1       0.072  10.962  20.943  0.00  0.00    +0.000 OA
ATOM     26  C   UNL     1       0.587  12.280  21.064  0.00  0.00    +0.000 C 
ATOM     27  C   UNL     1       0.668  13.007  19.726  0.00  0.00    +0.000 C 
ATOM     28  O   UNL     1       1.184  12.250  18.622  0.00  0.00    +0.000 OA
ENDBRANCH  18  19
ENDBRANCH   5  18
TORSDOF 6
ENDMDL
MODEL 9
REMARK VINA RESULT:      -7.3      1.771      2.695
REMARK  Name = 
REMARK  7 active torsions:
REMARK  status: ('A' for Active; 'I' for Inactive)
REMARK    1  A    between atoms: C_1  and  C_2
REMARK    2  A    between atoms: C_7  and  C_8
REMARK    3  A    between atoms: C_8  and  C_9
REMARK    4  A    between atoms: C_9  and  C_10
REMARK    5  A    between atoms: C_10  and  O_11
REMARK    6  A    between atoms: N_15  and  C_16
REMARK    7  A    between atoms: C_16  and  C_17
REMARK                            x       y       z     vdW  Elec       q    Type
REMARK                         _______ _______ _______ _____ _____    ______ ____
ROOT
ATOM      1  C   UNL     1       4.064   4.803  18.432  0.00  0.00    +0.000 C 
ATOM      2  C   UNL     1       3.072   3.649  18.137  0.00  0.00    +0.000 C 
ATOM      3  C   UNL     1       1.590   3.968  18.292  0.00  0.00    +0.000 C 
ATOM      4  C   UNL     1       1.228   4.800  19.516  0.00  0.00    +0.000 C 
ATOM      5  N   UNL     1       2.141   5.890  19.802  0.00  0.00    +0.000 NA
ATOM      6  C   UNL     1       3.571   5.655  19.645  0.00  0.00    +0.000 C 
ENDROOT
BRANCH   1   7
ATOM      7  C   UNL     1       4.357   5.723  17.168  0.00  0.00    +0.000 C 
BRANCH   7  14
ATOM      8  C   UNL     1       7.329   6.565  17.204  0.00  0.00    +0.000 C 
ATOM      9  C   UNL     1       6.719   5.711  16.131  0.00  0.00    +0.000 A 
ATOM     10  C   UNL     1       7.472   5.479  14.961  0.00  0.00    +0.000 A 
ATOM     11  C   UNL     1       7.008   4.620  13.969  0.00  0.00    +0.000 A 
ATOM     12  C   UNL     1       5.838   3.902  14.174  0.00  0.00    +0.000 A 
ATOM     13  C   UNL     1       5.071   4.146  15.313  0.00  0.00    +0.000 A 
ATOM     14  C   UNL     1       5.439   5.157  16.224  0.00  0.00    +0.000 A 
ENDBRANCH   7  14
ENDBRANCH   1   7
BRANCH   1  15
ATOM     15  C   UNL     1       5.390   4.144  18.908  0.00  0.00    +0.000 C 
BRANCH  15  16
ATOM     16  O   UNL     1       5.163   2.832  19.412  0.00  0.00    +0.000 OA
ATOM     17  H   UNL     1       5.030   2.245  18.650  0.00  0.00    +0.000 HD
ENDBRANCH  15  16
ENDBRANCH   1  15
BRANCH   5  18
ATOM     18  C   UNL     1       1.824   6.645  21.033  0.00  0.00    +0.000 C 
BRANCH  18  19
ATOM     19  C   UNL     1       1.246   8.065  21.033  0.00  0.00    +0.000 A 
ATOM     20  C   UNL     1       0.949   8.864  22.149  0.00  0.00    +0.000 A 
ATOM     21  C   UNL     1       0.328  10.126  21.989  0.00  0.00    +0.000 A 
ATOM     22  C   UNL     1       0.043  10.612  20.717  0.00  0.00    +0.000 A 
ATOM     23  C   UNL     1       0.447   9.882  19.609  0.00  0.00    +0.000 A 
ATOM     24  C   UNL     1       1.026   8.626  19.765  0.00  0.00    +0.000 A 
ATOM     25  O   UNL     1       0.303  10.339  18.327  0.00  0.00    +0.000 OA
ATOM     26  C   UNL     1      -0.926  11.046  18.231  0.00  0.00    +0.000 C 
ATOM     27  C   UNL     1      -1.063  12.135  19.290  0.00  0.00    +0.000 C 
ATOM     28  O   UNL     1      -0.665  11.779  20.622  0.00  0.00    +0.000 OA
ENDBRANCH  18  19
ENDBRANCH   5  18
TORSDOF 6
ENDMDL
