MODEL 1
REMARK VINA RESULT:      -7.0      0.000      0.000
REMARK  Name = 
REMARK  3 active torsions:
REMARK  status: ('A' for Active; 'I' for Inactive)
REMARK    1  A    between atoms: C_1  and  C_2
REMARK    2  A    between atoms: C_8  and  C_9
REMARK    3  A    between atoms: C_19  and  C_20
REMARK                            x       y       z     vdW  Elec       q    Type
REMARK                         _______ _______ _______ _____ _____    ______ ____
ROOT
ATOM      1  C   UNL     1       0.196   9.355  24.118  0.00  0.00    +0.000 C 
ATOM      2  C   UNL     1      -0.391  10.129  22.967  0.00  0.00    +0.000 C 
ATOM      3  O   UNL     1      -1.242  11.001  23.161  0.00  0.00    +0.000 OA
ATOM      4  N   UNL     1       0.158   9.866  21.724  0.00  0.00    +0.000 N 
ATOM      5  N   UNL     1       0.888   8.720  21.443  0.00  0.00    +0.000 NA
ATOM      6  C   UNL     1       1.225   8.798  20.194  0.00  0.00    +0.000 C 
ATOM      7  C   UNL     1       2.031   7.843  19.376  0.00  0.00    +0.000 C 
ATOM      8  C   UNL     1       2.329   6.622  19.849  0.00  0.00    +0.000 C 
ATOM      9  C   UNL     1       2.401   8.401  18.021  0.00  0.00    +0.000 C 
ATOM     10  C   UNL     1       1.133   8.867  17.297  0.00  0.00    +0.000 C 
ATOM     11  C   UNL     1       0.347   9.932  18.080  0.00  0.00    +0.000 C 
ATOM     12  C   UNL     1       0.842  10.083  19.511  0.00  0.00    +0.000 C 
ATOM     13  C   UNL     1      -0.109  10.685  20.540  0.00  0.00    +0.000 C 
ENDROOT
BRANCH   8  14
ATOM     14  C   UNL     1       3.118   5.655  19.081  0.00  0.00    +0.000 A 
ATOM     15  C   UNL     1       2.507   4.869  18.100  0.00  0.00    +0.000 A 
ATOM     16  C   UNL     1       3.245   3.909  17.408  0.00  0.00    +0.000 A 
ATOM     17  C   UNL     1       4.601   3.736  17.681  0.00  0.00    +0.000 A 
ATOM     18  C   UNL     1       5.222   4.519  18.656  0.00  0.00    +0.000 A 
ATOM     19  C   UNL     1       4.481   5.473  19.357  0.00  0.00    +0.000 A 
ENDBRANCH   8  14
BRANCH  13  20
ATOM     20  C   UNL     1       0.295  12.142  20.663  0.00  0.00    +0.000 A 
ATOM     21  C   UNL     1      -0.676  13.146  20.541  0.00  0.00    +0.000 A 
ATOM     22  C   UNL     1      -0.289  14.471  20.354  0.00  0.00    +0.000 A 
ATOM     23  C   UNL     1       1.065  14.805  20.292  0.00  0.00    +0.000 A 
ATOM     24  C   UNL     1       2.038  13.824  20.465  0.00  0.00    +0.000 A 
ATOM     25  C   UNL     1       1.656  12.503  20.663  0.00  0.00    +0.000 A 
ENDBRANCH  13  20
TORSDOF 2
ENDMDL
MODEL 2
REMARK VINA RESULT:      -6.8      1.586      1.962
REMARK  Name = 
REMARK  3 active torsions:
REMARK  status: ('A' for Active; 'I' for Inactive)
REMARK    1  A    between atoms: C_1  and  C_2
REMARK    2  A    between atoms: C_8  and  C_9
REMARK    3  A    between atoms: C_19  and  C_20
REMARK                            x       y       z     vdW  Elec       q    Type
REMARK                         _______ _______ _______ _____ _____    ______ ____
ROOT
ATOM      1  C   UNL     1      -1.079  10.834  23.192  0.00  0.00    +0.000 C 
ATOM      2  C   UNL     1      -0.960  11.365  21.787  0.00  0.00    +0.000 C 
ATOM      3  O   UNL     1      -1.503  12.424  21.463  0.00  0.00    +0.000 OA
ATOM      4  N   UNL     1      -0.131  10.647  20.942  0.00  0.00    +0.000 N 
ATOM      5  N   UNL     1       0.249   9.334  21.186  0.00  0.00    +0.000 NA
ATOM      6  C   UNL     1       1.000   8.981  20.191  0.00  0.00    +0.000 C 
ATOM      7  C   UNL     1       1.692   7.678  19.951  0.00  0.00    +0.000 C 
ATOM      8  C   UNL     1       1.407   6.605  20.707  0.00  0.00    +0.000 C 
ATOM      9  C   UNL     1       2.659   7.735  18.792  0.00  0.00    +0.000 C 
ATOM     10  C   UNL     1       1.933   8.251  17.544  0.00  0.00    +0.000 C 
ATOM     11  C   UNL     1       1.307   9.641  17.742  0.00  0.00    +0.000 C 
ATOM     12  C   UNL     1       1.301  10.073  19.201  0.00  0.00    +0.000 C 
ATOM     13  C   UNL     1       0.298  11.138  19.631  0.00  0.00    +0.000 C 
ENDROOT
BRANCH   8  14
ATOM     14  C   UNL     1       2.062   5.309  20.506  0.00  0.00    +0.000 A 
ATOM     15  C   UNL     1       3.314   5.242  19.889  0.00  0.00    +0.000 A 
ATOM     16  C   UNL     1       3.913   4.006  19.647  0.00  0.00    +0.000 A 
ATOM     17  C   UNL     1       3.273   2.829  20.033  0.00  0.00    +0.000 A 
ATOM     18  C   UNL     1       2.023   2.886  20.653  0.00  0.00    +0.000 A 
ATOM     19  C   UNL     1       1.418   4.123  20.886  0.00  0.00    +0.000 A 
ENDBRANCH   8  14
BRANCH  13  20
ATOM     20  C   UNL     1       1.074  12.441  19.656  0.00  0.00    +0.000 A 
ATOM     21  C   UNL     1       1.063  13.279  18.532  0.00  0.00    +0.000 A 
ATOM     22  C   UNL     1       1.992  14.312  18.424  0.00  0.00    +0.000 A 
ATOM     23  C   UNL     1       2.932  14.520  19.435  0.00  0.00    +0.000 A 
ATOM     24  C   UNL     1       2.917  13.727  20.579  0.00  0.00    +0.000 A 
ATOM     25  C   UNL     1       1.986  12.703  20.696  0.00  0.00    +0.000 A 
ENDBRANCH  13  20
TORSDOF 2
ENDMDL
MODEL 3
REMARK VINA RESULT:      -6.8      1.551      1.900
REMARK  Name = 
REMARK  3 active torsions:
REMARK  status: ('A' for Active; 'I' for Inactive)
REMARK    1  A    between atoms: C_1  and  C_2
REMARK    2  A    between atoms: C_8  and  C_9
REMARK    3  A    between atoms: C_19  and  C_20
REMARK                            x       y       z     vdW  Elec       q    Type
REMARK                         _______ _______ _______ _____ _____    ______ ____
ROOT
ATOM      1  C   UNL     1      -1.016  10.618  23.166  0.00  0.00    +0.000 C 
ATOM      2  C   UNL     1      -0.929  11.126  21.750  0.00  0.00    +0.000 C 
ATOM      3  O   UNL     1      -1.509  12.161  21.413  0.00  0.00    +0.000 OA
ATOM      4  N   UNL     1      -0.086  10.418  20.909  0.00  0.00    +0.000 N 
ATOM      5  N   UNL     1       0.338   9.124  21.173  0.00  0.00    +0.000 NA
ATOM      6  C   UNL     1       1.089   8.775  20.176  0.00  0.00    +0.000 C 
ATOM      7  C   UNL     1       1.819   7.491  19.953  0.00  0.00    +0.000 C 
ATOM      8  C   UNL     1       1.577   6.424  20.731  0.00  0.00    +0.000 C 
ATOM      9  C   UNL     1       2.772   7.557  18.781  0.00  0.00    +0.000 C 
ATOM     10  C   UNL     1       2.016   8.025  17.532  0.00  0.00    +0.000 C 
ATOM     11  C   UNL     1       1.347   9.398  17.712  0.00  0.00    +0.000 C 
ATOM     12  C   UNL     1       1.344   9.857  19.162  0.00  0.00    +0.000 C 
ATOM     13  C   UNL     1       0.312  10.898  19.584  0.00  0.00    +0.000 C 
ENDROOT
BRANCH   8  14
ATOM     14  C   UNL     1       2.271   5.146  20.548  0.00  0.00    +0.000 A 
ATOM     15  C   UNL     1       1.833   4.004  21.223  0.00  0.00    +0.000 A 
ATOM     16  C   UNL     1       2.527   2.802  21.094  0.00  0.00    +0.000 A 
ATOM     17  C   UNL     1       3.655   2.727  20.277  0.00  0.00    +0.000 A 
ATOM     18  C   UNL     1       4.099   3.862  19.595  0.00  0.00    +0.000 A 
ATOM     19  C   UNL     1       3.410   5.069  19.734  0.00  0.00    +0.000 A 
ENDBRANCH   8  14
BRANCH  13  20
ATOM     20  C   UNL     1       1.046  12.225  19.576  0.00  0.00    +0.000 A 
ATOM     21  C   UNL     1       1.984  12.507  20.581  0.00  0.00    +0.000 A 
ATOM     22  C   UNL     1       2.440  13.811  20.763  0.00  0.00    +0.000 A 
ATOM     23  C   UNL     1       1.970  14.839  19.945  0.00  0.00    +0.000 A 
ATOM     24  C   UNL     1       1.080  14.562  18.911  0.00  0.00    +0.000 A 
ATOM     25  C   UNL     1       0.631  13.261  18.719  0.00  0.00    +0.000 A 
ENDBRANCH  13  20
TORSDOF 2
ENDMDL
MODEL 4
REMARK VINA RESULT:      -6.8      1.495      1.653
REMARK  Name = 
REMARK  3 active torsions:
REMARK  status: ('A' for Active; 'I' for Inactive)
REMARK    1  A    between atoms: C_1  and  C_2
REMARK    2  A    between atoms: C_8  and  C_9
REMARK    3  A    between atoms: C_19  and  C_20
REMARK                            x       y       z     vdW  Elec       q    Type
REMARK                         _______ _______ _______ _____ _____    ______ ____
ROOT
ATOM      1  C   UNL     1      -0.999  10.490  23.296  0.00  0.00    +0.000 C 
ATOM      2  C   UNL     1      -0.965  11.047  21.896  0.00  0.00    +0.000 C 
ATOM      3  O   UNL     1      -1.584  12.074  21.610  0.00  0.00    +0.000 OA
ATOM      4  N   UNL     1      -0.125  10.393  21.011  0.00  0.00    +0.000 N 
ATOM      5  N   UNL     1       0.343   9.104  21.219  0.00  0.00    +0.000 NA
ATOM      6  C   UNL     1       1.077   8.811  20.192  0.00  0.00    +0.000 C 
ATOM      7  C   UNL     1       1.838   7.557  19.906  0.00  0.00    +0.000 C 
ATOM      8  C   UNL     1       1.648   6.458  20.654  0.00  0.00    +0.000 C 
ATOM      9  C   UNL     1       2.756   7.690  18.714  0.00  0.00    +0.000 C 
ATOM     10  C   UNL     1       1.954   8.177  17.501  0.00  0.00    +0.000 C 
ATOM     11  C   UNL     1       1.251   9.523  17.745  0.00  0.00    +0.000 C 
ATOM     12  C   UNL     1       1.273   9.933  19.209  0.00  0.00    +0.000 C 
ATOM     13  C   UNL     1       0.223  10.928  19.692  0.00  0.00    +0.000 C 
ENDROOT
BRANCH   8  14
ATOM     14  C   UNL     1       2.375   5.209  20.410  0.00  0.00    +0.000 A 
ATOM     15  C   UNL     1       1.905   4.006  20.944  0.00  0.00    +0.000 A 
ATOM     16  C   UNL     1       2.626   2.827  20.760  0.00  0.00    +0.000 A 
ATOM     17  C   UNL     1       3.812   2.837  20.028  0.00  0.00    +0.000 A 
ATOM     18  C   UNL     1       4.288   4.033  19.487  0.00  0.00    +0.000 A 
ATOM     19  C   UNL     1       3.572   5.216  19.681  0.00  0.00    +0.000 A 
ENDBRANCH   8  14
BRANCH  13  20
ATOM     20  C   UNL     1       0.918  12.276  19.711  0.00  0.00    +0.000 A 
ATOM     21  C   UNL     1       0.669  13.200  18.686  0.00  0.00    +0.000 A 
ATOM     22  C   UNL     1       1.507  14.302  18.523  0.00  0.00    +0.000 A 
ATOM     23  C   UNL     1       2.591  14.492  19.381  0.00  0.00    +0.000 A 
ATOM     24  C   UNL     1       2.815  13.610  20.434  0.00  0.00    +0.000 A 
ATOM     25  C   UNL     1       1.977  12.517  20.607  0.00  0.00    +0.000 A 
ENDBRANCH  13  20
TORSDOF 2
ENDMDL
MODEL 5
REMARK VINA RESULT:      -6.7      0.383      1.033
REMARK  Name = 
REMARK  3 active torsions:
REMARK  status: ('A' for Active; 'I' for Inactive)
REMARK    1  A    between atoms: C_1  and  C_2
REMARK    2  A    between atoms: C_8  and  C_9
REMARK    3  A    between atoms: C_19  and  C_20
REMARK                            x       y       z     vdW  Elec       q    Type
REMARK                         _______ _______ _______ _____ _____    ______ ____
ROOT
ATOM      1  C   UNL     1       0.320   9.334  24.170  0.00  0.00    +0.000 C 
ATOM      2  C   UNL     1      -0.302  10.111  23.040  0.00  0.00    +0.000 C 
ATOM      3  O   UNL     1      -1.150  10.979  23.262  0.00  0.00    +0.000 OA
ATOM      4  N   UNL     1       0.212   9.855  21.780  0.00  0.00    +0.000 N 
ATOM      5  N   UNL     1       0.937   8.712  21.474  0.00  0.00    +0.000 NA
ATOM      6  C   UNL     1       1.238   8.796  20.216  0.00  0.00    +0.000 C 
ATOM      7  C   UNL     1       2.023   7.847  19.371  0.00  0.00    +0.000 C 
ATOM      8  C   UNL     1       2.339   6.625  19.831  0.00  0.00    +0.000 C 
ATOM      9  C   UNL     1       2.352   8.412  18.009  0.00  0.00    +0.000 C 
ATOM     10  C   UNL     1       1.062   8.877  17.323  0.00  0.00    +0.000 C 
ATOM     11  C   UNL     1       0.296   9.936  18.133  0.00  0.00    +0.000 C 
ATOM     12  C   UNL     1       0.831  10.082  19.549  0.00  0.00    +0.000 C 
ATOM     13  C   UNL     1      -0.092  10.677  20.607  0.00  0.00    +0.000 C 
ENDROOT
BRANCH   8  14
ATOM     14  C   UNL     1       3.108   5.663  19.036  0.00  0.00    +0.000 A 
ATOM     15  C   UNL     1       2.466   4.857  18.093  0.00  0.00    +0.000 A 
ATOM     16  C   UNL     1       3.188   3.902  17.377  0.00  0.00    +0.000 A 
ATOM     17  C   UNL     1       4.558   3.756  17.587  0.00  0.00    +0.000 A 
ATOM     18  C   UNL     1       5.210   4.560  18.525  0.00  0.00    +0.000 A 
ATOM     19  C   UNL     1       4.485   5.509  19.250  0.00  0.00    +0.000 A 
ENDBRANCH   8  14
BRANCH  13  20
ATOM     20  C   UNL     1       0.312  12.135  20.725  0.00  0.00    +0.000 A 
ATOM     21  C   UNL     1       1.671  12.482  20.729  0.00  0.00    +0.000 A 
ATOM     22  C   UNL     1       2.063  13.757  21.131  0.00  0.00    +0.000 A 
ATOM     23  C   UNL     1       1.106  14.694  21.526  0.00  0.00    +0.000 A 
ATOM     24  C   UNL     1      -0.249  14.378  21.474  0.00  0.00    +0.000 A 
ATOM     25  C   UNL     1      -0.644  13.111  21.064  0.00  0.00    +0.000 A 
ENDBRANCH  13  20
TORSDOF 2
ENDMDL
MODEL 6
REMARK VINA RESULT:      -6.6      2.491      4.375
REMARK  Name = 
REMARK  3 active torsions:
REMARK  status: ('A' for Active; 'I' for Inactive)
REMARK    1  A    between atoms: C_1  and  C_2
REMARK    2  A    between atoms: C_8  and  C_9
REMARK    3  A    between atoms: C_19  and  C_20
REMARK                            x       y       z     vdW  Elec       q    Type
REMARK                         _______ _______ _______ _____ _____    ______ ____
ROOT
ATOM      1  C   UNL     1       0.063  14.517  18.694  0.00  0.00    +0.000 C 
ATOM      2  C   UNL     1      -0.389  14.368  20.124  0.00  0.00    +0.000 C 
ATOM      3  O   UNL     1      -0.767  15.347  20.771  0.00  0.00    +0.000 OA
ATOM      4  N   UNL     1      -0.443  13.071  20.604  0.00  0.00    +0.000 N 
ATOM      5  N   UNL     1       0.232  12.013  20.013  0.00  0.00    +0.000 NA
ATOM      6  C   UNL     1      -0.028  10.966  20.732  0.00  0.00    +0.000 C 
ATOM      7  C   UNL     1       0.427   9.556  20.539  0.00  0.00    +0.000 C 
ATOM      8  C   UNL     1       1.389   9.265  19.648  0.00  0.00    +0.000 C 
ATOM      9  C   UNL     1      -0.277   8.584  21.457  0.00  0.00    +0.000 C 
ATOM     10  C   UNL     1      -0.130   9.054  22.909  0.00  0.00    +0.000 C 
ATOM     11  C   UNL     1      -0.693  10.465  23.147  0.00  0.00    +0.000 C 
ATOM     12  C   UNL     1      -1.013  11.188  21.847  0.00  0.00    +0.000 C 
ATOM     13  C   UNL     1      -1.082  12.712  21.873  0.00  0.00    +0.000 C 
ENDROOT
BRANCH   8  14
ATOM     14  C   UNL     1       1.864   7.897  19.426  0.00  0.00    +0.000 A 
ATOM     15  C   UNL     1       1.829   6.963  20.465  0.00  0.00    +0.000 A 
ATOM     16  C   UNL     1       2.333   5.678  20.272  0.00  0.00    +0.000 A 
ATOM     17  C   UNL     1       2.862   5.310  19.035  0.00  0.00    +0.000 A 
ATOM     18  C   UNL     1       2.898   6.234  17.989  0.00  0.00    +0.000 A 
ATOM     19  C   UNL     1       2.403   7.526  18.186  0.00  0.00    +0.000 A 
ENDBRANCH   8  14
BRANCH  13  20
ATOM     20  C   UNL     1      -2.558  13.050  21.965  0.00  0.00    +0.000 A 
ATOM     21  C   UNL     1      -3.105  13.447  23.195  0.00  0.00    +0.000 A 
ATOM     22  C   UNL     1      -4.487  13.471  23.367  0.00  0.00    +0.000 A 
ATOM     23  C   UNL     1      -5.332  13.105  22.317  0.00  0.00    +0.000 A 
ATOM     24  C   UNL     1      -4.801  12.761  21.077  0.00  0.00    +0.000 A 
ATOM     25  C   UNL     1      -3.424  12.747  20.898  0.00  0.00    +0.000 A 
ENDBRANCH  13  20
TORSDOF 2
ENDMDL
MODEL 7
REMARK VINA RESULT:      -6.4      2.184      3.906
REMARK  Name = 
REMARK  3 active torsions:
REMARK  status: ('A' for Active; 'I' for Inactive)
REMARK    1  A    between atoms: C_1  and  C_2
REMARK    2  A    between atoms: C_8  and  C_9
REMARK    3  A    between atoms: C_19  and  C_20
REMARK                            x       y       z     vdW  Elec       q    Type
REMARK                         _______ _______ _______ _____ _____    ______ ____
ROOT
ATOM      1  C   UNL     1       1.612  13.833  18.278  0.00  0.00    +0.000 C 
ATOM      2  C   UNL     1       0.960  13.899  19.634  0.00  0.00    +0.000 C 
ATOM      3  O   UNL     1       0.695  14.985  20.156  0.00  0.00    +0.000 OA
ATOM      4  N   UNL     1       0.596  12.682  20.185  0.00  0.00    +0.000 N 
ATOM      5  N   UNL     1       1.127  11.470  19.767  0.00  0.00    +0.000 NA
ATOM      6  C   UNL     1       0.580  10.557  20.507  0.00  0.00    +0.000 C 
ATOM      7  C   UNL     1       0.778   9.077  20.473  0.00  0.00    +0.000 C 
ATOM      8  C   UNL     1       1.773   8.537  19.750  0.00  0.00    +0.000 C 
ATOM      9  C   UNL     1      -0.212   8.335  21.341  0.00  0.00    +0.000 C 
ATOM     10  C   UNL     1      -0.168   8.900  22.766  0.00  0.00    +0.000 C 
ATOM     11  C   UNL     1      -0.476  10.405  22.828  0.00  0.00    +0.000 C 
ATOM     12  C   UNL     1      -0.479  11.054  21.452  0.00  0.00    +0.000 C 
ATOM     13  C   UNL     1      -0.258  12.561  21.368  0.00  0.00    +0.000 C 
ENDROOT
BRANCH   8  14
ATOM     14  C   UNL     1       2.001   7.091  19.688  0.00  0.00    +0.000 A 
ATOM     15  C   UNL     1       2.407   6.493  18.492  0.00  0.00    +0.000 A 
ATOM     16  C   UNL     1       2.569   5.110  18.417  0.00  0.00    +0.000 A 
ATOM     17  C   UNL     1       2.342   4.316  19.539  0.00  0.00    +0.000 A 
ATOM     18  C   UNL     1       1.940   4.903  20.740  0.00  0.00    +0.000 A 
ATOM     19  C   UNL     1       1.766   6.287  20.813  0.00  0.00    +0.000 A 
ENDBRANCH   8  14
BRANCH  13  20
ATOM     20  C   UNL     1      -1.641  13.167  21.225  0.00  0.00    +0.000 A 
ATOM     21  C   UNL     1      -2.122  14.042  22.211  0.00  0.00    +0.000 A 
ATOM     22  C   UNL     1      -3.476  14.368  22.252  0.00  0.00    +0.000 A 
ATOM     23  C   UNL     1      -4.357  13.829  21.313  0.00  0.00    +0.000 A 
ATOM     24  C   UNL     1      -3.882  13.002  20.299  0.00  0.00    +0.000 A 
ATOM     25  C   UNL     1      -2.531  12.684  20.247  0.00  0.00    +0.000 A 
ENDBRANCH  13  20
TORSDOF 2
ENDMDL
MODEL 8
REMARK VINA RESULT:      -6.3      2.466      4.340
REMARK  Name = 
REMARK  3 active torsions:
REMARK  status: ('A' for Active; 'I' for Inactive)
REMARK    1  A    between atoms: C_1  and  C_2
REMARK    2  A    between atoms: C_8  and  C_9
REMARK    3  A    between atoms: C_19  and  C_20
REMARK                            x       y       z     vdW  Elec       q    Type
REMARK                         _______ _______ _______ _____ _____    ______ ____
ROOT
ATOM      1  C   UNL     1      -0.033  14.515  18.560  0.00  0.00    +0.000 C 
ATOM      2  C   UNL     1      -0.470  14.398  19.997  0.00  0.00    +0.000 C 
ATOM      3  O   UNL     1      -0.850  15.389  20.624  0.00  0.00    +0.000 OA
ATOM      4  N   UNL     1      -0.509  13.112  20.509  0.00  0.00    +0.000 N 
ATOM      5  N   UNL     1       0.169  12.045  19.937  0.00  0.00    +0.000 NA
ATOM      6  C   UNL     1      -0.075  11.014  20.683  0.00  0.00    +0.000 C 
ATOM      7  C   UNL     1       0.390   9.604  20.520  0.00  0.00    +0.000 C 
ATOM      8  C   UNL     1       1.345   9.299  19.626  0.00  0.00    +0.000 C 
ATOM      9  C   UNL     1      -0.298   8.649  21.468  0.00  0.00    +0.000 C 
ATOM     10  C   UNL     1      -0.141   9.154  22.906  0.00  0.00    +0.000 C 
ATOM     11  C   UNL     1      -0.714  10.566  23.115  0.00  0.00    +0.000 C 
ATOM     12  C   UNL     1      -1.051  11.256  21.802  0.00  0.00    +0.000 C 
ATOM     13  C   UNL     1      -1.133  12.779  21.791  0.00  0.00    +0.000 C 
ENDROOT
BRANCH   8  14
ATOM     14  C   UNL     1       1.829   7.929  19.433  0.00  0.00    +0.000 A 
ATOM     15  C   UNL     1       1.802   7.018  20.491  0.00  0.00    +0.000 A 
ATOM     16  C   UNL     1       2.315   5.732  20.325  0.00  0.00    +0.000 A 
ATOM     17  C   UNL     1       2.845   5.342  19.096  0.00  0.00    +0.000 A 
ATOM     18  C   UNL     1       2.874   6.244  18.031  0.00  0.00    +0.000 A 
ATOM     19  C   UNL     1       2.371   7.536  18.201  0.00  0.00    +0.000 A 
ENDBRANCH   8  14
BRANCH  13  20
ATOM     20  C   UNL     1      -2.610  13.107  21.890  0.00  0.00    +0.000 A 
ATOM     21  C   UNL     1      -3.473  12.749  20.844  0.00  0.00    +0.000 A 
ATOM     22  C   UNL     1      -4.753  13.296  20.778  0.00  0.00    +0.000 A 
ATOM     23  C   UNL     1      -5.182  14.198  21.754  0.00  0.00    +0.000 A 
ATOM     24  C   UNL     1      -4.353  14.519  22.825  0.00  0.00    +0.000 A 
ATOM     25  C   UNL     1      -3.081  13.967  22.900  0.00  0.00    +0.000 A 
ENDBRANCH  13  20
TORSDOF 2
ENDMDL
MODEL 9
REMARK VINA RESULT:      -6.3      2.105      3.815
REMARK  Name = 
REMARK  3 active torsions:
REMARK  status: ('A' for Active; 'I' for Inactive)
REMARK    1  A    between atoms: C_1  and  C_2
REMARK    2  A    between atoms: C_8  and  C_9
REMARK    3  A    between atoms: C_19  and  C_20
REMARK                            x       y       z     vdW  Elec       q    Type
REMARK                         _______ _______ _______ _____ _____    ______ ____
ROOT
ATOM      1  C   UNL     1       2.143  13.556  18.158  0.00  0.00    +0.000 C 
ATOM      2  C   UNL     1       1.466  13.696  19.496  0.00  0.00    +0.000 C 
ATOM      3  O   UNL     1       1.280  14.808  19.996  0.00  0.00    +0.000 OA
ATOM      4  N   UNL     1       0.991  12.522  20.054  0.00  0.00    +0.000 N 
ATOM      5  N   UNL     1       1.429  11.264  19.666  0.00  0.00    +0.000 NA
ATOM      6  C   UNL     1       0.792  10.410  20.404  0.00  0.00    +0.000 C 
ATOM      7  C   UNL     1       0.867   8.918  20.395  0.00  0.00    +0.000 C 
ATOM      8  C   UNL     1       1.831   8.288  19.705  0.00  0.00    +0.000 C 
ATOM      9  C   UNL     1      -0.201   8.275  21.249  0.00  0.00    +0.000 C 
ATOM     10  C   UNL     1      -0.143   8.855  22.666  0.00  0.00    +0.000 C 
ATOM     11  C   UNL     1      -0.327  10.382  22.700  0.00  0.00    +0.000 C 
ATOM     12  C   UNL     1      -0.245  11.007  21.316  0.00  0.00    +0.000 C 
ATOM     13  C   UNL     1       0.102  12.489  21.218  0.00  0.00    +0.000 C 
ENDROOT
BRANCH   8  14
ATOM     14  C   UNL     1       1.941   6.827  19.668  0.00  0.00    +0.000 A 
ATOM     15  C   UNL     1       1.843   6.084  20.847  0.00  0.00    +0.000 A 
ATOM     16  C   UNL     1       2.004   4.699  20.821  0.00  0.00    +0.000 A 
ATOM     17  C   UNL     1       2.249   4.044  19.615  0.00  0.00    +0.000 A 
ATOM     18  C   UNL     1       2.345   4.777  18.431  0.00  0.00    +0.000 A 
ATOM     19  C   UNL     1       2.195   6.165  18.458  0.00  0.00    +0.000 A 
ENDBRANCH   8  14
BRANCH  13  20
ATOM     20  C   UNL     1      -1.223  13.205  21.032  0.00  0.00    +0.000 A 
ATOM     21  C   UNL     1      -1.528  14.320  21.828  0.00  0.00    +0.000 A 
ATOM     22  C   UNL     1      -2.835  14.799  21.883  0.00  0.00    +0.000 A 
ATOM     23  C   UNL     1      -3.843  14.176  21.145  0.00  0.00    +0.000 A 
ATOM     24  C   UNL     1      -3.541  13.103  20.311  0.00  0.00    +0.000 A 
ATOM     25  C   UNL     1      -2.237  12.629  20.244  0.00  0.00    +0.000 A 
ENDBRANCH  13  20
TORSDOF 2
ENDMDL
