MODEL 1
REMARK VINA RESULT:      -8.5      0.000      0.000
REMARK  Name = 
REMARK  11 active torsions:
REMARK  status: ('A' for Active; 'I' for Inactive)
REMARK    1  A    between atoms: C_1  and  C_2
REMARK    2  A    between atoms: C_2  and  C_3
REMARK    3  A    between atoms: C_2  and  O_4
REMARK    4  A    between atoms: O_4  and  C_5
REMARK    5  A    between atoms: C_8  and  C_9
REMARK    6  A    between atoms: C_11  and  C_12
REMARK    7  A    between atoms: C_20  and  N_21
REMARK    8  A    between atoms: N_21  and  C_22
REMARK    9  A    between atoms: C_22  and  C_23
REMARK   10  A    between atoms: C_23  and  O_25
REMARK   11  A    between atoms: C_29  and  C_30
REMARK                            x       y       z     vdW  Elec       q    Type
REMARK                         _______ _______ _______ _____ _____    ______ ____
ROOT
ATOM      1  C   UNL     1       1.370   9.135  19.481  0.00  0.00    +0.000 A 
ATOM      2  N   UNL     1       1.677   7.860  19.577  0.00  0.00    +0.000 NA
ATOM      3  C   UNL     1       2.182   7.570  18.331  0.00  0.00    +0.000 A 
ATOM      4  N   UNL     1       2.234   8.631  17.508  0.00  0.00    +0.000 NA
ATOM      5  O   UNL     1       1.694   9.673  18.271  0.00  0.00    +0.000 OA
ENDROOT
BRANCH   3   6
ATOM      6  C   UNL     1       2.602   6.218  17.977  0.00  0.00    +0.000 A 
ATOM      7  C   UNL     1       1.674   5.163  18.041  0.00  0.00    +0.000 A 
ATOM      8  C   UNL     1       2.032   3.851  17.691  0.00  0.00    +0.000 A 
ATOM      9  C   UNL     1       3.327   3.562  17.261  0.00  0.00    +0.000 A 
ATOM     10  C   UNL     1       4.252   4.595  17.195  0.00  0.00    +0.000 A 
ATOM     11  C   UNL     1       3.889   5.913  17.535  0.00  0.00    +0.000 A 
ATOM     12  C   UNL     1       5.059   6.832  17.340  0.00  0.00    +0.000 C 
ATOM     13  C   UNL     1       5.947   5.994  16.411  0.00  0.00    +0.000 C 
ATOM     14  C   UNL     1       5.700   4.512  16.769  0.00  0.00    +0.000 C 
BRANCH  14  15
ATOM     15  N   UNL     1       6.616   4.092  17.847  0.00  0.00    +0.000 NA
ATOM     16  H   UNL     1       6.924   3.136  17.633  0.00  0.00    +0.000 HD
BRANCH  15  17
ATOM     17  C   UNL     1       7.821   4.958  17.894  0.00  0.00    +0.000 C 
BRANCH  17  18
ATOM     18  C   UNL     1       7.840   5.747  19.198  0.00  0.00    +0.000 C 
ATOM     19  O   UNL     1       7.406   5.334  20.262  0.00  0.00    +0.000 OA
BRANCH  18  20
ATOM     20  O   UNL     1       8.439   6.956  19.055  0.00  0.00    +0.000 OA
ATOM     21  H   UNL     1       7.836   7.519  18.516  0.00  0.00    +0.000 HD
ENDBRANCH  18  20
ENDBRANCH  17  18
ENDBRANCH  15  17
ENDBRANCH  14  15
ENDBRANCH   3   6
BRANCH   1  25
ATOM     22  C   UNL     1      -0.474  11.810  22.298  0.00  0.00    +0.000 A 
ATOM     23  C   UNL     1      -0.593  10.423  22.466  0.00  0.00    +0.000 A 
ATOM     24  C   UNL     1       0.003   9.519  21.568  0.00  0.00    +0.000 A 
ATOM     25  C   UNL     1       0.731   9.992  20.472  0.00  0.00    +0.000 A 
ATOM     26  C   UNL     1       0.882  11.375  20.333  0.00  0.00    +0.000 A 
ATOM     27  C   UNL     1       0.324  12.280  21.251  0.00  0.00    +0.000 A 
BRANCH  27  28
ATOM     28  C   UNL     1       0.692  13.651  21.074  0.00  0.00    +0.000 C 
ATOM     29  N   UNL     1       1.027  14.757  20.944  0.00  0.00    +0.000 NA
ENDBRANCH  27  28
BRANCH  22  30
ATOM     30  O   UNL     1      -1.101  12.552  23.262  0.00  0.00    +0.000 OA
BRANCH  30  32
ATOM     31  C   UNL     1      -3.436  12.467  23.869  0.00  0.00    +0.000 C 
ATOM     32  C   UNL     1      -2.387  13.132  22.980  0.00  0.00    +0.000 C 
ATOM     33  C   UNL     1      -2.324  14.623  23.297  0.00  0.00    +0.000 C 
ENDBRANCH  30  32
ENDBRANCH  22  30
ENDBRANCH   1  25
TORSDOF 9
ENDMDL
MODEL 2
REMARK VINA RESULT:      -8.3      1.294      1.578
REMARK  Name = 
REMARK  11 active torsions:
REMARK  status: ('A' for Active; 'I' for Inactive)
REMARK    1  A    between atoms: C_1  and  C_2
REMARK    2  A    between atoms: C_2  and  C_3
REMARK    3  A    between atoms: C_2  and  O_4
REMARK    4  A    between atoms: O_4  and  C_5
REMARK    5  A    between atoms: C_8  and  C_9
REMARK    6  A    between atoms: C_11  and  C_12
REMARK    7  A    between atoms: C_20  and  N_21
REMARK    8  A    between atoms: N_21  and  C_22
REMARK    9  A    between atoms: C_22  and  C_23
REMARK   10  A    between atoms: C_23  and  O_25
REMARK   11  A    between atoms: C_29  and  C_30
REMARK                            x       y       z     vdW  Elec       q    Type
REMARK                         _______ _______ _______ _____ _____    ______ ____
ROOT
ATOM      1  C   UNL     1       0.990   9.059  20.653  0.00  0.00    +0.000 A 
ATOM      2  N   UNL     1       1.333   7.843  21.017  0.00  0.00    +0.000 NA
ATOM      3  C   UNL     1       1.912   7.333  19.878  0.00  0.00    +0.000 A 
ATOM      4  N   UNL     1       1.972   8.210  18.862  0.00  0.00    +0.000 NA
ATOM      5  O   UNL     1       1.360   9.358  19.375  0.00  0.00    +0.000 OA
ENDROOT
BRANCH   3   6
ATOM      6  C   UNL     1       2.392   5.956  19.822  0.00  0.00    +0.000 A 
ATOM      7  C   UNL     1       1.757   4.965  20.591  0.00  0.00    +0.000 A 
ATOM      8  C   UNL     1       2.177   3.626  20.551  0.00  0.00    +0.000 A 
ATOM      9  C   UNL     1       3.239   3.241  19.734  0.00  0.00    +0.000 A 
ATOM     10  C   UNL     1       3.875   4.210  18.970  0.00  0.00    +0.000 A 
ATOM     11  C   UNL     1       3.447   5.552  19.001  0.00  0.00    +0.000 A 
ATOM     12  C   UNL     1       4.275   6.376  18.061  0.00  0.00    +0.000 C 
ATOM     13  C   UNL     1       4.873   5.289  17.158  0.00  0.00    +0.000 C 
ATOM     14  C   UNL     1       5.043   4.025  18.028  0.00  0.00    +0.000 C 
BRANCH  14  15
ATOM     15  N   UNL     1       6.357   4.041  18.697  0.00  0.00    +0.000 NA
ATOM     16  H   UNL     1       6.737   3.089  18.652  0.00  0.00    +0.000 HD
BRANCH  15  17
ATOM     17  C   UNL     1       7.305   4.942  17.993  0.00  0.00    +0.000 C 
BRANCH  17  18
ATOM     18  C   UNL     1       7.859   5.974  18.968  0.00  0.00    +0.000 C 
ATOM     19  O   UNL     1       8.187   7.109  18.660  0.00  0.00    +0.000 OA
BRANCH  18  20
ATOM     20  O   UNL     1       7.907   5.502  20.239  0.00  0.00    +0.000 OA
ATOM     21  H   UNL     1       8.057   6.274  20.833  0.00  0.00    +0.000 HD
ENDBRANCH  18  20
ENDBRANCH  17  18
ENDBRANCH  15  17
ENDBRANCH  14  15
ENDBRANCH   3   6
BRANCH   1  25
ATOM     22  C   UNL     1      -1.082  12.161  22.792  0.00  0.00    +0.000 A 
ATOM     23  C   UNL     1      -1.177  10.829  23.220  0.00  0.00    +0.000 A 
ATOM     24  C   UNL     1      -0.507   9.790  22.548  0.00  0.00    +0.000 A 
ATOM     25  C   UNL     1       0.273  10.068  21.423  0.00  0.00    +0.000 A 
ATOM     26  C   UNL     1       0.399  11.402  21.024  0.00  0.00    +0.000 A 
ATOM     27  C   UNL     1      -0.235  12.448  21.718  0.00  0.00    +0.000 A 
BRANCH  27  28
ATOM     28  C   UNL     1       0.109  13.771  21.296  0.00  0.00    +0.000 C 
ATOM     29  N   UNL     1       0.413  14.831  20.927  0.00  0.00    +0.000 NA
ENDBRANCH  27  28
BRANCH  22  30
ATOM     30  O   UNL     1      -1.783  13.052  23.557  0.00  0.00    +0.000 OA
BRANCH  30  32
ATOM     31  C   UNL     1      -3.469  12.773  21.853  0.00  0.00    +0.000 C 
ATOM     32  C   UNL     1      -3.161  13.320  23.245  0.00  0.00    +0.000 C 
ATOM     33  C   UNL     1      -4.036  12.612  24.275  0.00  0.00    +0.000 C 
ENDBRANCH  30  32
ENDBRANCH  22  30
ENDBRANCH   1  25
TORSDOF 9
ENDMDL
MODEL 3
REMARK VINA RESULT:      -8.1      0.788      1.006
REMARK  Name = 
REMARK  11 active torsions:
REMARK  status: ('A' for Active; 'I' for Inactive)
REMARK    1  A    between atoms: C_1  and  C_2
REMARK    2  A    between atoms: C_2  and  C_3
REMARK    3  A    between atoms: C_2  and  O_4
REMARK    4  A    between atoms: O_4  and  C_5
REMARK    5  A    between atoms: C_8  and  C_9
REMARK    6  A    between atoms: C_11  and  C_12
REMARK    7  A    between atoms: C_20  and  N_21
REMARK    8  A    between atoms: N_21  and  C_22
REMARK    9  A    between atoms: C_22  and  C_23
REMARK   10  A    between atoms: C_23  and  O_25
REMARK   11  A    between atoms: C_29  and  C_30
REMARK                            x       y       z     vdW  Elec       q    Type
REMARK                         _______ _______ _______ _____ _____    ______ ____
ROOT
ATOM      1  C   UNL     1       1.406   9.085  19.374  0.00  0.00    +0.000 A 
ATOM      2  N   UNL     1       1.753   7.828  19.544  0.00  0.00    +0.000 NA
ATOM      3  C   UNL     1       2.349   7.507  18.346  0.00  0.00    +0.000 A 
ATOM      4  N   UNL     1       2.416   8.536  17.484  0.00  0.00    +0.000 NA
ATOM      5  O   UNL     1       1.789   9.585  18.165  0.00  0.00    +0.000 OA
ENDROOT
BRANCH   3   6
ATOM      6  C   UNL     1       2.839   6.159  18.079  0.00  0.00    +0.000 A 
ATOM      7  C   UNL     1       2.077   5.048  18.481  0.00  0.00    +0.000 A 
ATOM      8  C   UNL     1       2.504   3.736  18.225  0.00  0.00    +0.000 A 
ATOM      9  C   UNL     1       3.703   3.500  17.554  0.00  0.00    +0.000 A 
ATOM     10  C   UNL     1       4.466   4.588  17.153  0.00  0.00    +0.000 A 
ATOM     11  C   UNL     1       4.032   5.906  17.399  0.00  0.00    +0.000 A 
ATOM     12  C   UNL     1       5.018   6.884  16.833  0.00  0.00    +0.000 C 
ATOM     13  C   UNL     1       5.781   5.999  15.840  0.00  0.00    +0.000 C 
ATOM     14  C   UNL     1       5.791   4.570  16.427  0.00  0.00    +0.000 C 
BRANCH  14  15
ATOM     15  N   UNL     1       6.957   4.394  17.314  0.00  0.00    +0.000 NA
ATOM     16  H   UNL     1       7.687   5.039  16.993  0.00  0.00    +0.000 HD
BRANCH  15  17
ATOM     17  C   UNL     1       6.620   4.748  18.716  0.00  0.00    +0.000 C 
BRANCH  17  18
ATOM     18  C   UNL     1       7.643   5.741  19.258  0.00  0.00    +0.000 C 
ATOM     19  O   UNL     1       8.037   6.726  18.654  0.00  0.00    +0.000 OA
BRANCH  18  20
ATOM     20  O   UNL     1       8.039   5.429  20.518  0.00  0.00    +0.000 OA
ATOM     21  H   UNL     1       8.693   4.696  20.446  0.00  0.00    +0.000 HD
ENDBRANCH  18  20
ENDBRANCH  17  18
ENDBRANCH  15  17
ENDBRANCH  14  15
ENDBRANCH   3   6
BRANCH   1  25
ATOM     22  C   UNL     1      -0.779  11.774  21.920  0.00  0.00    +0.000 A 
ATOM     23  C   UNL     1      -0.441  10.493  22.378  0.00  0.00    +0.000 A 
ATOM     24  C   UNL     1       0.279   9.590  21.575  0.00  0.00    +0.000 A 
ATOM     25  C   UNL     1       0.673   9.955  20.284  0.00  0.00    +0.000 A 
ATOM     26  C   UNL     1       0.370  11.248  19.847  0.00  0.00    +0.000 A 
ATOM     27  C   UNL     1      -0.312  12.168  20.662  0.00  0.00    +0.000 A 
BRANCH  27  28
ATOM     28  C   UNL     1      -0.412  13.499  20.148  0.00  0.00    +0.000 C 
ATOM     29  N   UNL     1      -0.459  14.575  19.710  0.00  0.00    +0.000 NA
ENDBRANCH  27  28
BRANCH  22  30
ATOM     30  O   UNL     1      -1.470  12.535  22.824  0.00  0.00    +0.000 OA
BRANCH  30  32
ATOM     31  C   UNL     1      -3.349  13.105  24.226  0.00  0.00    +0.000 C 
ATOM     32  C   UNL     1      -2.871  12.287  23.029  0.00  0.00    +0.000 C 
ATOM     33  C   UNL     1      -3.627  12.727  21.778  0.00  0.00    +0.000 C 
ENDBRANCH  30  32
ENDBRANCH  22  30
ENDBRANCH   1  25
TORSDOF 9
ENDMDL
MODEL 4
REMARK VINA RESULT:      -7.9      3.627     10.495
REMARK  Name = 
REMARK  11 active torsions:
REMARK  status: ('A' for Active; 'I' for Inactive)
REMARK    1  A    between atoms: C_1  and  C_2
REMARK    2  A    between atoms: C_2  and  C_3
REMARK    3  A    between atoms: C_2  and  O_4
REMARK    4  A    between atoms: O_4  and  C_5
REMARK    5  A    between atoms: C_8  and  C_9
REMARK    6  A    between atoms: C_11  and  C_12
REMARK    7  A    between atoms: C_20  and  N_21
REMARK    8  A    between atoms: N_21  and  C_22
REMARK    9  A    between atoms: C_22  and  C_23
REMARK   10  A    between atoms: C_23  and  O_25
REMARK   11  A    between atoms: C_29  and  C_30
REMARK                            x       y       z     vdW  Elec       q    Type
REMARK                         _______ _______ _______ _____ _____    ______ ____
ROOT
ATOM      1  C   UNL     1       1.902   8.003  19.294  0.00  0.00    +0.000 A 
ATOM      2  N   UNL     1       1.356   9.122  18.870  0.00  0.00    +0.000 NA
ATOM      3  C   UNL     1       0.660   9.563  19.972  0.00  0.00    +0.000 A 
ATOM      4  N   UNL     1       0.805   8.777  21.053  0.00  0.00    +0.000 NA
ATOM      5  O   UNL     1       1.630   7.740  20.604  0.00  0.00    +0.000 OA
ENDROOT
BRANCH   3   6
ATOM      6  C   UNL     1      -0.156  10.772  19.921  0.00  0.00    +0.000 A 
ATOM      7  C   UNL     1       0.240  11.910  20.646  0.00  0.00    +0.000 A 
ATOM      8  C   UNL     1      -0.507  13.098  20.608  0.00  0.00    +0.000 A 
ATOM      9  C   UNL     1      -1.666  13.181  19.838  0.00  0.00    +0.000 A 
ATOM     10  C   UNL     1      -2.069  12.063  19.119  0.00  0.00    +0.000 A 
ATOM     11  C   UNL     1      -1.313  10.875  19.148  0.00  0.00    +0.000 A 
ATOM     12  C   UNL     1      -1.945   9.845  18.260  0.00  0.00    +0.000 C 
ATOM     13  C   UNL     1      -2.838  10.722  17.372  0.00  0.00    +0.000 C 
ATOM     14  C   UNL     1      -3.285  11.924  18.233  0.00  0.00    +0.000 C 
BRANCH  14  15
ATOM     15  N   UNL     1      -4.522  11.593  18.965  0.00  0.00    +0.000 NA
ATOM     16  H   UNL     1      -4.898  12.469  19.344  0.00  0.00    +0.000 HD
BRANCH  15  17
ATOM     17  C   UNL     1      -5.544  11.015  18.056  0.00  0.00    +0.000 C 
BRANCH  17  18
ATOM     18  C   UNL     1      -6.870  10.869  18.794  0.00  0.00    +0.000 C 
ATOM     19  O   UNL     1      -7.491  11.797  19.289  0.00  0.00    +0.000 OA
BRANCH  18  20
ATOM     20  O   UNL     1      -7.311   9.586  18.802  0.00  0.00    +0.000 OA
ATOM     21  H   UNL     1      -8.041   9.532  19.462  0.00  0.00    +0.000 HD
ENDBRANCH  18  20
ENDBRANCH  17  18
ENDBRANCH  15  17
ENDBRANCH  14  15
ENDBRANCH   3   6
BRANCH   1  25
ATOM     22  C   UNL     1       4.173   5.045  17.155  0.00  0.00    +0.000 A 
ATOM     23  C   UNL     1       4.423   6.409  16.945  0.00  0.00    +0.000 A 
ATOM     24  C   UNL     1       3.704   7.403  17.633  0.00  0.00    +0.000 A 
ATOM     25  C   UNL     1       2.709   7.047  18.547  0.00  0.00    +0.000 A 
ATOM     26  C   UNL     1       2.491   5.686  18.784  0.00  0.00    +0.000 A 
ATOM     27  C   UNL     1       3.236   4.690  18.130  0.00  0.00    +0.000 A 
BRANCH  27  28
ATOM     28  C   UNL     1       3.018   3.351  18.585  0.00  0.00    +0.000 C 
ATOM     29  N   UNL     1       2.869   2.268  18.982  0.00  0.00    +0.000 NA
ENDBRANCH  27  28
BRANCH  22  30
ATOM     30  O   UNL     1       4.963   4.205  16.418  0.00  0.00    +0.000 OA
BRANCH  30  32
ATOM     31  C   UNL     1       7.351   4.470  16.644  0.00  0.00    +0.000 C 
ATOM     32  C   UNL     1       6.132   4.729  15.763  0.00  0.00    +0.000 C 
ATOM     33  C   UNL     1       6.304   4.004  14.431  0.00  0.00    +0.000 C 
ENDBRANCH  30  32
ENDBRANCH  22  30
ENDBRANCH   1  25
TORSDOF 9
ENDMDL
MODEL 5
REMARK VINA RESULT:      -7.9      6.077      8.089
REMARK  Name = 
REMARK  11 active torsions:
REMARK  status: ('A' for Active; 'I' for Inactive)
REMARK    1  A    between atoms: C_1  and  C_2
REMARK    2  A    between atoms: C_2  and  C_3
REMARK    3  A    between atoms: C_2  and  O_4
REMARK    4  A    between atoms: O_4  and  C_5
REMARK    5  A    between atoms: C_8  and  C_9
REMARK    6  A    between atoms: C_11  and  C_12
REMARK    7  A    between atoms: C_20  and  N_21
REMARK    8  A    between atoms: N_21  and  C_22
REMARK    9  A    between atoms: C_22  and  C_23
REMARK   10  A    between atoms: C_23  and  O_25
REMARK   11  A    between atoms: C_29  and  C_30
REMARK                            x       y       z     vdW  Elec       q    Type
REMARK                         _______ _______ _______ _____ _____    ______ ____
ROOT
ATOM      1  C   UNL     1       8.131   8.857  18.031  0.00  0.00    +0.000 A 
ATOM      2  N   UNL     1       7.249   8.233  17.282  0.00  0.00    +0.000 NA
ATOM      3  C   UNL     1       7.341   6.931  17.718  0.00  0.00    +0.000 A 
ATOM      4  N   UNL     1       8.208   6.760  18.731  0.00  0.00    +0.000 NA
ATOM      5  O   UNL     1       8.734   8.039  18.940  0.00  0.00    +0.000 OA
ENDROOT
BRANCH   3   6
ATOM      6  C   UNL     1       6.556   5.866  17.101  0.00  0.00    +0.000 A 
ATOM      7  C   UNL     1       6.834   5.473  15.780  0.00  0.00    +0.000 A 
ATOM      8  C   UNL     1       6.116   4.441  15.156  0.00  0.00    +0.000 A 
ATOM      9  C   UNL     1       5.104   3.770  15.842  0.00  0.00    +0.000 A 
ATOM     10  C   UNL     1       4.819   4.149  17.146  0.00  0.00    +0.000 A 
ATOM     11  C   UNL     1       5.548   5.177  17.775  0.00  0.00    +0.000 A 
ATOM     12  C   UNL     1       5.065   5.359  19.184  0.00  0.00    +0.000 C 
ATOM     13  C   UNL     1       4.343   4.027  19.427  0.00  0.00    +0.000 C 
ATOM     14  C   UNL     1       3.768   3.572  18.067  0.00  0.00    +0.000 C 
BRANCH  14  15
ATOM     15  N   UNL     1       2.422   4.142  17.869  0.00  0.00    +0.000 NA
ATOM     16  H   UNL     1       2.306   4.311  16.864  0.00  0.00    +0.000 HD
BRANCH  15  17
ATOM     17  C   UNL     1       1.369   3.187  18.295  0.00  0.00    +0.000 C 
BRANCH  17  18
ATOM     18  C   UNL     1       1.164   3.282  19.803  0.00  0.00    +0.000 C 
ATOM     19  O   UNL     1       0.687   4.249  20.376  0.00  0.00    +0.000 OA
BRANCH  18  20
ATOM     20  O   UNL     1       1.532   2.143  20.441  0.00  0.00    +0.000 OA
ATOM     21  H   UNL     1       2.501   2.203  20.613  0.00  0.00    +0.000 HD
ENDBRANCH  18  20
ENDBRANCH  17  18
ENDBRANCH  15  17
ENDBRANCH  14  15
ENDBRANCH   3   6
BRANCH   1  25
ATOM     22  C   UNL     1       9.481  12.939  17.960  0.00  0.00    +0.000 A 
ATOM     23  C   UNL     1       8.247  12.598  17.389  0.00  0.00    +0.000 A 
ATOM     24  C   UNL     1       7.771  11.274  17.401  0.00  0.00    +0.000 A 
ATOM     25  C   UNL     1       8.532  10.258  17.984  0.00  0.00    +0.000 A 
ATOM     26  C   UNL     1       9.743  10.609  18.590  0.00  0.00    +0.000 A 
ATOM     27  C   UNL     1      10.202  11.937  18.618  0.00  0.00    +0.000 A 
BRANCH  27  28
ATOM     28  C   UNL     1      11.372  12.174  19.405  0.00  0.00    +0.000 C 
ATOM     29  N   UNL     1      12.333  12.327  20.042  0.00  0.00    +0.000 NA
ENDBRANCH  27  28
BRANCH  22  30
ATOM     30  O   UNL     1       9.796  14.268  17.877  0.00  0.00    +0.000 OA
BRANCH  30  32
ATOM     31  C   UNL     1      10.247  16.191  19.264  0.00  0.00    +0.000 C 
ATOM     32  C   UNL     1       9.189  15.196  18.793  0.00  0.00    +0.000 C 
ATOM     33  C   UNL     1       8.079  15.943  18.060  0.00  0.00    +0.000 C 
ENDBRANCH  30  32
ENDBRANCH  22  30
ENDBRANCH   1  25
TORSDOF 9
ENDMDL
MODEL 6
REMARK VINA RESULT:      -7.8      2.063      2.271
REMARK  Name = 
REMARK  11 active torsions:
REMARK  status: ('A' for Active; 'I' for Inactive)
REMARK    1  A    between atoms: C_1  and  C_2
REMARK    2  A    between atoms: C_2  and  C_3
REMARK    3  A    between atoms: C_2  and  O_4
REMARK    4  A    between atoms: O_4  and  C_5
REMARK    5  A    between atoms: C_8  and  C_9
REMARK    6  A    between atoms: C_11  and  C_12
REMARK    7  A    between atoms: C_20  and  N_21
REMARK    8  A    between atoms: N_21  and  C_22
REMARK    9  A    between atoms: C_22  and  C_23
REMARK   10  A    between atoms: C_23  and  O_25
REMARK   11  A    between atoms: C_29  and  C_30
REMARK                            x       y       z     vdW  Elec       q    Type
REMARK                         _______ _______ _______ _____ _____    ______ ____
ROOT
ATOM      1  C   UNL     1       1.225   9.400  18.523  0.00  0.00    +0.000 A 
ATOM      2  N   UNL     1       1.326   8.136  18.871  0.00  0.00    +0.000 NA
ATOM      3  C   UNL     1       2.323   7.668  18.046  0.00  0.00    +0.000 A 
ATOM      4  N   UNL     1       2.855   8.613  17.252  0.00  0.00    +0.000 NA
ATOM      5  O   UNL     1       2.127   9.764  17.568  0.00  0.00    +0.000 OA
ENDROOT
BRANCH   3   6
ATOM      6  C   UNL     1       2.724   6.265  18.060  0.00  0.00    +0.000 A 
ATOM      7  C   UNL     1       1.871   5.302  18.628  0.00  0.00    +0.000 A 
ATOM      8  C   UNL     1       2.212   3.941  18.644  0.00  0.00    +0.000 A 
ATOM      9  C   UNL     1       3.412   3.505  18.085  0.00  0.00    +0.000 A 
ATOM     10  C   UNL     1       4.264   4.446  17.522  0.00  0.00    +0.000 A 
ATOM     11  C   UNL     1       3.917   5.811  17.496  0.00  0.00    +0.000 A 
ATOM     12  C   UNL     1       4.989   6.598  16.801  0.00  0.00    +0.000 C 
ATOM     13  C   UNL     1       5.720   5.492  16.029  0.00  0.00    +0.000 C 
ATOM     14  C   UNL     1       5.608   4.204  16.873  0.00  0.00    +0.000 C 
BRANCH  14  15
ATOM     15  N   UNL     1       6.728   4.126  17.831  0.00  0.00    +0.000 NA
ATOM     16  H   UNL     1       7.282   3.297  17.589  0.00  0.00    +0.000 HD
BRANCH  15  17
ATOM     17  C   UNL     1       7.612   5.313  17.717  0.00  0.00    +0.000 C 
BRANCH  17  18
ATOM     18  C   UNL     1       7.809   5.945  19.091  0.00  0.00    +0.000 C 
ATOM     19  O   UNL     1       7.438   5.445  20.141  0.00  0.00    +0.000 OA
BRANCH  18  20
ATOM     20  O   UNL     1       8.488   7.118  19.021  0.00  0.00    +0.000 OA
ATOM     21  H   UNL     1       8.532   7.486  19.934  0.00  0.00    +0.000 HD
ENDBRANCH  18  20
ENDBRANCH  17  18
ENDBRANCH  15  17
ENDBRANCH  14  15
ENDBRANCH   3   6
BRANCH   1  25
ATOM     22  C   UNL     1      -1.681  12.280  19.847  0.00  0.00    +0.000 A 
ATOM     23  C   UNL     1      -0.423  12.217  20.463  0.00  0.00    +0.000 A 
ATOM     24  C   UNL     1       0.554  11.293  20.051  0.00  0.00    +0.000 A 
ATOM     25  C   UNL     1       0.285  10.402  19.009  0.00  0.00    +0.000 A 
ATOM     26  C   UNL     1      -0.955  10.495  18.369  0.00  0.00    +0.000 A 
ATOM     27  C   UNL     1      -1.918  11.446  18.750  0.00  0.00    +0.000 A 
BRANCH  27  28
ATOM     28  C   UNL     1      -3.072  11.533  17.909  0.00  0.00    +0.000 C 
ATOM     29  N   UNL     1      -4.022  11.569  17.240  0.00  0.00    +0.000 NA
ENDBRANCH  27  28
BRANCH  22  30
ATOM     30  O   UNL     1      -2.513  13.239  20.355  0.00  0.00    +0.000 OA
BRANCH  30  32
ATOM     31  C   UNL     1      -3.332  13.218  22.626  0.00  0.00    +0.000 C 
ATOM     32  C   UNL     1      -3.627  12.844  21.175  0.00  0.00    +0.000 C 
ATOM     33  C   UNL     1      -4.867  13.596  20.699  0.00  0.00    +0.000 C 
ENDBRANCH  30  32
ENDBRANCH  22  30
ENDBRANCH   1  25
TORSDOF 9
ENDMDL
MODEL 7
REMARK VINA RESULT:      -7.8      1.614      1.804
REMARK  Name = 
REMARK  11 active torsions:
REMARK  status: ('A' for Active; 'I' for Inactive)
REMARK    1  A    between atoms: C_1  and  C_2
REMARK    2  A    between atoms: C_2  and  C_3
REMARK    3  A    between atoms: C_2  and  O_4
REMARK    4  A    between atoms: O_4  and  C_5
REMARK    5  A    between atoms: C_8  and  C_9
REMARK    6  A    between atoms: C_11  and  C_12
REMARK    7  A    between atoms: C_20  and  N_21
REMARK    8  A    between atoms: N_21  and  C_22
REMARK    9  A    between atoms: C_22  and  C_23
REMARK   10  A    between atoms: C_23  and  O_25
REMARK   11  A    between atoms: C_29  and  C_30
REMARK                            x       y       z     vdW  Elec       q    Type
REMARK                         _______ _______ _______ _____ _____    ______ ____
ROOT
ATOM      1  C   UNL     1       1.318   9.591  18.901  0.00  0.00    +0.000 A 
ATOM      2  N   UNL     1       1.481   8.341  19.276  0.00  0.00    +0.000 NA
ATOM      3  C   UNL     1       2.230   7.808  18.252  0.00  0.00    +0.000 A 
ATOM      4  N   UNL     1       2.562   8.701  17.304  0.00  0.00    +0.000 NA
ATOM      5  O   UNL     1       1.956   9.886  17.733  0.00  0.00    +0.000 OA
ENDROOT
BRANCH   3   6
ATOM      6  C   UNL     1       2.598   6.396  18.235  0.00  0.00    +0.000 A 
ATOM      7  C   UNL     1       1.721   5.442  18.780  0.00  0.00    +0.000 A 
ATOM      8  C   UNL     1       2.029   4.072  18.766  0.00  0.00    +0.000 A 
ATOM      9  C   UNL     1       3.221   3.621  18.200  0.00  0.00    +0.000 A 
ATOM     10  C   UNL     1       4.096   4.553  17.660  0.00  0.00    +0.000 A 
ATOM     11  C   UNL     1       3.781   5.926  17.663  0.00  0.00    +0.000 A 
ATOM     12  C   UNL     1       4.873   6.703  16.989  0.00  0.00    +0.000 C 
ATOM     13  C   UNL     1       5.579   5.598  16.193  0.00  0.00    +0.000 C 
ATOM     14  C   UNL     1       5.435   4.294  17.009  0.00  0.00    +0.000 C 
BRANCH  14  15
ATOM     15  N   UNL     1       6.550   4.169  17.966  0.00  0.00    +0.000 NA
ATOM     16  H   UNL     1       7.032   3.286  17.762  0.00  0.00    +0.000 HD
BRANCH  15  17
ATOM     17  C   UNL     1       7.530   5.271  17.795  0.00  0.00    +0.000 C 
BRANCH  17  18
ATOM     18  C   UNL     1       7.822   5.918  19.144  0.00  0.00    +0.000 C 
ATOM     19  O   UNL     1       7.539   5.422  20.224  0.00  0.00    +0.000 OA
BRANCH  18  20
ATOM     20  O   UNL     1       8.478   7.098  19.013  0.00  0.00    +0.000 OA
ATOM     21  H   UNL     1       8.730   7.395  19.919  0.00  0.00    +0.000 HD
ENDBRANCH  18  20
ENDBRANCH  17  18
ENDBRANCH  15  17
ENDBRANCH  14  15
ENDBRANCH   3   6
BRANCH   1  25
ATOM     22  C   UNL     1      -1.112  12.613  20.759  0.00  0.00    +0.000 A 
ATOM     23  C   UNL     1       0.251  12.516  21.074  0.00  0.00    +0.000 A 
ATOM     24  C   UNL     1       1.076  11.545  20.480  0.00  0.00    +0.000 A 
ATOM     25  C   UNL     1       0.547  10.640  19.556  0.00  0.00    +0.000 A 
ATOM     26  C   UNL     1      -0.803  10.767  19.214  0.00  0.00    +0.000 A 
ATOM     27  C   UNL     1      -1.621  11.763  19.773  0.00  0.00    +0.000 A 
BRANCH  27  28
ATOM     28  C   UNL     1      -2.934  11.875  19.215  0.00  0.00    +0.000 C 
ATOM     29  N   UNL     1      -3.990  12.002  18.746  0.00  0.00    +0.000 NA
ENDBRANCH  27  28
BRANCH  22  30
ATOM     30  O   UNL     1      -1.774  13.616  21.413  0.00  0.00    +0.000 OA
BRANCH  30  32
ATOM     31  C   UNL     1      -2.183  11.899  23.059  0.00  0.00    +0.000 C 
ATOM     32  C   UNL     1      -2.248  13.393  22.752  0.00  0.00    +0.000 C 
ATOM     33  C   UNL     1      -1.340  14.150  23.718  0.00  0.00    +0.000 C 
ENDBRANCH  30  32
ENDBRANCH  22  30
ENDBRANCH   1  25
TORSDOF 9
ENDMDL
MODEL 8
REMARK VINA RESULT:      -7.8      1.619      2.002
REMARK  Name = 
REMARK  11 active torsions:
REMARK  status: ('A' for Active; 'I' for Inactive)
REMARK    1  A    between atoms: C_1  and  C_2
REMARK    2  A    between atoms: C_2  and  C_3
REMARK    3  A    between atoms: C_2  and  O_4
REMARK    4  A    between atoms: O_4  and  C_5
REMARK    5  A    between atoms: C_8  and  C_9
REMARK    6  A    between atoms: C_11  and  C_12
REMARK    7  A    between atoms: C_20  and  N_21
REMARK    8  A    between atoms: N_21  and  C_22
REMARK    9  A    between atoms: C_22  and  C_23
REMARK   10  A    between atoms: C_23  and  O_25
REMARK   11  A    between atoms: C_29  and  C_30
REMARK                            x       y       z     vdW  Elec       q    Type
REMARK                         _______ _______ _______ _____ _____    ______ ____
ROOT
ATOM      1  C   UNL     1       1.243   9.850  19.057  0.00  0.00    +0.000 A 
ATOM      2  N   UNL     1       1.398   8.756  19.770  0.00  0.00    +0.000 NA
ATOM      3  C   UNL     1       2.129   7.944  18.934  0.00  0.00    +0.000 A 
ATOM      4  N   UNL     1       2.459   8.525  17.768  0.00  0.00    +0.000 NA
ATOM      5  O   UNL     1       1.871   9.791  17.847  0.00  0.00    +0.000 OA
ENDROOT
BRANCH   3   6
ATOM      6  C   UNL     1       2.482   6.580  19.317  0.00  0.00    +0.000 A 
ATOM      7  C   UNL     1       1.790   5.951  20.368  0.00  0.00    +0.000 A 
ATOM      8  C   UNL     1       2.086   4.635  20.754  0.00  0.00    +0.000 A 
ATOM      9  C   UNL     1       3.078   3.910  20.095  0.00  0.00    +0.000 A 
ATOM     10  C   UNL     1       3.769   4.520  19.057  0.00  0.00    +0.000 A 
ATOM     11  C   UNL     1       3.464   5.837  18.661  0.00  0.00    +0.000 A 
ATOM     12  C   UNL     1       4.327   6.236  17.501  0.00  0.00    +0.000 C 
ATOM     13  C   UNL     1       4.791   4.866  16.988  0.00  0.00    +0.000 C 
ATOM     14  C   UNL     1       4.879   3.933  18.215  0.00  0.00    +0.000 C 
BRANCH  14  15
ATOM     15  N   UNL     1       6.214   4.033  18.834  0.00  0.00    +0.000 NA
ATOM     16  H   UNL     1       6.619   3.090  18.847  0.00  0.00    +0.000 HD
BRANCH  15  17
ATOM     17  C   UNL     1       7.112   4.902  18.033  0.00  0.00    +0.000 C 
BRANCH  17  18
ATOM     18  C   UNL     1       7.765   5.944  18.935  0.00  0.00    +0.000 C 
ATOM     19  O   UNL     1       8.116   7.054  18.567  0.00  0.00    +0.000 OA
BRANCH  18  20
ATOM     20  O   UNL     1       7.874   5.513  20.216  0.00  0.00    +0.000 OA
ATOM     21  H   UNL     1       7.967   4.532  20.189  0.00  0.00    +0.000 HD
ENDBRANCH  18  20
ENDBRANCH  17  18
ENDBRANCH  15  17
ENDBRANCH  14  15
ENDBRANCH   3   6
BRANCH   1  25
ATOM     22  C   UNL     1      -0.815  13.475  20.110  0.00  0.00    +0.000 A 
ATOM     23  C   UNL     1      -1.481  12.474  19.388  0.00  0.00    +0.000 A 
ATOM     24  C   UNL     1      -0.841  11.273  19.033  0.00  0.00    +0.000 A 
ATOM     25  C   UNL     1       0.492  11.053  19.392  0.00  0.00    +0.000 A 
ATOM     26  C   UNL     1       1.139  12.035  20.148  0.00  0.00    +0.000 A 
ATOM     27  C   UNL     1       0.490  13.218  20.541  0.00  0.00    +0.000 A 
BRANCH  27  28
ATOM     28  C   UNL     1       1.219  14.057  21.441  0.00  0.00    +0.000 C 
ATOM     29  N   UNL     1       1.843  14.715  22.169  0.00  0.00    +0.000 NA
ENDBRANCH  27  28
BRANCH  22  30
ATOM     30  O   UNL     1      -1.579  14.576  20.386  0.00  0.00    +0.000 OA
BRANCH  30  32
ATOM     31  C   UNL     1      -2.429  14.319  22.630  0.00  0.00    +0.000 C 
ATOM     32  C   UNL     1      -2.788  14.424  21.150  0.00  0.00    +0.000 C 
ATOM     33  C   UNL     1      -3.660  15.656  20.925  0.00  0.00    +0.000 C 
ENDBRANCH  30  32
ENDBRANCH  22  30
ENDBRANCH   1  25
TORSDOF 9
ENDMDL
MODEL 9
REMARK VINA RESULT:      -7.8      3.679     10.432
REMARK  Name = 
REMARK  11 active torsions:
REMARK  status: ('A' for Active; 'I' for Inactive)
REMARK    1  A    between atoms: C_1  and  C_2
REMARK    2  A    between atoms: C_2  and  C_3
REMARK    3  A    between atoms: C_2  and  O_4
REMARK    4  A    between atoms: O_4  and  C_5
REMARK    5  A    between atoms: C_8  and  C_9
REMARK    6  A    between atoms: C_11  and  C_12
REMARK    7  A    between atoms: C_20  and  N_21
REMARK    8  A    between atoms: N_21  and  C_22
REMARK    9  A    between atoms: C_22  and  C_23
REMARK   10  A    between atoms: C_23  and  O_25
REMARK   11  A    between atoms: C_29  and  C_30
REMARK                            x       y       z     vdW  Elec       q    Type
REMARK                         _______ _______ _______ _____ _____    ______ ____
ROOT
ATOM      1  C   UNL     1       1.854   7.901  19.726  0.00  0.00    +0.000 A 
ATOM      2  N   UNL     1       1.283   9.028  19.362  0.00  0.00    +0.000 NA
ATOM      3  C   UNL     1       0.486   9.332  20.442  0.00  0.00    +0.000 A 
ATOM      4  N   UNL     1       0.594   8.458  21.457  0.00  0.00    +0.000 NA
ATOM      5  O   UNL     1       1.503   7.506  20.983  0.00  0.00    +0.000 OA
ENDROOT
BRANCH   3   6
ATOM      6  C   UNL     1      -0.387  10.502  20.435  0.00  0.00    +0.000 A 
ATOM      7  C   UNL     1      -0.339  11.412  21.506  0.00  0.00    +0.000 A 
ATOM      8  C   UNL     1      -1.148  12.559  21.529  0.00  0.00    +0.000 A 
ATOM      9  C   UNL     1      -2.022  12.829  20.477  0.00  0.00    +0.000 A 
ATOM     10  C   UNL     1      -2.079  11.938  19.414  0.00  0.00    +0.000 A 
ATOM     11  C   UNL     1      -1.259  10.793  19.386  0.00  0.00    +0.000 A 
ATOM     12  C   UNL     1      -1.492  10.028  18.117  0.00  0.00    +0.000 C 
ATOM     13  C   UNL     1      -2.152  11.098  17.238  0.00  0.00    +0.000 C 
ATOM     14  C   UNL     1      -2.951  12.024  18.182  0.00  0.00    +0.000 C 
BRANCH  14  15
ATOM     15  N   UNL     1      -4.314  11.496  18.377  0.00  0.00    +0.000 NA
ATOM     16  H   UNL     1      -4.775  12.087  19.078  0.00  0.00    +0.000 HD
BRANCH  15  17
ATOM     17  C   UNL     1      -5.104  11.578  17.123  0.00  0.00    +0.000 C 
BRANCH  17  18
ATOM     18  C   UNL     1      -6.353  12.422  17.352  0.00  0.00    +0.000 C 
ATOM     19  O   UNL     1      -6.551  13.516  16.847  0.00  0.00    +0.000 OA
BRANCH  18  20
ATOM     20  O   UNL     1      -7.252  11.797  18.154  0.00  0.00    +0.000 OA
ATOM     21  H   UNL     1      -6.929  10.876  18.294  0.00  0.00    +0.000 HD
ENDBRANCH  18  20
ENDBRANCH  17  18
ENDBRANCH  15  17
ENDBRANCH  14  15
ENDBRANCH   3   6
BRANCH   1  25
ATOM     22  C   UNL     1       4.480   5.263  17.574  0.00  0.00    +0.000 A 
ATOM     23  C   UNL     1       4.302   6.584  17.139  0.00  0.00    +0.000 A 
ATOM     24  C   UNL     1       3.457   7.476  17.823  0.00  0.00    +0.000 A 
ATOM     25  C   UNL     1       2.763   7.056  18.961  0.00  0.00    +0.000 A 
ATOM     26  C   UNL     1       2.976   5.751  19.415  0.00  0.00    +0.000 A 
ATOM     27  C   UNL     1       3.852   4.869  18.760  0.00  0.00    +0.000 A 
BRANCH  27  28
ATOM     28  C   UNL     1       4.093   3.625  19.422  0.00  0.00    +0.000 C 
ATOM     29  N   UNL     1       4.253   2.617  19.980  0.00  0.00    +0.000 NA
ENDBRANCH  27  28
BRANCH  22  30
ATOM     30  O   UNL     1       5.342   4.526  16.808  0.00  0.00    +0.000 OA
BRANCH  30  32
ATOM     31  C   UNL     1       7.679   4.509  17.411  0.00  0.00    +0.000 C 
ATOM     32  C   UNL     1       6.625   5.076  16.462  0.00  0.00    +0.000 C 
ATOM     33  C   UNL     1       6.957   4.665  15.030  0.00  0.00    +0.000 C 
ENDBRANCH  30  32
ENDBRANCH  22  30
ENDBRANCH   1  25
TORSDOF 9
ENDMDL
