MODEL 1
REMARK VINA RESULT:      -7.8      0.000      0.000
REMARK  Name = 
REMARK  4 active torsions:
REMARK  status: ('A' for Active; 'I' for Inactive)
REMARK    1  A    between atoms: C_9  and  N_10
REMARK    2  A    between atoms: N_10  and  C_11
REMARK    3  A    between atoms: N_17  and  C_18
REMARK    4  A    between atoms: C_18  and  C_19
REMARK                            x       y       z     vdW  Elec       q    Type
REMARK                         _______ _______ _______ _____ _____    ______ ____
ROOT
ATOM      1  O   UNL     1       3.557   7.496  16.947  0.00  0.00    +0.000 OA
ATOM      2  C   UNL     1       4.448   6.713  17.216  0.00  0.00    +0.000 C 
ATOM      3  C   UNL     1       5.804   7.122  17.580  0.00  0.00    +0.000 A 
ATOM      4  C   UNL     1       6.373   8.381  17.538  0.00  0.00    +0.000 A 
ATOM      5  C   UNL     1       7.695   8.499  17.966  0.00  0.00    +0.000 A 
ATOM      6  C   UNL     1       8.399   7.374  18.430  0.00  0.00    +0.000 A 
ATOM      7  C   UNL     1       7.796   6.111  18.467  0.00  0.00    +0.000 A 
ATOM      8  C   UNL     1       6.488   5.995  18.025  0.00  0.00    +0.000 A 
ATOM      9  C   UNL     1       5.593   4.794  17.935  0.00  0.00    +0.000 C 
ATOM     10  N   UNL     1       4.394   5.330  17.321  0.00  0.00    +0.000 N 
ENDROOT
BRANCH   9  11
ATOM     11  N   UNL     1       6.147   3.809  17.035  0.00  0.00    +0.000 N 
ATOM     12  H   UNL     1       5.704   2.905  17.163  0.00  0.00    +0.000 HD
BRANCH  11  13
ATOM     13  C   UNL     1       6.387   4.129  15.698  0.00  0.00    +0.000 A 
ATOM     14  C   UNL     1       5.643   3.504  14.691  0.00  0.00    +0.000 A 
ATOM     15  C   UNL     1       5.914   3.751  13.343  0.00  0.00    +0.000 A 
ATOM     16  C   UNL     1       6.947   4.615  13.029  0.00  0.00    +0.000 A 
ATOM     17  N   UNL     1       7.709   5.228  13.956  0.00  0.00    +0.000 NA
ATOM     18  C   UNL     1       7.423   4.953  15.254  0.00  0.00    +0.000 A 
ENDBRANCH  11  13
ENDBRANCH   9  11
BRANCH  10  19
ATOM     19  C   UNL     1       3.131   4.615  17.370  0.00  0.00    +0.000 C 
BRANCH  19  20
ATOM     20  C   UNL     1       2.721   4.225  18.771  0.00  0.00    +0.000 A 
ATOM     21  C   UNL     1       2.245   5.223  19.646  0.00  0.00    +0.000 A 
ATOM     22  C   UNL     1       1.803   4.908  20.934  0.00  0.00    +0.000 A 
ATOM     23  C   UNL     1       1.828   3.589  21.373  0.00  0.00    +0.000 A 
ATOM     24  C   UNL     1       2.316   2.589  20.535  0.00  0.00    +0.000 A 
ATOM     25  C   UNL     1       2.766   2.905  19.244  0.00  0.00    +0.000 A 
ATOM     26 CL   UNL     1       3.409   1.608  18.303  0.00  0.00    +0.000 Cl
ENDBRANCH  19  20
ENDBRANCH  10  19
TORSDOF 4
ENDMDL
MODEL 2
REMARK VINA RESULT:      -7.4      1.144      1.486
REMARK  Name = 
REMARK  4 active torsions:
REMARK  status: ('A' for Active; 'I' for Inactive)
REMARK    1  A    between atoms: C_9  and  N_10
REMARK    2  A    between atoms: N_10  and  C_11
REMARK    3  A    between atoms: N_17  and  C_18
REMARK    4  A    between atoms: C_18  and  C_19
REMARK                            x       y       z     vdW  Elec       q    Type
REMARK                         _______ _______ _______ _____ _____    ______ ____
ROOT
ATOM      1  O   UNL     1       3.574   7.695  17.003  0.00  0.00    +0.000 OA
ATOM      2  C   UNL     1       4.409   6.858  17.288  0.00  0.00    +0.000 C 
ATOM      3  C   UNL     1       5.794   7.181  17.633  0.00  0.00    +0.000 A 
ATOM      4  C   UNL     1       6.450   8.395  17.553  0.00  0.00    +0.000 A 
ATOM      5  C   UNL     1       7.780   8.431  17.969  0.00  0.00    +0.000 A 
ATOM      6  C   UNL     1       8.407   7.272  18.461  0.00  0.00    +0.000 A 
ATOM      7  C   UNL     1       7.717   6.056  18.536  0.00  0.00    +0.000 A 
ATOM      8  C   UNL     1       6.400   6.021  18.105  0.00  0.00    +0.000 A 
ATOM      9  C   UNL     1       5.423   4.884  18.053  0.00  0.00    +0.000 C 
ATOM     10  N   UNL     1       4.260   5.487  17.432  0.00  0.00    +0.000 N 
ENDROOT
BRANCH   9  11
ATOM     11  N   UNL     1       5.899   3.838  17.178  0.00  0.00    +0.000 N 
ATOM     12  H   UNL     1       5.364   2.984  17.301  0.00  0.00    +0.000 HD
BRANCH  11  13
ATOM     13  C   UNL     1       6.206   4.117  15.845  0.00  0.00    +0.000 A 
ATOM     14  C   UNL     1       5.459   3.522  14.823  0.00  0.00    +0.000 A 
ATOM     15  C   UNL     1       5.792   3.726  13.481  0.00  0.00    +0.000 A 
ATOM     16  C   UNL     1       6.889   4.516  13.190  0.00  0.00    +0.000 A 
ATOM     17  N   UNL     1       7.655   5.097  14.134  0.00  0.00    +0.000 NA
ATOM     18  C   UNL     1       7.307   4.865  15.425  0.00  0.00    +0.000 A 
ENDBRANCH  11  13
ENDBRANCH   9  11
BRANCH  10  19
ATOM     19  C   UNL     1       2.949   4.863  17.508  0.00  0.00    +0.000 C 
BRANCH  19  20
ATOM     20  C   UNL     1       2.644   4.282  18.869  0.00  0.00    +0.000 A 
ATOM     21  C   UNL     1       2.671   2.882  19.035  0.00  0.00    +0.000 A 
ATOM     22  C   UNL     1       2.448   2.296  20.283  0.00  0.00    +0.000 A 
ATOM     23  C   UNL     1       2.196   3.097  21.391  0.00  0.00    +0.000 A 
ATOM     24  C   UNL     1       2.142   4.481  21.247  0.00  0.00    +0.000 A 
ATOM     25  C   UNL     1       2.358   5.071  19.993  0.00  0.00    +0.000 A 
ATOM     26 CL   UNL     1       2.210   6.789  19.902  0.00  0.00    +0.000 Cl
ENDBRANCH  19  20
ENDBRANCH  10  19
TORSDOF 4
ENDMDL
MODEL 3
REMARK VINA RESULT:      -7.4      3.280      5.320
REMARK  Name = 
REMARK  4 active torsions:
REMARK  status: ('A' for Active; 'I' for Inactive)
REMARK    1  A    between atoms: C_9  and  N_10
REMARK    2  A    between atoms: N_10  and  C_11
REMARK    3  A    between atoms: N_17  and  C_18
REMARK    4  A    between atoms: C_18  and  C_19
REMARK                            x       y       z     vdW  Elec       q    Type
REMARK                         _______ _______ _______ _____ _____    ______ ____
ROOT
ATOM      1  O   UNL     1       1.095   5.970  21.047  0.00  0.00    +0.000 OA
ATOM      2  C   UNL     1       1.853   5.626  20.161  0.00  0.00    +0.000 C 
ATOM      3  C   UNL     1       1.756   4.342  19.465  0.00  0.00    +0.000 A 
ATOM      4  C   UNL     1       0.950   3.257  19.752  0.00  0.00    +0.000 A 
ATOM      5  C   UNL     1       1.041   2.153  18.905  0.00  0.00    +0.000 A 
ATOM      6  C   UNL     1       1.913   2.168  17.802  0.00  0.00    +0.000 A 
ATOM      7  C   UNL     1       2.714   3.284  17.532  0.00  0.00    +0.000 A 
ATOM      8  C   UNL     1       2.633   4.372  18.386  0.00  0.00    +0.000 A 
ATOM      9  C   UNL     1       3.361   5.684  18.364  0.00  0.00    +0.000 C 
ATOM     10  N   UNL     1       2.884   6.338  19.566  0.00  0.00    +0.000 N 
ENDROOT
BRANCH   9  11
ATOM     11  N   UNL     1       4.785   5.483  18.506  0.00  0.00    +0.000 N 
ATOM     12  H   UNL     1       4.990   4.833  19.258  0.00  0.00    +0.000 HD
BRANCH  11  13
ATOM     13  C   UNL     1       5.590   5.306  17.380  0.00  0.00    +0.000 A 
ATOM     14  C   UNL     1       5.082   5.605  16.111  0.00  0.00    +0.000 A 
ATOM     15  C   UNL     1       5.841   5.368  14.962  0.00  0.00    +0.000 A 
ATOM     16  C   UNL     1       7.099   4.815  15.110  0.00  0.00    +0.000 A 
ATOM     17  N   UNL     1       7.631   4.489  16.304  0.00  0.00    +0.000 NA
ATOM     18  C   UNL     1       6.858   4.723  17.395  0.00  0.00    +0.000 A 
ENDBRANCH  11  13
ENDBRANCH   9  11
BRANCH  10  19
ATOM     19  C   UNL     1       3.039   7.769  19.764  0.00  0.00    +0.000 C 
BRANCH  19  20
ATOM     20  C   UNL     1       1.823   8.564  19.350  0.00  0.00    +0.000 A 
ATOM     21  C   UNL     1       1.515   8.677  17.978  0.00  0.00    +0.000 A 
ATOM     22  C   UNL     1       0.374   9.356  17.545  0.00  0.00    +0.000 A 
ATOM     23  C   UNL     1      -0.485   9.933  18.473  0.00  0.00    +0.000 A 
ATOM     24  C   UNL     1      -0.190   9.855  19.832  0.00  0.00    +0.000 A 
ATOM     25  C   UNL     1       0.960   9.180  20.269  0.00  0.00    +0.000 A 
ATOM     26 CL   UNL     1       1.272   9.189  21.967  0.00  0.00    +0.000 Cl
ENDBRANCH  19  20
ENDBRANCH  10  19
TORSDOF 4
ENDMDL
MODEL 4
REMARK VINA RESULT:      -7.3      2.318      4.746
REMARK  Name = 
REMARK  4 active torsions:
REMARK  status: ('A' for Active; 'I' for Inactive)
REMARK    1  A    between atoms: C_9  and  N_10
REMARK    2  A    between atoms: N_10  and  C_11
REMARK    3  A    between atoms: N_17  and  C_18
REMARK    4  A    between atoms: C_18  and  C_19
REMARK                            x       y       z     vdW  Elec       q    Type
REMARK                         _______ _______ _______ _____ _____    ______ ____
ROOT
ATOM      1  O   UNL     1       7.599   6.570  16.722  0.00  0.00    +0.000 OA
ATOM      2  C   UNL     1       6.798   5.723  16.377  0.00  0.00    +0.000 C 
ATOM      3  C   UNL     1       6.776   5.123  15.043  0.00  0.00    +0.000 A 
ATOM      4  C   UNL     1       7.497   5.479  13.919  0.00  0.00    +0.000 A 
ATOM      5  C   UNL     1       7.300   4.718  12.767  0.00  0.00    +0.000 A 
ATOM      6  C   UNL     1       6.409   3.629  12.773  0.00  0.00    +0.000 A 
ATOM      7  C   UNL     1       5.696   3.289  13.928  0.00  0.00    +0.000 A 
ATOM      8  C   UNL     1       5.883   4.057  15.066  0.00  0.00    +0.000 A 
ATOM      9  C   UNL     1       5.263   3.948  16.428  0.00  0.00    +0.000 C 
ATOM     10  N   UNL     1       5.817   5.091  17.127  0.00  0.00    +0.000 N 
ENDROOT
BRANCH   9  11
ATOM     11  N   UNL     1       3.831   4.125  16.356  0.00  0.00    +0.000 N 
ATOM     12  H   UNL     1       3.509   4.129  15.394  0.00  0.00    +0.000 HD
BRANCH  11  13
ATOM     13  C   UNL     1       2.988   3.429  17.224  0.00  0.00    +0.000 A 
ATOM     14  C   UNL     1       3.436   2.250  17.828  0.00  0.00    +0.000 A 
ATOM     15  C   UNL     1       2.588   1.496  18.642  0.00  0.00    +0.000 A 
ATOM     16  C   UNL     1       1.289   1.935  18.823  0.00  0.00    +0.000 A 
ATOM     17  N   UNL     1       0.799   3.053  18.251  0.00  0.00    +0.000 NA
ATOM     18  C   UNL     1       1.650   3.751  17.457  0.00  0.00    +0.000 A 
ENDBRANCH  11  13
ENDBRANCH   9  11
BRANCH  10  19
ATOM     19  C   UNL     1       5.782   5.184  18.577  0.00  0.00    +0.000 C 
BRANCH  19  20
ATOM     20  C   UNL     1       4.414   5.528  19.119  0.00  0.00    +0.000 A 
ATOM     21  C   UNL     1       3.878   4.749  20.165  0.00  0.00    +0.000 A 
ATOM     22  C   UNL     1       2.641   5.056  20.738  0.00  0.00    +0.000 A 
ATOM     23  C   UNL     1       1.916   6.149  20.278  0.00  0.00    +0.000 A 
ATOM     24  C   UNL     1       2.414   6.919  19.230  0.00  0.00    +0.000 A 
ATOM     25  C   UNL     1       3.652   6.608  18.649  0.00  0.00    +0.000 A 
ATOM     26 CL   UNL     1       4.156   7.584  17.316  0.00  0.00    +0.000 Cl
ENDBRANCH  19  20
ENDBRANCH  10  19
TORSDOF 4
ENDMDL
MODEL 5
REMARK VINA RESULT:      -7.2      3.532      5.558
REMARK  Name = 
REMARK  4 active torsions:
REMARK  status: ('A' for Active; 'I' for Inactive)
REMARK    1  A    between atoms: C_9  and  N_10
REMARK    2  A    between atoms: N_10  and  C_11
REMARK    3  A    between atoms: N_17  and  C_18
REMARK    4  A    between atoms: C_18  and  C_19
REMARK                            x       y       z     vdW  Elec       q    Type
REMARK                         _______ _______ _______ _____ _____    ______ ____
ROOT
ATOM      1  O   UNL     1       1.022   6.510  21.280  0.00  0.00    +0.000 OA
ATOM      2  C   UNL     1       1.653   6.105  20.323  0.00  0.00    +0.000 C 
ATOM      3  C   UNL     1       1.499   4.764  19.759  0.00  0.00    +0.000 A 
ATOM      4  C   UNL     1       0.783   3.690  20.254  0.00  0.00    +0.000 A 
ATOM      5  C   UNL     1       0.786   2.518  19.500  0.00  0.00    +0.000 A 
ATOM      6  C   UNL     1       1.484   2.455  18.280  0.00  0.00    +0.000 A 
ATOM      7  C   UNL     1       2.197   3.560  17.800  0.00  0.00    +0.000 A 
ATOM      8  C   UNL     1       2.204   4.718  18.562  0.00  0.00    +0.000 A 
ATOM      9  C   UNL     1       2.875   6.038  18.320  0.00  0.00    +0.000 C 
ATOM     10  N   UNL     1       2.558   6.785  19.521  0.00  0.00    +0.000 N 
ENDROOT
BRANCH   9  11
ATOM     11  N   UNL     1       4.310   5.882  18.262  0.00  0.00    +0.000 N 
ATOM     12  H   UNL     1       4.653   5.349  19.054  0.00  0.00    +0.000 HD
BRANCH  11  13
ATOM     13  C   UNL     1       4.938   5.561  17.058  0.00  0.00    +0.000 A 
ATOM     14  C   UNL     1       5.578   4.325  16.918  0.00  0.00    +0.000 A 
ATOM     15  C   UNL     1       6.277   4.009  15.750  0.00  0.00    +0.000 A 
ATOM     16  C   UNL     1       6.336   4.955  14.744  0.00  0.00    +0.000 A 
ATOM     17  N   UNL     1       5.756   6.168  14.832  0.00  0.00    +0.000 NA
ATOM     18  C   UNL     1       5.097   6.442  15.987  0.00  0.00    +0.000 A 
ENDBRANCH  11  13
ENDBRANCH   9  11
BRANCH  10  19
ATOM     19  C   UNL     1       2.690   8.231  19.573  0.00  0.00    +0.000 C 
BRANCH  19  20
ATOM     20  C   UNL     1       1.405   8.959  19.254  0.00  0.00    +0.000 A 
ATOM     21  C   UNL     1       0.958   9.004  17.917  0.00  0.00    +0.000 A 
ATOM     22  C   UNL     1      -0.249   9.618  17.576  0.00  0.00    +0.000 A 
ATOM     23  C   UNL     1      -1.036  10.198  18.565  0.00  0.00    +0.000 A 
ATOM     24  C   UNL     1      -0.604  10.188  19.889  0.00  0.00    +0.000 A 
ATOM     25  C   UNL     1       0.612   9.578  20.232  0.00  0.00    +0.000 A 
ATOM     26 CL   UNL     1       1.090   9.669  21.888  0.00  0.00    +0.000 Cl
ENDBRANCH  19  20
ENDBRANCH  10  19
TORSDOF 4
ENDMDL
MODEL 6
REMARK VINA RESULT:      -7.2      2.902      6.942
REMARK  Name = 
REMARK  4 active torsions:
REMARK  status: ('A' for Active; 'I' for Inactive)
REMARK    1  A    between atoms: C_9  and  N_10
REMARK    2  A    between atoms: N_10  and  C_11
REMARK    3  A    between atoms: N_17  and  C_18
REMARK    4  A    between atoms: C_18  and  C_19
REMARK                            x       y       z     vdW  Elec       q    Type
REMARK                         _______ _______ _______ _____ _____    ______ ____
ROOT
ATOM      1  O   UNL     1       3.705   3.693  16.590  0.00  0.00    +0.000 OA
ATOM      2  C   UNL     1       3.149   4.384  17.422  0.00  0.00    +0.000 C 
ATOM      3  C   UNL     1       2.207   3.860  18.412  0.00  0.00    +0.000 A 
ATOM      4  C   UNL     1       1.659   2.595  18.505  0.00  0.00    +0.000 A 
ATOM      5  C   UNL     1       0.794   2.351  19.571  0.00  0.00    +0.000 A 
ATOM      6  C   UNL     1       0.515   3.359  20.511  0.00  0.00    +0.000 A 
ATOM      7  C   UNL     1       1.090   4.630  20.395  0.00  0.00    +0.000 A 
ATOM      8  C   UNL     1       1.935   4.873  19.324  0.00  0.00    +0.000 A 
ATOM      9  C   UNL     1       2.678   6.117  18.934  0.00  0.00    +0.000 C 
ATOM     10  N   UNL     1       3.310   5.736  17.685  0.00  0.00    +0.000 N 
ENDROOT
BRANCH   9  11
ATOM     11  N   UNL     1       1.761   7.197  18.653  0.00  0.00    +0.000 N 
ATOM     12  H   UNL     1       0.909   6.852  18.223  0.00  0.00    +0.000 HD
BRANCH  11  13
ATOM     13  C   UNL     1       1.543   8.203  19.596  0.00  0.00    +0.000 A 
ATOM     14  C   UNL     1       1.568   7.892  20.960  0.00  0.00    +0.000 A 
ATOM     15  C   UNL     1       1.282   8.864  21.921  0.00  0.00    +0.000 A 
ATOM     16  C   UNL     1       0.955  10.137  21.490  0.00  0.00    +0.000 A 
ATOM     17  N   UNL     1       0.897  10.487  20.190  0.00  0.00    +0.000 NA
ATOM     18  C   UNL     1       1.170   9.512  19.287  0.00  0.00    +0.000 A 
ENDBRANCH  11  13
ENDBRANCH   9  11
BRANCH  10  19
ATOM     19  C   UNL     1       4.416   6.497  17.131  0.00  0.00    +0.000 C 
BRANCH  19  20
ATOM     20  C   UNL     1       5.767   5.889  17.429  0.00  0.00    +0.000 A 
ATOM     21  C   UNL     1       6.278   5.970  18.740  0.00  0.00    +0.000 A 
ATOM     22  C   UNL     1       7.497   5.379  19.081  0.00  0.00    +0.000 A 
ATOM     23  C   UNL     1       8.229   4.692  18.119  0.00  0.00    +0.000 A 
ATOM     24  C   UNL     1       7.755   4.618  16.811  0.00  0.00    +0.000 A 
ATOM     25  C   UNL     1       6.535   5.218  16.465  0.00  0.00    +0.000 A 
ATOM     26 CL   UNL     1       6.061   5.124  14.808  0.00  0.00    +0.000 Cl
ENDBRANCH  19  20
ENDBRANCH  10  19
TORSDOF 4
ENDMDL
MODEL 7
REMARK VINA RESULT:      -7.2      2.662      6.477
REMARK  Name = 
REMARK  4 active torsions:
REMARK  status: ('A' for Active; 'I' for Inactive)
REMARK    1  A    between atoms: C_9  and  N_10
REMARK    2  A    between atoms: N_10  and  C_11
REMARK    3  A    between atoms: N_17  and  C_18
REMARK    4  A    between atoms: C_18  and  C_19
REMARK                            x       y       z     vdW  Elec       q    Type
REMARK                         _______ _______ _______ _____ _____    ______ ____
ROOT
ATOM      1  O   UNL     1       4.180   1.581  17.978  0.00  0.00    +0.000 OA
ATOM      2  C   UNL     1       3.727   2.650  18.337  0.00  0.00    +0.000 C 
ATOM      3  C   UNL     1       2.863   2.813  19.507  0.00  0.00    +0.000 A 
ATOM      4  C   UNL     1       2.281   1.841  20.299  0.00  0.00    +0.000 A 
ATOM      5  C   UNL     1       1.511   2.273  21.377  0.00  0.00    +0.000 A 
ATOM      6  C   UNL     1       1.355   3.646  21.640  0.00  0.00    +0.000 A 
ATOM      7  C   UNL     1       1.960   4.609  20.824  0.00  0.00    +0.000 A 
ATOM      8  C   UNL     1       2.711   4.175  19.743  0.00  0.00    +0.000 A 
ATOM      9  C   UNL     1       3.458   4.954  18.701  0.00  0.00    +0.000 C 
ATOM     10  N   UNL     1       3.958   3.916  17.820  0.00  0.00    +0.000 N 
ENDROOT
BRANCH   9  11
ATOM     11  N   UNL     1       2.556   5.785  17.937  0.00  0.00    +0.000 N 
ATOM     12  H   UNL     1       1.765   5.250  17.595  0.00  0.00    +0.000 HD
BRANCH  11  13
ATOM     13  C   UNL     1       2.214   7.060  18.391  0.00  0.00    +0.000 A 
ATOM     14  C   UNL     1       2.239   8.141  17.503  0.00  0.00    +0.000 A 
ATOM     15  C   UNL     1       1.972   9.438  17.948  0.00  0.00    +0.000 A 
ATOM     16  C   UNL     1       1.702   9.629  19.290  0.00  0.00    +0.000 A 
ATOM     17  N   UNL     1       1.684   8.629  20.193  0.00  0.00    +0.000 NA
ATOM     18  C   UNL     1       1.960   7.385  19.724  0.00  0.00    +0.000 A 
ENDBRANCH  11  13
ENDBRANCH   9  11
BRANCH  10  19
ATOM     19  C   UNL     1       5.035   4.174  16.878  0.00  0.00    +0.000 C 
BRANCH  19  20
ATOM     20  C   UNL     1       5.999   5.236  17.352  0.00  0.00    +0.000 A 
ATOM     21  C   UNL     1       6.881   4.934  18.410  0.00  0.00    +0.000 A 
ATOM     22  C   UNL     1       7.829   5.862  18.851  0.00  0.00    +0.000 A 
ATOM     23  C   UNL     1       7.915   7.109  18.242  0.00  0.00    +0.000 A 
ATOM     24  C   UNL     1       7.038   7.438  17.211  0.00  0.00    +0.000 A 
ATOM     25  C   UNL     1       6.082   6.511  16.772  0.00  0.00    +0.000 A 
ATOM     26 CL   UNL     1       5.001   7.032  15.530  0.00  0.00    +0.000 Cl
ENDBRANCH  19  20
ENDBRANCH  10  19
TORSDOF 4
ENDMDL
MODEL 8
REMARK VINA RESULT:      -7.1      2.153      4.561
REMARK  Name = 
REMARK  4 active torsions:
REMARK  status: ('A' for Active; 'I' for Inactive)
REMARK    1  A    between atoms: C_9  and  N_10
REMARK    2  A    between atoms: N_10  and  C_11
REMARK    3  A    between atoms: N_17  and  C_18
REMARK    4  A    between atoms: C_18  and  C_19
REMARK                            x       y       z     vdW  Elec       q    Type
REMARK                         _______ _______ _______ _____ _____    ______ ____
ROOT
ATOM      1  O   UNL     1       7.536   5.896  17.614  0.00  0.00    +0.000 OA
ATOM      2  C   UNL     1       6.686   5.231  17.052  0.00  0.00    +0.000 C 
ATOM      3  C   UNL     1       6.721   4.911  15.625  0.00  0.00    +0.000 A 
ATOM      4  C   UNL     1       7.569   5.393  14.646  0.00  0.00    +0.000 A 
ATOM      5  C   UNL     1       7.397   4.901  13.354  0.00  0.00    +0.000 A 
ATOM      6  C   UNL     1       6.405   3.942  13.079  0.00  0.00    +0.000 A 
ATOM      7  C   UNL     1       5.563   3.467  14.092  0.00  0.00    +0.000 A 
ATOM      8  C   UNL     1       5.727   3.972  15.372  0.00  0.00    +0.000 A 
ATOM      9  C   UNL     1       4.983   3.670  16.640  0.00  0.00    +0.000 C 
ATOM     10  N   UNL     1       5.585   4.583  17.592  0.00  0.00    +0.000 N 
ENDROOT
BRANCH   9  11
ATOM     11  N   UNL     1       3.588   4.023  16.513  0.00  0.00    +0.000 N 
ATOM     12  H   UNL     1       3.334   4.173  15.542  0.00  0.00    +0.000 HD
BRANCH  11  13
ATOM     13  C   UNL     1       2.616   3.339  17.245  0.00  0.00    +0.000 A 
ATOM     14  C   UNL     1       1.406   3.971  17.552  0.00  0.00    +0.000 A 
ATOM     15  C   UNL     1       0.448   3.336  18.345  0.00  0.00    +0.000 A 
ATOM     16  C   UNL     1       0.732   2.074  18.834  0.00  0.00    +0.000 A 
ATOM     17  N   UNL     1       1.887   1.426  18.587  0.00  0.00    +0.000 NA
ATOM     18  C   UNL     1       2.798   2.081  17.823  0.00  0.00    +0.000 A 
ENDBRANCH  11  13
ENDBRANCH   9  11
BRANCH  10  19
ATOM     19  C   UNL     1       5.434   4.394  19.025  0.00  0.00    +0.000 C 
BRANCH  19  20
ATOM     20  C   UNL     1       4.171   5.012  19.577  0.00  0.00    +0.000 A 
ATOM     21  C   UNL     1       3.806   6.309  19.160  0.00  0.00    +0.000 A 
ATOM     22  C   UNL     1       2.622   6.905  19.599  0.00  0.00    +0.000 A 
ATOM     23  C   UNL     1       1.777   6.217  20.463  0.00  0.00    +0.000 A 
ATOM     24  C   UNL     1       2.128   4.945  20.907  0.00  0.00    +0.000 A 
ATOM     25  C   UNL     1       3.320   4.347  20.473  0.00  0.00    +0.000 A 
ATOM     26 CL   UNL     1       3.698   2.794  21.125  0.00  0.00    +0.000 Cl
ENDBRANCH  19  20
ENDBRANCH  10  19
TORSDOF 4
ENDMDL
MODEL 9
REMARK VINA RESULT:      -7.0      2.889      6.818
REMARK  Name = 
REMARK  4 active torsions:
REMARK  status: ('A' for Active; 'I' for Inactive)
REMARK    1  A    between atoms: C_9  and  N_10
REMARK    2  A    between atoms: N_10  and  C_11
REMARK    3  A    between atoms: N_17  and  C_18
REMARK    4  A    between atoms: C_18  and  C_19
REMARK                            x       y       z     vdW  Elec       q    Type
REMARK                         _______ _______ _______ _____ _____    ______ ____
ROOT
ATOM      1  O   UNL     1       5.151   3.156  18.474  0.00  0.00    +0.000 OA
ATOM      2  C   UNL     1       4.307   3.970  18.797  0.00  0.00    +0.000 C 
ATOM      3  C   UNL     1       3.130   3.640  19.600  0.00  0.00    +0.000 A 
ATOM      4  C   UNL     1       2.667   2.399  19.995  0.00  0.00    +0.000 A 
ATOM      5  C   UNL     1       1.518   2.368  20.784  0.00  0.00    +0.000 A 
ATOM      6  C   UNL     1       0.878   3.562  21.163  0.00  0.00    +0.000 A 
ATOM      7  C   UNL     1       1.373   4.806  20.753  0.00  0.00    +0.000 A 
ATOM      8  C   UNL     1       2.505   4.831  19.955  0.00  0.00    +0.000 A 
ATOM      9  C   UNL     1       3.251   5.989  19.359  0.00  0.00    +0.000 C 
ATOM     10  N   UNL     1       4.282   5.339  18.574  0.00  0.00    +0.000 N 
ENDROOT
BRANCH   9  11
ATOM     11  N   UNL     1       2.407   6.731  18.451  0.00  0.00    +0.000 N 
ATOM     12  H   UNL     1       1.735   6.123  17.995  0.00  0.00    +0.000 HD
BRANCH  11  13
ATOM     13  C   UNL     1       1.876   7.966  18.829  0.00  0.00    +0.000 A 
ATOM     14  C   UNL     1       1.757   8.987  17.881  0.00  0.00    +0.000 A 
ATOM     15  C   UNL     1       1.298  10.254  18.249  0.00  0.00    +0.000 A 
ATOM     16  C   UNL     1       0.982  10.478  19.576  0.00  0.00    +0.000 A 
ATOM     17  N   UNL     1       1.095   9.538  20.534  0.00  0.00    +0.000 NA
ATOM     18  C   UNL     1       1.556   8.324  20.140  0.00  0.00    +0.000 A 
ENDBRANCH  11  13
ENDBRANCH   9  11
BRANCH  10  19
ATOM     19  C   UNL     1       5.456   6.061  18.115  0.00  0.00    +0.000 C 
BRANCH  19  20
ATOM     20  C   UNL     1       5.932   5.620  16.751  0.00  0.00    +0.000 A 
ATOM     21  C   UNL     1       5.141   5.919  15.622  0.00  0.00    +0.000 A 
ATOM     22  C   UNL     1       5.561   5.580  14.333  0.00  0.00    +0.000 A 
ATOM     23  C   UNL     1       6.779   4.936  14.146  0.00  0.00    +0.000 A 
ATOM     24  C   UNL     1       7.566   4.609  15.248  0.00  0.00    +0.000 A 
ATOM     25  C   UNL     1       7.143   4.942  16.543  0.00  0.00    +0.000 A 
ATOM     26 CL   UNL     1       8.157   4.442  17.848  0.00  0.00    +0.000 Cl
ENDBRANCH  19  20
ENDBRANCH  10  19
TORSDOF 4
ENDMDL
