MODEL 1
REMARK VINA RESULT:      -8.5      0.000      0.000
REMARK  Name = 
REMARK  7 active torsions:
REMARK  status: ('A' for Active; 'I' for Inactive)
REMARK    1  A    between atoms: C_1  and  C_2
REMARK    2  A    between atoms: N_4  and  C_5
REMARK    3  A    between atoms: C_11  and  C_12
REMARK    4  A    between atoms: C_13  and  C_14
REMARK    5  A    between atoms: C_14  and  C_15
REMARK    6  A    between atoms: N_17  and  C_18
REMARK    7  A    between atoms: C_18  and  C_19
REMARK                            x       y       z     vdW  Elec       q    Type
REMARK                         _______ _______ _______ _____ _____    ______ ____
ROOT
ATOM      1  C   UNL     1       7.691   6.266  17.794  0.00  0.00    +0.000 C 
ENDROOT
BRANCH   1   8
ATOM      2  C   UNL     1       7.089   4.805  14.909  0.00  0.00    +0.000 C 
ATOM      3  C   UNL     1       6.296   4.747  16.166  0.00  0.00    +0.000 A 
ATOM      4  N   UNL     1       5.234   3.940  16.238  0.00  0.00    +0.000 NA
ATOM      5  N   UNL     1       4.682   4.172  17.453  0.00  0.00    +0.000 N 
ATOM      6  C   UNL     1       5.492   5.001  18.219  0.00  0.00    +0.000 A 
ATOM      7  C   UNL     1       5.335   5.253  19.678  0.00  0.00    +0.000 C 
ATOM      8  C   UNL     1       6.528   5.421  17.395  0.00  0.00    +0.000 A 
BRANCH   5   9
ATOM      9  C   UNL     1       3.449   3.557  17.802  0.00  0.00    +0.000 A 
ATOM     10  C   UNL     1       3.429   2.208  18.181  0.00  0.00    +0.000 A 
ATOM     11  C   UNL     1       2.234   1.624  18.607  0.00  0.00    +0.000 A 
ATOM     12  C   UNL     1       1.053   2.370  18.617  0.00  0.00    +0.000 A 
ATOM     13  C   UNL     1       1.060   3.693  18.183  0.00  0.00    +0.000 A 
ATOM     14  C   UNL     1       2.253   4.283  17.771  0.00  0.00    +0.000 A 
ENDBRANCH   5   9
ENDBRANCH   1   8
BRANCH   1  15
ATOM     15  C   UNL     1       7.521   7.755  17.574  0.00  0.00    +0.000 C 
ATOM     16  O   UNL     1       6.693   8.188  16.775  0.00  0.00    +0.000 OA
ATOM     17  N   UNL     1       8.419   8.572  18.232  0.00  0.00    +0.000 N 
ATOM     18  H   UNL     1       8.840   8.218  19.084  0.00  0.00    +0.000 HD
BRANCH  17  19
ATOM     19  C   UNL     1       8.313  10.009  18.081  0.00  0.00    +0.000 C 
BRANCH  19  20
ATOM     20  C   UNL     1       9.511  10.757  18.596  0.00  0.00    +0.000 A 
ATOM     21  C   UNL     1      10.539  11.149  17.720  0.00  0.00    +0.000 A 
ATOM     22  C   UNL     1      11.621  11.911  18.177  0.00  0.00    +0.000 A 
ATOM     23  C   UNL     1      11.692  12.287  19.518  0.00  0.00    +0.000 A 
ATOM     24  C   UNL     1      10.683  11.894  20.390  0.00  0.00    +0.000 A 
ATOM     25  F   UNL     1      10.754  12.258  21.679  0.00  0.00    +0.000 F 
ATOM     26  C   UNL     1       9.605  11.138  19.937  0.00  0.00    +0.000 A 
ATOM     27  F   UNL     1       8.639  10.778  20.797  0.00  0.00    +0.000 F 
ENDBRANCH  19  20
ENDBRANCH  17  19
ENDBRANCH   1  15
TORSDOF 5
ENDMDL
MODEL 2
REMARK VINA RESULT:      -8.3      1.870      2.184
REMARK  Name = 
REMARK  7 active torsions:
REMARK  status: ('A' for Active; 'I' for Inactive)
REMARK    1  A    between atoms: C_1  and  C_2
REMARK    2  A    between atoms: N_4  and  C_5
REMARK    3  A    between atoms: C_11  and  C_12
REMARK    4  A    between atoms: C_13  and  C_14
REMARK    5  A    between atoms: C_14  and  C_15
REMARK    6  A    between atoms: N_17  and  C_18
REMARK    7  A    between atoms: C_18  and  C_19
REMARK                            x       y       z     vdW  Elec       q    Type
REMARK                         _______ _______ _______ _____ _____    ______ ____
ROOT
ATOM      1  C   UNL     1       6.600   7.366  17.001  0.00  0.00    +0.000 C 
ENDROOT
BRANCH   1   8
ATOM      2  C   UNL     1       7.744   4.328  17.529  0.00  0.00    +0.000 C 
ATOM      3  C   UNL     1       6.383   4.868  17.787  0.00  0.00    +0.000 A 
ATOM      4  N   UNL     1       5.476   4.103  18.400  0.00  0.00    +0.000 NA
ATOM      5  N   UNL     1       4.333   4.829  18.410  0.00  0.00    +0.000 N 
ATOM      6  C   UNL     1       4.561   6.124  17.957  0.00  0.00    +0.000 A 
ATOM      7  C   UNL     1       3.607   7.261  18.077  0.00  0.00    +0.000 C 
ATOM      8  C   UNL     1       5.875   6.165  17.509  0.00  0.00    +0.000 A 
BRANCH   5   9
ATOM      9  C   UNL     1       3.126   4.249  18.886  0.00  0.00    +0.000 A 
ATOM     10  C   UNL     1       2.744   4.438  20.221  0.00  0.00    +0.000 A 
ATOM     11  C   UNL     1       1.518   3.941  20.668  0.00  0.00    +0.000 A 
ATOM     12  C   UNL     1       0.691   3.224  19.801  0.00  0.00    +0.000 A 
ATOM     13  C   UNL     1       1.097   2.984  18.490  0.00  0.00    +0.000 A 
ATOM     14  C   UNL     1       2.313   3.490  18.035  0.00  0.00    +0.000 A 
ENDBRANCH   5   9
ENDBRANCH   1   8
BRANCH   1  15
ATOM     15  C   UNL     1       7.707   7.886  17.896  0.00  0.00    +0.000 C 
ATOM     16  O   UNL     1       8.261   7.151  18.711  0.00  0.00    +0.000 OA
ATOM     17  N   UNL     1       7.965   9.240  17.817  0.00  0.00    +0.000 N 
ATOM     18  H   UNL     1       7.732   9.713  16.950  0.00  0.00    +0.000 HD
BRANCH  17  19
ATOM     19  C   UNL     1       9.017   9.810  18.633  0.00  0.00    +0.000 C 
BRANCH  19  20
ATOM     20  C   UNL     1       9.285  11.261  18.340  0.00  0.00    +0.000 A 
ATOM     21  C   UNL     1       8.300  12.061  17.733  0.00  0.00    +0.000 A 
ATOM     22  C   UNL     1       8.514  13.429  17.526  0.00  0.00    +0.000 A 
ATOM     23  C   UNL     1       9.717  14.014  17.919  0.00  0.00    +0.000 A 
ATOM     24  C   UNL     1      10.697  13.226  18.511  0.00  0.00    +0.000 A 
ATOM     25  F   UNL     1      11.853  13.792  18.888  0.00  0.00    +0.000 F 
ATOM     26  C   UNL     1      10.486  11.865  18.720  0.00  0.00    +0.000 A 
ATOM     27  F   UNL     1      11.445  11.127  19.301  0.00  0.00    +0.000 F 
ENDBRANCH  19  20
ENDBRANCH  17  19
ENDBRANCH   1  15
TORSDOF 5
ENDMDL
MODEL 3
REMARK VINA RESULT:      -8.2      1.812      2.469
REMARK  Name = 
REMARK  7 active torsions:
REMARK  status: ('A' for Active; 'I' for Inactive)
REMARK    1  A    between atoms: C_1  and  C_2
REMARK    2  A    between atoms: N_4  and  C_5
REMARK    3  A    between atoms: C_11  and  C_12
REMARK    4  A    between atoms: C_13  and  C_14
REMARK    5  A    between atoms: C_14  and  C_15
REMARK    6  A    between atoms: N_17  and  C_18
REMARK    7  A    between atoms: C_18  and  C_19
REMARK                            x       y       z     vdW  Elec       q    Type
REMARK                         _______ _______ _______ _____ _____    ______ ____
ROOT
ATOM      1  C   UNL     1       8.066   7.546  17.316  0.00  0.00    +0.000 C 
ENDROOT
BRANCH   1   8
ATOM      2  C   UNL     1       8.300   5.642  19.989  0.00  0.00    +0.000 C 
ATOM      3  C   UNL     1       7.186   5.737  19.008  0.00  0.00    +0.000 A 
ATOM      4  N   UNL     1       6.057   5.058  19.225  0.00  0.00    +0.000 NA
ATOM      5  N   UNL     1       5.286   5.274  18.133  0.00  0.00    +0.000 N 
ATOM      6  C   UNL     1       5.856   6.230  17.301  0.00  0.00    +0.000 A 
ATOM      7  C   UNL     1       5.172   6.901  16.161  0.00  0.00    +0.000 C 
ATOM      8  C   UNL     1       7.109   6.520  17.825  0.00  0.00    +0.000 A 
BRANCH   5   9
ATOM      9  C   UNL     1       4.051   4.585  17.988  0.00  0.00    +0.000 A 
ATOM     10  C   UNL     1       4.049   3.231  17.629  0.00  0.00    +0.000 A 
ATOM     11  C   UNL     1       2.841   2.531  17.570  0.00  0.00    +0.000 A 
ATOM     12  C   UNL     1       1.636   3.186  17.828  0.00  0.00    +0.000 A 
ATOM     13  C   UNL     1       1.632   4.547  18.126  0.00  0.00    +0.000 A 
ATOM     14  C   UNL     1       2.835   5.246  18.200  0.00  0.00    +0.000 A 
ENDBRANCH   5   9
ENDBRANCH   1   8
BRANCH   1  15
ATOM     15  C   UNL     1       7.951   8.917  17.951  0.00  0.00    +0.000 C 
ATOM     16  O   UNL     1       7.094   9.717  17.581  0.00  0.00    +0.000 OA
ATOM     17  N   UNL     1       8.925   9.242  18.874  0.00  0.00    +0.000 N 
ATOM     18  H   UNL     1       9.382   8.480  19.362  0.00  0.00    +0.000 HD
BRANCH  17  19
ATOM     19  C   UNL     1       8.876  10.531  19.533  0.00  0.00    +0.000 C 
BRANCH  19  20
ATOM     20  C   UNL     1      10.019  11.437  19.167  0.00  0.00    +0.000 A 
ATOM     21  C   UNL     1      11.198  11.444  19.934  0.00  0.00    +0.000 A 
ATOM     22  C   UNL     1      12.294  12.229  19.557  0.00  0.00    +0.000 A 
ATOM     23  C   UNL     1      12.225  13.020  18.410  0.00  0.00    +0.000 A 
ATOM     24  C   UNL     1      11.058  13.023  17.655  0.00  0.00    +0.000 A 
ATOM     25  F   UNL     1      10.995  13.785  16.553  0.00  0.00    +0.000 F 
ATOM     26  C   UNL     1       9.967  12.242  18.026  0.00  0.00    +0.000 A 
ATOM     27  F   UNL     1       8.854  12.257  17.275  0.00  0.00    +0.000 F 
ENDBRANCH  19  20
ENDBRANCH  17  19
ENDBRANCH   1  15
TORSDOF 5
ENDMDL
MODEL 4
REMARK VINA RESULT:      -8.0      1.249      1.468
REMARK  Name = 
REMARK  7 active torsions:
REMARK  status: ('A' for Active; 'I' for Inactive)
REMARK    1  A    between atoms: C_1  and  C_2
REMARK    2  A    between atoms: N_4  and  C_5
REMARK    3  A    between atoms: C_11  and  C_12
REMARK    4  A    between atoms: C_13  and  C_14
REMARK    5  A    between atoms: C_14  and  C_15
REMARK    6  A    between atoms: N_17  and  C_18
REMARK    7  A    between atoms: C_18  and  C_19
REMARK                            x       y       z     vdW  Elec       q    Type
REMARK                         _______ _______ _______ _____ _____    ______ ____
ROOT
ATOM      1  C   UNL     1       7.654   6.377  17.662  0.00  0.00    +0.000 C 
ENDROOT
BRANCH   1   8
ATOM      2  C   UNL     1       7.162   4.683  14.886  0.00  0.00    +0.000 C 
ATOM      3  C   UNL     1       6.346   4.691  16.129  0.00  0.00    +0.000 A 
ATOM      4  N   UNL     1       5.310   3.855  16.243  0.00  0.00    +0.000 NA
ATOM      5  N   UNL     1       4.724   4.159  17.426  0.00  0.00    +0.000 N 
ATOM      6  C   UNL     1       5.491   5.072  18.142  0.00  0.00    +0.000 A 
ATOM      7  C   UNL     1       5.294   5.428  19.575  0.00  0.00    +0.000 C 
ATOM      8  C   UNL     1       6.529   5.464  17.307  0.00  0.00    +0.000 A 
BRANCH   5   9
ATOM      9  C   UNL     1       3.506   3.529  17.799  0.00  0.00    +0.000 A 
ATOM     10  C   UNL     1       3.522   2.206  18.259  0.00  0.00    +0.000 A 
ATOM     11  C   UNL     1       2.339   1.613  18.707  0.00  0.00    +0.000 A 
ATOM     12  C   UNL     1       1.136   2.321  18.658  0.00  0.00    +0.000 A 
ATOM     13  C   UNL     1       1.110   3.616  18.144  0.00  0.00    +0.000 A 
ATOM     14  C   UNL     1       2.290   4.216  17.711  0.00  0.00    +0.000 A 
ENDBRANCH   5   9
ENDBRANCH   1   8
BRANCH   1  15
ATOM     15  C   UNL     1       7.404   7.850  17.408  0.00  0.00    +0.000 C 
ATOM     16  O   UNL     1       6.496   8.220  16.666  0.00  0.00    +0.000 OA
ATOM     17  N   UNL     1       8.317   8.725  17.962  0.00  0.00    +0.000 N 
ATOM     18  H   UNL     1       8.820   8.418  18.787  0.00  0.00    +0.000 HD
BRANCH  17  19
ATOM     19  C   UNL     1       8.139  10.150  17.773  0.00  0.00    +0.000 C 
BRANCH  19  20
ATOM     20  C   UNL     1       9.069  10.987  18.606  0.00  0.00    +0.000 A 
ATOM     21  C   UNL     1       9.525  10.523  19.853  0.00  0.00    +0.000 A 
ATOM     22  C   UNL     1      10.449  11.263  20.600  0.00  0.00    +0.000 A 
ATOM     23  C   UNL     1      10.928  12.478  20.112  0.00  0.00    +0.000 A 
ATOM     24  C   UNL     1      10.473  12.946  18.884  0.00  0.00    +0.000 A 
ATOM     25  F   UNL     1      10.936  14.115  18.417  0.00  0.00    +0.000 F 
ATOM     26  C   UNL     1       9.555  12.211  18.138  0.00  0.00    +0.000 A 
ATOM     27  F   UNL     1       9.138  12.680  16.951  0.00  0.00    +0.000 F 
ENDBRANCH  19  20
ENDBRANCH  17  19
ENDBRANCH   1  15
TORSDOF 5
ENDMDL
MODEL 5
REMARK VINA RESULT:      -8.0      1.703      1.943
REMARK  Name = 
REMARK  7 active torsions:
REMARK  status: ('A' for Active; 'I' for Inactive)
REMARK    1  A    between atoms: C_1  and  C_2
REMARK    2  A    between atoms: N_4  and  C_5
REMARK    3  A    between atoms: C_11  and  C_12
REMARK    4  A    between atoms: C_13  and  C_14
REMARK    5  A    between atoms: C_14  and  C_15
REMARK    6  A    between atoms: N_17  and  C_18
REMARK    7  A    between atoms: C_18  and  C_19
REMARK                            x       y       z     vdW  Elec       q    Type
REMARK                         _______ _______ _______ _____ _____    ______ ____
ROOT
ATOM      1  C   UNL     1       6.565   7.425  16.988  0.00  0.00    +0.000 C 
ENDROOT
BRANCH   1   8
ATOM      2  C   UNL     1       7.642   4.343  17.386  0.00  0.00    +0.000 C 
ATOM      3  C   UNL     1       6.299   4.905  17.684  0.00  0.00    +0.000 A 
ATOM      4  N   UNL     1       5.382   4.140  18.282  0.00  0.00    +0.000 NA
ATOM      5  N   UNL     1       4.257   4.892  18.335  0.00  0.00    +0.000 N 
ATOM      6  C   UNL     1       4.509   6.197  17.927  0.00  0.00    +0.000 A 
ATOM      7  C   UNL     1       3.585   7.351  18.103  0.00  0.00    +0.000 C 
ATOM      8  C   UNL     1       5.817   6.223  17.462  0.00  0.00    +0.000 A 
BRANCH   5   9
ATOM      9  C   UNL     1       3.043   4.323  18.808  0.00  0.00    +0.000 A 
ATOM     10  C   UNL     1       2.318   3.451  17.986  0.00  0.00    +0.000 A 
ATOM     11  C   UNL     1       1.172   2.824  18.480  0.00  0.00    +0.000 A 
ATOM     12  C   UNL     1       0.725   3.095  19.775  0.00  0.00    +0.000 A 
ATOM     13  C   UNL     1       1.412   4.008  20.572  0.00  0.00    +0.000 A 
ATOM     14  C   UNL     1       2.564   4.625  20.088  0.00  0.00    +0.000 A 
ENDBRANCH   5   9
ENDBRANCH   1   8
BRANCH   1  15
ATOM     15  C   UNL     1       7.706   7.875  17.876  0.00  0.00    +0.000 C 
ATOM     16  O   UNL     1       8.257   7.092  18.647  0.00  0.00    +0.000 OA
ATOM     17  N   UNL     1       8.004   9.223  17.846  0.00  0.00    +0.000 N 
ATOM     18  H   UNL     1       7.766   9.738  17.005  0.00  0.00    +0.000 HD
BRANCH  17  19
ATOM     19  C   UNL     1       9.090   9.729  18.659  0.00  0.00    +0.000 C 
BRANCH  19  20
ATOM     20  C   UNL     1       9.077  11.224  18.818  0.00  0.00    +0.000 A 
ATOM     21  C   UNL     1       8.620  12.049  17.775  0.00  0.00    +0.000 A 
ATOM     22  C   UNL     1       8.534  13.436  17.942  0.00  0.00    +0.000 A 
ATOM     23  C   UNL     1       8.906  14.018  19.154  0.00  0.00    +0.000 A 
ATOM     24  C   UNL     1       9.367  13.207  20.185  0.00  0.00    +0.000 A 
ATOM     25  F   UNL     1       9.724  13.769  21.349  0.00  0.00    +0.000 F 
ATOM     26  C   UNL     1       9.452  11.826  20.022  0.00  0.00    +0.000 A 
ATOM     27  F   UNL     1       9.892  11.064  21.035  0.00  0.00    +0.000 F 
ENDBRANCH  19  20
ENDBRANCH  17  19
ENDBRANCH   1  15
TORSDOF 5
ENDMDL
MODEL 6
REMARK VINA RESULT:      -7.9      1.847      2.543
REMARK  Name = 
REMARK  7 active torsions:
REMARK  status: ('A' for Active; 'I' for Inactive)
REMARK    1  A    between atoms: C_1  and  C_2
REMARK    2  A    between atoms: N_4  and  C_5
REMARK    3  A    between atoms: C_11  and  C_12
REMARK    4  A    between atoms: C_13  and  C_14
REMARK    5  A    between atoms: C_14  and  C_15
REMARK    6  A    between atoms: N_17  and  C_18
REMARK    7  A    between atoms: C_18  and  C_19
REMARK                            x       y       z     vdW  Elec       q    Type
REMARK                         _______ _______ _______ _____ _____    ______ ____
ROOT
ATOM      1  C   UNL     1       8.065   7.490  17.409  0.00  0.00    +0.000 C 
ENDROOT
BRANCH   1   8
ATOM      2  C   UNL     1       8.420   5.600  20.077  0.00  0.00    +0.000 C 
ATOM      3  C   UNL     1       7.245   5.725  19.175  0.00  0.00    +0.000 A 
ATOM      4  N   UNL     1       6.111   5.086  19.476  0.00  0.00    +0.000 NA
ATOM      5  N   UNL     1       5.274   5.320  18.438  0.00  0.00    +0.000 N 
ATOM      6  C   UNL     1       5.816   6.251  17.559  0.00  0.00    +0.000 A 
ATOM      7  C   UNL     1       5.078   6.936  16.463  0.00  0.00    +0.000 C 
ATOM      8  C   UNL     1       7.112   6.501  17.992  0.00  0.00    +0.000 A 
BRANCH   5   9
ATOM      9  C   UNL     1       4.009   4.673  18.385  0.00  0.00    +0.000 A 
ATOM     10  C   UNL     1       2.966   5.118  19.208  0.00  0.00    +0.000 A 
ATOM     11  C   UNL     1       1.699   4.540  19.096  0.00  0.00    +0.000 A 
ATOM     12  C   UNL     1       1.481   3.495  18.197  0.00  0.00    +0.000 A 
ATOM     13  C   UNL     1       2.533   3.011  17.421  0.00  0.00    +0.000 A 
ATOM     14  C   UNL     1       3.794   3.594  17.519  0.00  0.00    +0.000 A 
ENDBRANCH   5   9
ENDBRANCH   1   8
BRANCH   1  15
ATOM     15  C   UNL     1       8.059   8.860  18.055  0.00  0.00    +0.000 C 
ATOM     16  O   UNL     1       7.257   9.723  17.705  0.00  0.00    +0.000 OA
ATOM     17  N   UNL     1       9.070   9.108  18.963  0.00  0.00    +0.000 N 
ATOM     18  H   UNL     1       9.479   8.311  19.438  0.00  0.00    +0.000 HD
BRANCH  17  19
ATOM     19  C   UNL     1       9.125  10.391  19.631  0.00  0.00    +0.000 C 
BRANCH  19  20
ATOM     20  C   UNL     1       9.913  11.427  18.879  0.00  0.00    +0.000 A 
ATOM     21  C   UNL     1      11.208  11.139  18.411  0.00  0.00    +0.000 A 
ATOM     22  C   UNL     1      11.919  12.071  17.645  0.00  0.00    +0.000 A 
ATOM     23  C   UNL     1      11.347  13.306  17.341  0.00  0.00    +0.000 A 
ATOM     24  C   UNL     1      10.071  13.600  17.810  0.00  0.00    +0.000 A 
ATOM     25  F   UNL     1       9.524  14.788  17.515  0.00  0.00    +0.000 F 
ATOM     26  C   UNL     1       9.361  12.673  18.570  0.00  0.00    +0.000 A 
ATOM     27  F   UNL     1       8.128  12.977  19.004  0.00  0.00    +0.000 F 
ENDBRANCH  19  20
ENDBRANCH  17  19
ENDBRANCH   1  15
TORSDOF 5
ENDMDL
MODEL 7
REMARK VINA RESULT:      -7.8      4.253      6.911
REMARK  Name = 
REMARK  7 active torsions:
REMARK  status: ('A' for Active; 'I' for Inactive)
REMARK    1  A    between atoms: C_1  and  C_2
REMARK    2  A    between atoms: N_4  and  C_5
REMARK    3  A    between atoms: C_11  and  C_12
REMARK    4  A    between atoms: C_13  and  C_14
REMARK    5  A    between atoms: C_14  and  C_15
REMARK    6  A    between atoms: N_17  and  C_18
REMARK    7  A    between atoms: C_18  and  C_19
REMARK                            x       y       z     vdW  Elec       q    Type
REMARK                         _______ _______ _______ _____ _____    ______ ____
ROOT
ATOM      1  C   UNL     1       5.840   5.136  19.270  0.00  0.00    +0.000 C 
ENDROOT
BRANCH   1   8
ATOM      2  C   UNL     1       7.949   7.401  18.158  0.00  0.00    +0.000 C 
ATOM      3  C   UNL     1       7.272   6.311  17.407  0.00  0.00    +0.000 A 
ATOM      4  N   UNL     1       7.581   6.104  16.124  0.00  0.00    +0.000 NA
ATOM      5  N   UNL     1       6.749   5.122  15.702  0.00  0.00    +0.000 N 
ATOM      6  C   UNL     1       6.029   4.588  16.764  0.00  0.00    +0.000 A 
ATOM      7  C   UNL     1       5.225   3.335  16.719  0.00  0.00    +0.000 C 
ATOM      8  C   UNL     1       6.320   5.367  17.876  0.00  0.00    +0.000 A 
BRANCH   5   9
ATOM      9  C   UNL     1       6.734   4.743  14.332  0.00  0.00    +0.000 A 
ATOM     10  C   UNL     1       7.664   5.303  13.447  0.00  0.00    +0.000 A 
ATOM     11  C   UNL     1       7.707   4.869  12.119  0.00  0.00    +0.000 A 
ATOM     12  C   UNL     1       6.800   3.909  11.665  0.00  0.00    +0.000 A 
ATOM     13  C   UNL     1       5.836   3.396  12.530  0.00  0.00    +0.000 A 
ATOM     14  C   UNL     1       5.799   3.815  13.858  0.00  0.00    +0.000 A 
ENDBRANCH   5   9
ENDBRANCH   1   8
BRANCH   1  15
ATOM     15  C   UNL     1       4.340   5.229  19.468  0.00  0.00    +0.000 C 
ATOM     16  O   UNL     1       3.688   4.257  19.841  0.00  0.00    +0.000 OA
ATOM     17  N   UNL     1       3.753   6.423  19.097  0.00  0.00    +0.000 N 
ATOM     18  H   UNL     1       4.332   7.255  19.111  0.00  0.00    +0.000 HD
BRANCH  17  19
ATOM     19  C   UNL     1       2.325   6.593  19.267  0.00  0.00    +0.000 C 
BRANCH  19  20
ATOM     20  C   UNL     1       1.884   8.031  19.245  0.00  0.00    +0.000 A 
ATOM     21  C   UNL     1       2.019   8.801  18.076  0.00  0.00    +0.000 A 
ATOM     22  C   UNL     1       1.543  10.116  18.024  0.00  0.00    +0.000 A 
ATOM     23  C   UNL     1       0.929  10.681  19.142  0.00  0.00    +0.000 A 
ATOM     24  C   UNL     1       0.802   9.927  20.303  0.00  0.00    +0.000 A 
ATOM     25  F   UNL     1       0.211  10.472  21.376  0.00  0.00    +0.000 F 
ATOM     26  C   UNL     1       1.273   8.617  20.356  0.00  0.00    +0.000 A 
ATOM     27  F   UNL     1       1.131   7.907  21.486  0.00  0.00    +0.000 F 
ENDBRANCH  19  20
ENDBRANCH  17  19
ENDBRANCH   1  15
TORSDOF 5
ENDMDL
MODEL 8
REMARK VINA RESULT:      -7.8      1.523      1.664
REMARK  Name = 
REMARK  7 active torsions:
REMARK  status: ('A' for Active; 'I' for Inactive)
REMARK    1  A    between atoms: C_1  and  C_2
REMARK    2  A    between atoms: N_4  and  C_5
REMARK    3  A    between atoms: C_11  and  C_12
REMARK    4  A    between atoms: C_13  and  C_14
REMARK    5  A    between atoms: C_14  and  C_15
REMARK    6  A    between atoms: N_17  and  C_18
REMARK    7  A    between atoms: C_18  and  C_19
REMARK                            x       y       z     vdW  Elec       q    Type
REMARK                         _______ _______ _______ _____ _____    ______ ____
ROOT
ATOM      1  C   UNL     1       6.182   7.332  16.867  0.00  0.00    +0.000 C 
ENDROOT
BRANCH   1   8
ATOM      2  C   UNL     1       6.977   4.242  16.070  0.00  0.00    +0.000 C 
ATOM      3  C   UNL     1       5.835   4.728  16.889  0.00  0.00    +0.000 A 
ATOM      4  N   UNL     1       5.034   3.845  17.492  0.00  0.00    +0.000 NA
ATOM      5  N   UNL     1       4.056   4.579  18.075  0.00  0.00    +0.000 N 
ATOM      6  C   UNL     1       4.333   5.939  17.987  0.00  0.00    +0.000 A 
ATOM      7  C   UNL     1       3.625   7.014  18.736  0.00  0.00    +0.000 C 
ATOM      8  C   UNL     1       5.461   6.065  17.188  0.00  0.00    +0.000 A 
BRANCH   5   9
ATOM      9  C   UNL     1       2.960   3.930  18.705  0.00  0.00    +0.000 A 
ATOM     10  C   UNL     1       2.985   3.706  20.088  0.00  0.00    +0.000 A 
ATOM     11  C   UNL     1       1.873   3.146  20.721  0.00  0.00    +0.000 A 
ATOM     12  C   UNL     1       0.754   2.772  19.974  0.00  0.00    +0.000 A 
ATOM     13  C   UNL     1       0.751   2.939  18.590  0.00  0.00    +0.000 A 
ATOM     14  C   UNL     1       1.853   3.510  17.957  0.00  0.00    +0.000 A 
ENDBRANCH   5   9
ENDBRANCH   1   8
BRANCH   1  15
ATOM     15  C   UNL     1       7.390   7.631  17.731  0.00  0.00    +0.000 C 
ATOM     16  O   UNL     1       7.942   6.744  18.379  0.00  0.00    +0.000 OA
ATOM     17  N   UNL     1       7.752   8.960  17.830  0.00  0.00    +0.000 N 
ATOM     18  H   UNL     1       7.495   9.575  17.065  0.00  0.00    +0.000 HD
BRANCH  17  19
ATOM     19  C   UNL     1       8.904   9.325  18.628  0.00  0.00    +0.000 C 
BRANCH  19  20
ATOM     20  C   UNL     1       9.051  10.808  18.829  0.00  0.00    +0.000 A 
ATOM     21  C   UNL     1       8.863  11.696  17.755  0.00  0.00    +0.000 A 
ATOM     22  C   UNL     1       8.924  13.081  17.950  0.00  0.00    +0.000 A 
ATOM     23  C   UNL     1       9.177  13.597  19.221  0.00  0.00    +0.000 A 
ATOM     24  C   UNL     1       9.373  12.722  20.284  0.00  0.00    +0.000 A 
ATOM     25  F   UNL     1       9.616  13.221  21.504  0.00  0.00    +0.000 F 
ATOM     26  C   UNL     1       9.311  11.344  20.093  0.00  0.00    +0.000 A 
ATOM     27  F   UNL     1       9.495  10.521  21.137  0.00  0.00    +0.000 F 
ENDBRANCH  19  20
ENDBRANCH  17  19
ENDBRANCH   1  15
TORSDOF 5
ENDMDL
MODEL 9
REMARK VINA RESULT:      -7.7      5.741      8.265
REMARK  Name = 
REMARK  7 active torsions:
REMARK  status: ('A' for Active; 'I' for Inactive)
REMARK    1  A    between atoms: C_1  and  C_2
REMARK    2  A    between atoms: N_4  and  C_5
REMARK    3  A    between atoms: C_11  and  C_12
REMARK    4  A    between atoms: C_13  and  C_14
REMARK    5  A    between atoms: C_14  and  C_15
REMARK    6  A    between atoms: N_17  and  C_18
REMARK    7  A    between atoms: C_18  and  C_19
REMARK                            x       y       z     vdW  Elec       q    Type
REMARK                         _______ _______ _______ _____ _____    ______ ____
ROOT
ATOM      1  C   UNL     1       2.045   6.566  20.565  0.00  0.00    +0.000 C 
ENDROOT
BRANCH   1   8
ATOM      2  C   UNL     1       3.360   7.304  17.642  0.00  0.00    +0.000 C 
ATOM      3  C   UNL     1       2.428   8.111  18.474  0.00  0.00    +0.000 A 
ATOM      4  N   UNL     1       1.942   9.259  17.995  0.00  0.00    +0.000 NA
ATOM      5  N   UNL     1       1.210   9.793  19.002  0.00  0.00    +0.000 N 
ATOM      6  C   UNL     1       1.090   8.900  20.060  0.00  0.00    +0.000 A 
ATOM      7  C   UNL     1       0.151   9.041  21.207  0.00  0.00    +0.000 C 
ATOM      8  C   UNL     1       1.903   7.815  19.761  0.00  0.00    +0.000 A 
BRANCH   5   9
ATOM      9  C   UNL     1       0.649  11.092  18.861  0.00  0.00    +0.000 A 
ATOM     10  C   UNL     1       1.435  12.220  19.129  0.00  0.00    +0.000 A 
ATOM     11  C   UNL     1       0.913  13.497  18.909  0.00  0.00    +0.000 A 
ATOM     12  C   UNL     1      -0.401  13.652  18.461  0.00  0.00    +0.000 A 
ATOM     13  C   UNL     1      -1.202  12.532  18.253  0.00  0.00    +0.000 A 
ATOM     14  C   UNL     1      -0.681  11.256  18.457  0.00  0.00    +0.000 A 
ENDBRANCH   5   9
ENDBRANCH   1   8
BRANCH   1  15
ATOM     15  C   UNL     1       2.509   5.345  19.796  0.00  0.00    +0.000 C 
ATOM     16  O   UNL     1       1.724   4.690  19.113  0.00  0.00    +0.000 OA
ATOM     17  N   UNL     1       3.818   4.958  20.003  0.00  0.00    +0.000 N 
ATOM     18  H   UNL     1       4.478   5.672  20.292  0.00  0.00    +0.000 HD
BRANCH  17  19
ATOM     19  C   UNL     1       4.338   3.807  19.295  0.00  0.00    +0.000 C 
BRANCH  19  20
ATOM     20  C   UNL     1       5.201   4.166  18.117  0.00  0.00    +0.000 A 
ATOM     21  C   UNL     1       6.532   4.578  18.305  0.00  0.00    +0.000 A 
ATOM     22  C   UNL     1       7.364   4.842  17.211  0.00  0.00    +0.000 A 
ATOM     23  C   UNL     1       6.875   4.700  15.913  0.00  0.00    +0.000 A 
ATOM     24  C   UNL     1       5.557   4.302  15.721  0.00  0.00    +0.000 A 
ATOM     25  F   UNL     1       5.090   4.166  14.471  0.00  0.00    +0.000 F 
ATOM     26  C   UNL     1       4.728   4.037  16.808  0.00  0.00    +0.000 A 
ATOM     27  F   UNL     1       3.461   3.646  16.597  0.00  0.00    +0.000 F 
ENDBRANCH  19  20
ENDBRANCH  17  19
ENDBRANCH   1  15
TORSDOF 5
ENDMDL
