MODEL 1
REMARK VINA RESULT:      -7.2      0.000      0.000
REMARK  Name = 
REMARK  7 active torsions:
REMARK  status: ('A' for Active; 'I' for Inactive)
REMARK    1  A    between atoms: C_1  and  O_2
REMARK    2  A    between atoms: O_2  and  C_3
REMARK    3  A    between atoms: C_6  and  N_7
REMARK    4  A    between atoms: C_12  and  C_13
REMARK    5  A    between atoms: C_19  and  C_20
REMARK    6  A    between atoms: C_19  and  C_21
REMARK    7  A    between atoms: C_24  and  C_25
REMARK                            x       y       z     vdW  Elec       q    Type
REMARK                         _______ _______ _______ _____ _____    ______ ____
ROOT
ATOM      1  C   UNL     1      -3.832  12.563  23.968  0.00  0.00    +0.000 C 
ATOM      2  O   UNL     1      -4.281  11.651  24.667  0.00  0.00    +0.000 OA
ATOM      3  N   UNL     1      -2.720  12.336  23.141  0.00  0.00    +0.000 N 
ATOM      4  C   UNL     1      -2.038  11.057  23.300  0.00  0.00    +0.000 C 
ATOM      5  C   UNL     1      -0.601  11.298  22.891  0.00  0.00    +0.000 C 
ATOM      6  C   UNL     1      -0.665  12.419  21.874  0.00  0.00    +0.000 C 
ATOM      7  C   UNL     1      -2.080  13.087  22.031  0.00  0.00    +0.000 C 
ATOM      8  C   UNL     1      -1.850  14.581  22.287  0.00  0.00    +0.000 C 
ENDROOT
BRANCH   7   9
ATOM      9  C   UNL     1      -2.770  12.822  20.700  0.00  0.00    +0.000 A 
ATOM     10  N   UNL     1      -2.138  12.333  19.652  0.00  0.00    +0.000 NA
ATOM     11  C   UNL     1      -3.101  11.946  18.764  0.00  0.00    +0.000 A 
ATOM     12  C   UNL     1      -2.949  11.170  17.603  0.00  0.00    +0.000 A 
ATOM     13  C   UNL     1      -1.662  10.453  17.328  0.00  0.00    +0.000 C 
ATOM     14  C   UNL     1      -4.091  11.036  16.794  0.00  0.00    +0.000 A 
ATOM     15 CL   UNL     1      -4.016  10.161  15.303  0.00  0.00    +0.000 Cl
ATOM     16  C   UNL     1      -5.328  11.577  17.173  0.00  0.00    +0.000 A 
ATOM     17  C   UNL     1      -5.498  12.229  18.403  0.00  0.00    +0.000 A 
ATOM     18  C   UNL     1      -4.351  12.377  19.180  0.00  0.00    +0.000 A 
ATOM     19  N   UNL     1      -4.130  12.834  20.460  0.00  0.00    +0.000 N 
ATOM     20  H   UNL     1      -4.842  13.082  21.134  0.00  0.00    +0.000 HD
ENDBRANCH   7   9
BRANCH   1  25
ATOM     21  C   UNL     1      -4.513  16.281  24.240  0.00  0.00    +0.000 A 
ATOM     22  C   UNL     1      -5.776  16.400  23.691  0.00  0.00    +0.000 A 
ATOM     23  C   UNL     1      -6.459  15.262  23.270  0.00  0.00    +0.000 A 
ATOM     24  C   UNL     1      -5.896  13.974  23.426  0.00  0.00    +0.000 A 
ATOM     25  C   UNL     1      -4.618  13.835  24.008  0.00  0.00    +0.000 A 
ATOM     26  C   UNL     1      -3.939  15.020  24.351  0.00  0.00    +0.000 A 
BRANCH  24  27
ATOM     27  N   UNL     1      -6.674  12.884  22.948  0.00  0.00    +0.000 N 
ATOM     28  N   UNL     1      -7.352  12.020  23.750  0.00  0.00    +0.000 NA
ATOM     29  C   UNL     1      -7.912  11.195  22.861  0.00  0.00    +0.000 A 
ATOM     30  C   UNL     1      -7.627  11.618  21.562  0.00  0.00    +0.000 A 
ATOM     31  N   UNL     1      -6.905  12.735  21.606  0.00  0.00    +0.000 NA
ENDBRANCH  24  27
BRANCH  21  33
ATOM     32  C   UNL     1      -4.627  18.302  25.504  0.00  0.00    +0.000 C 
ATOM     33  O   UNL     1      -3.918  17.463  24.596  0.00  0.00    +0.000 OA
ENDBRANCH  21  33
ENDBRANCH   1  25
TORSDOF 4
ENDMDL
MODEL 2
REMARK VINA RESULT:      -7.1      2.727      5.231
REMARK  Name = 
REMARK  7 active torsions:
REMARK  status: ('A' for Active; 'I' for Inactive)
REMARK    1  A    between atoms: C_1  and  O_2
REMARK    2  A    between atoms: O_2  and  C_3
REMARK    3  A    between atoms: C_6  and  N_7
REMARK    4  A    between atoms: C_12  and  C_13
REMARK    5  A    between atoms: C_19  and  C_20
REMARK    6  A    between atoms: C_19  and  C_21
REMARK    7  A    between atoms: C_24  and  C_25
REMARK                            x       y       z     vdW  Elec       q    Type
REMARK                         _______ _______ _______ _____ _____    ______ ____
ROOT
ATOM      1  C   UNL     1      -5.375  12.974  22.115  0.00  0.00    +0.000 C 
ATOM      2  O   UNL     1      -6.367  12.525  22.697  0.00  0.00    +0.000 OA
ATOM      3  N   UNL     1      -4.196  13.237  22.830  0.00  0.00    +0.000 N 
ATOM      4  C   UNL     1      -4.276  13.132  24.282  0.00  0.00    +0.000 C 
ATOM      5  C   UNL     1      -3.220  14.068  24.826  0.00  0.00    +0.000 C 
ATOM      6  C   UNL     1      -2.145  14.110  23.760  0.00  0.00    +0.000 C 
ATOM      7  C   UNL     1      -2.794  13.538  22.447  0.00  0.00    +0.000 C 
ATOM      8  C   UNL     1      -2.618  14.598  21.354  0.00  0.00    +0.000 C 
ENDROOT
BRANCH   7   9
ATOM      9  C   UNL     1      -2.004  12.268  22.160  0.00  0.00    +0.000 A 
ATOM     10  N   UNL     1      -1.692  11.880  20.939  0.00  0.00    +0.000 NA
ATOM     11  C   UNL     1      -0.747  10.903  21.072  0.00  0.00    +0.000 A 
ATOM     12  C   UNL     1       0.058  10.334  20.071  0.00  0.00    +0.000 A 
ATOM     13  C   UNL     1       0.121  10.945  18.703  0.00  0.00    +0.000 C 
ATOM     14  C   UNL     1       0.855   9.245  20.463  0.00  0.00    +0.000 A 
ATOM     15 CL   UNL     1       1.840   8.413  19.308  0.00  0.00    +0.000 Cl
ATOM     16  C   UNL     1       0.902   8.810  21.795  0.00  0.00    +0.000 A 
ATOM     17  C   UNL     1       0.200   9.476  22.810  0.00  0.00    +0.000 A 
ATOM     18  C   UNL     1      -0.604  10.538  22.401  0.00  0.00    +0.000 A 
ATOM     19  N   UNL     1      -1.332  11.489  23.081  0.00  0.00    +0.000 N 
ATOM     20  H   UNL     1      -1.330  11.635  24.082  0.00  0.00    +0.000 HD
ENDBRANCH   7   9
BRANCH   1  25
ATOM     21  C   UNL     1      -5.513  11.903  18.483  0.00  0.00    +0.000 A 
ATOM     22  C   UNL     1      -6.168  12.959  17.878  0.00  0.00    +0.000 A 
ATOM     23  C   UNL     1      -6.531  14.072  18.632  0.00  0.00    +0.000 A 
ATOM     24  C   UNL     1      -6.209  14.159  20.006  0.00  0.00    +0.000 A 
ATOM     25  C   UNL     1      -5.518  13.100  20.631  0.00  0.00    +0.000 A 
ATOM     26  C   UNL     1      -5.238  11.966  19.844  0.00  0.00    +0.000 A 
BRANCH  24  27
ATOM     27  N   UNL     1      -6.641  15.333  20.682  0.00  0.00    +0.000 N 
ATOM     28  N   UNL     1      -5.932  16.493  20.725  0.00  0.00    +0.000 NA
ATOM     29  C   UNL     1      -6.728  17.279  21.456  0.00  0.00    +0.000 A 
ATOM     30  C   UNL     1      -7.913  16.612  21.767  0.00  0.00    +0.000 A 
ATOM     31  N   UNL     1      -7.901  15.401  21.214  0.00  0.00    +0.000 NA
ENDBRANCH  24  27
BRANCH  21  33
ATOM     32  C   UNL     1      -3.853  10.607  17.359  0.00  0.00    +0.000 C 
ATOM     33  O   UNL     1      -5.226  10.846  17.659  0.00  0.00    +0.000 OA
ENDBRANCH  21  33
ENDBRANCH   1  25
TORSDOF 4
ENDMDL
MODEL 3
REMARK VINA RESULT:      -7.1      3.477      6.123
REMARK  Name = 
REMARK  7 active torsions:
REMARK  status: ('A' for Active; 'I' for Inactive)
REMARK    1  A    between atoms: C_1  and  O_2
REMARK    2  A    between atoms: O_2  and  C_3
REMARK    3  A    between atoms: C_6  and  N_7
REMARK    4  A    between atoms: C_12  and  C_13
REMARK    5  A    between atoms: C_19  and  C_20
REMARK    6  A    between atoms: C_19  and  C_21
REMARK    7  A    between atoms: C_24  and  C_25
REMARK                            x       y       z     vdW  Elec       q    Type
REMARK                         _______ _______ _______ _____ _____    ______ ____
ROOT
ATOM      1  C   UNL     1      -2.307  12.482  20.743  0.00  0.00    +0.000 C 
ATOM      2  O   UNL     1      -2.889  12.260  21.808  0.00  0.00    +0.000 OA
ATOM      3  N   UNL     1      -0.973  12.919  20.746  0.00  0.00    +0.000 N 
ATOM      4  C   UNL     1      -0.401  13.265  22.042  0.00  0.00    +0.000 C 
ATOM      5  C   UNL     1       0.672  14.294  21.762  0.00  0.00    +0.000 C 
ATOM      6  C   UNL     1       1.165  13.978  20.365  0.00  0.00    +0.000 C 
ATOM      7  C   UNL     1       0.080  13.050  19.707  0.00  0.00    +0.000 C 
ATOM      8  C   UNL     1      -0.358  13.720  18.399  0.00  0.00    +0.000 C 
ENDROOT
BRANCH   7   9
ATOM      9  C   UNL     1       0.806  11.732  19.472  0.00  0.00    +0.000 A 
ATOM     10  N   UNL     1       0.981  10.834  20.420  0.00  0.00    +0.000 NA
ATOM     11  C   UNL     1       1.380   9.685  19.798  0.00  0.00    +0.000 A 
ATOM     12  C   UNL     1       1.478   8.394  20.342  0.00  0.00    +0.000 A 
ATOM     13  C   UNL     1       0.898   8.087  21.690  0.00  0.00    +0.000 C 
ATOM     14  C   UNL     1       2.050   7.414  19.511  0.00  0.00    +0.000 A 
ATOM     15 CL   UNL     1       2.288   5.800  20.087  0.00  0.00    +0.000 Cl
ATOM     16  C   UNL     1       2.423   7.698  18.189  0.00  0.00    +0.000 A 
ATOM     17  C   UNL     1       2.190   8.956  17.615  0.00  0.00    +0.000 A 
ATOM     18  C   UNL     1       1.646   9.922  18.459  0.00  0.00    +0.000 A 
ATOM     19  N   UNL     1       1.173  11.199  18.253  0.00  0.00    +0.000 N 
ATOM     20  H   UNL     1       1.055  11.651  17.356  0.00  0.00    +0.000 HD
ENDBRANCH   7   9
BRANCH   1  25
ATOM     21  C   UNL     1      -3.134  10.873  17.414  0.00  0.00    +0.000 A 
ATOM     22  C   UNL     1      -4.508  11.014  17.340  0.00  0.00    +0.000 A 
ATOM     23  C   UNL     1      -5.190  11.688  18.350  0.00  0.00    +0.000 A 
ATOM     24  C   UNL     1      -4.497  12.266  19.439  0.00  0.00    +0.000 A 
ATOM     25  C   UNL     1      -3.093  12.152  19.514  0.00  0.00    +0.000 A 
ATOM     26  C   UNL     1      -2.457  11.399  18.508  0.00  0.00    +0.000 A 
BRANCH  24  27
ATOM     27  N   UNL     1      -5.294  12.917  20.420  0.00  0.00    +0.000 N 
ATOM     28  N   UNL     1      -5.469  14.263  20.490  0.00  0.00    +0.000 NA
ATOM     29  C   UNL     1      -6.276  14.386  21.548  0.00  0.00    +0.000 A 
ATOM     30  C   UNL     1      -6.625  13.127  22.037  0.00  0.00    +0.000 A 
ATOM     31  N   UNL     1      -6.069  12.184  21.280  0.00  0.00    +0.000 NA
ENDBRANCH  24  27
BRANCH  21  33
ATOM     32  C   UNL     1      -3.037  10.445  15.068  0.00  0.00    +0.000 C 
ATOM     33  O   UNL     1      -2.565  10.170  16.385  0.00  0.00    +0.000 OA
ENDBRANCH  21  33
ENDBRANCH   1  25
TORSDOF 4
ENDMDL
MODEL 4
REMARK VINA RESULT:      -7.1      3.078      5.575
REMARK  Name = 
REMARK  7 active torsions:
REMARK  status: ('A' for Active; 'I' for Inactive)
REMARK    1  A    between atoms: C_1  and  O_2
REMARK    2  A    between atoms: O_2  and  C_3
REMARK    3  A    between atoms: C_6  and  N_7
REMARK    4  A    between atoms: C_12  and  C_13
REMARK    5  A    between atoms: C_19  and  C_20
REMARK    6  A    between atoms: C_19  and  C_21
REMARK    7  A    between atoms: C_24  and  C_25
REMARK                            x       y       z     vdW  Elec       q    Type
REMARK                         _______ _______ _______ _____ _____    ______ ____
ROOT
ATOM      1  C   UNL     1      -4.105  12.564  21.247  0.00  0.00    +0.000 C 
ATOM      2  O   UNL     1      -5.038  12.283  22.004  0.00  0.00    +0.000 OA
ATOM      3  N   UNL     1      -2.817  12.776  21.762  0.00  0.00    +0.000 N 
ATOM      4  C   UNL     1      -2.696  12.833  23.215  0.00  0.00    +0.000 C 
ATOM      5  C   UNL     1      -1.495  13.707  23.499  0.00  0.00    +0.000 C 
ATOM      6  C   UNL     1      -0.585  13.525  22.302  0.00  0.00    +0.000 C 
ATOM      7  C   UNL     1      -1.463  12.889  21.164  0.00  0.00    +0.000 C 
ATOM      8  C   UNL     1      -1.354  13.805  19.939  0.00  0.00    +0.000 C 
ENDROOT
BRANCH   7   9
ATOM      9  C   UNL     1      -0.837  11.521  20.926  0.00  0.00    +0.000 A 
ATOM     10  N   UNL     1      -0.354  11.149  19.758  0.00  0.00    +0.000 NA
ATOM     11  C   UNL     1       0.385  10.023  19.984  0.00  0.00    +0.000 A 
ATOM     12  C   UNL     1       1.274   9.379  19.108  0.00  0.00    +0.000 A 
ATOM     13  C   UNL     1       1.700  10.039  17.831  0.00  0.00    +0.000 C 
ATOM     14  C   UNL     1       1.801   8.153  19.552  0.00  0.00    +0.000 A 
ATOM     15 CL   UNL     1       2.855   7.229  18.538  0.00  0.00    +0.000 Cl
ATOM     16  C   UNL     1       1.516   7.649  20.829  0.00  0.00    +0.000 A 
ATOM     17  C   UNL     1       0.738   8.372  21.746  0.00  0.00    +0.000 A 
ATOM     18  C   UNL     1       0.203   9.572  21.282  0.00  0.00    +0.000 A 
ATOM     19  N   UNL     1      -0.489  10.596  21.890  0.00  0.00    +0.000 N 
ATOM     20  H   UNL     1      -0.663  10.689  22.882  0.00  0.00    +0.000 HD
ENDBRANCH   7   9
BRANCH   1  25
ATOM     21  C   UNL     1      -4.201  11.343  17.661  0.00  0.00    +0.000 A 
ATOM     22  C   UNL     1      -5.286  12.021  17.137  0.00  0.00    +0.000 A 
ATOM     23  C   UNL     1      -5.978  12.936  17.927  0.00  0.00    +0.000 A 
ATOM     24  C   UNL     1      -5.569  13.213  19.251  0.00  0.00    +0.000 A 
ATOM     25  C   UNL     1      -4.448  12.547  19.791  0.00  0.00    +0.000 A 
ATOM     26  C   UNL     1      -3.827  11.579  18.978  0.00  0.00    +0.000 A 
BRANCH  24  27
ATOM     27  N   UNL     1      -6.356  14.152  19.971  0.00  0.00    +0.000 N 
ATOM     28  N   UNL     1      -7.593  13.888  20.470  0.00  0.00    +0.000 NA
ATOM     29  C   UNL     1      -7.916  15.049  21.047  0.00  0.00    +0.000 A 
ATOM     30  C   UNL     1      -6.854  15.948  20.951  0.00  0.00    +0.000 A 
ATOM     31  N   UNL     1      -5.828  15.362  20.337  0.00  0.00    +0.000 NA
ENDBRANCH  24  27
BRANCH  21  33
ATOM     32  C   UNL     1      -3.558  10.793  15.429  0.00  0.00    +0.000 C 
ATOM     33  O   UNL     1      -3.608  10.446  16.811  0.00  0.00    +0.000 OA
ENDBRANCH  21  33
ENDBRANCH   1  25
TORSDOF 4
ENDMDL
MODEL 5
REMARK VINA RESULT:      -7.0      4.323      6.385
REMARK  Name = 
REMARK  7 active torsions:
REMARK  status: ('A' for Active; 'I' for Inactive)
REMARK    1  A    between atoms: C_1  and  O_2
REMARK    2  A    between atoms: O_2  and  C_3
REMARK    3  A    between atoms: C_6  and  N_7
REMARK    4  A    between atoms: C_12  and  C_13
REMARK    5  A    between atoms: C_19  and  C_20
REMARK    6  A    between atoms: C_19  and  C_21
REMARK    7  A    between atoms: C_24  and  C_25
REMARK                            x       y       z     vdW  Elec       q    Type
REMARK                         _______ _______ _______ _____ _____    ______ ____
ROOT
ATOM      1  C   UNL     1       0.902  14.228  21.425  0.00  0.00    +0.000 C 
ATOM      2  O   UNL     1       1.609  14.663  22.338  0.00  0.00    +0.000 OA
ATOM      3  N   UNL     1       1.492  13.706  20.263  0.00  0.00    +0.000 N 
ATOM      4  C   UNL     1       2.933  13.881  20.127  0.00  0.00    +0.000 C 
ATOM      5  C   UNL     1       3.211  13.904  18.640  0.00  0.00    +0.000 C 
ATOM      6  C   UNL     1       2.119  13.054  18.023  0.00  0.00    +0.000 C 
ATOM      7  C   UNL     1       0.994  12.911  19.112  0.00  0.00    +0.000 C 
ATOM      8  C   UNL     1      -0.313  13.403  18.482  0.00  0.00    +0.000 C 
ENDROOT
BRANCH   7   9
ATOM      9  C   UNL     1       0.965  11.421  19.428  0.00  0.00    +0.000 A 
ATOM     10  N   UNL     1       1.379  10.502  18.579  0.00  0.00    +0.000 NA
ATOM     11  C   UNL     1       1.497   9.342  19.289  0.00  0.00    +0.000 A 
ATOM     12  C   UNL     1       2.110   8.142  18.894  0.00  0.00    +0.000 A 
ATOM     13  C   UNL     1       2.950   8.086  17.653  0.00  0.00    +0.000 C 
ATOM     14  C   UNL     1       1.968   7.054  19.774  0.00  0.00    +0.000 A 
ATOM     15 CL   UNL     1       2.618   5.502  19.370  0.00  0.00    +0.000 Cl
ATOM     16  C   UNL     1       1.322   7.190  21.011  0.00  0.00    +0.000 A 
ATOM     17  C   UNL     1       0.838   8.430  21.455  0.00  0.00    +0.000 A 
ATOM     18  C   UNL     1       0.964   9.490  20.560  0.00  0.00    +0.000 A 
ATOM     19  N   UNL     1       0.732  10.844  20.660  0.00  0.00    +0.000 N 
ATOM     20  H   UNL     1       0.489  11.344  21.505  0.00  0.00    +0.000 HD
ENDBRANCH   7   9
BRANCH   1  25
ATOM     21  C   UNL     1      -2.373  13.142  22.993  0.00  0.00    +0.000 A 
ATOM     22  C   UNL     1      -3.190  14.236  22.780  0.00  0.00    +0.000 A 
ATOM     23  C   UNL     1      -2.708  15.333  22.070  0.00  0.00    +0.000 A 
ATOM     24  C   UNL     1      -1.402  15.335  21.528  0.00  0.00    +0.000 A 
ATOM     25  C   UNL     1      -0.565  14.215  21.716  0.00  0.00    +0.000 A 
ATOM     26  C   UNL     1      -1.072  13.162  22.502  0.00  0.00    +0.000 A 
BRANCH  24  27
ATOM     27  N   UNL     1      -1.009  16.512  20.835  0.00  0.00    +0.000 N 
ATOM     28  N   UNL     1      -1.240  16.733  19.513  0.00  0.00    +0.000 NA
ATOM     29  C   UNL     1      -0.700  17.942  19.333  0.00  0.00    +0.000 A 
ATOM     30  C   UNL     1      -0.231  18.447  20.545  0.00  0.00    +0.000 A 
ATOM     31  N   UNL     1      -0.492  17.580  21.520  0.00  0.00    +0.000 NA
ENDBRANCH  24  27
BRANCH  21  33
ATOM     32  C   UNL     1      -4.143  12.421  24.422  0.00  0.00    +0.000 C 
ATOM     33  O   UNL     1      -2.934  12.129  23.726  0.00  0.00    +0.000 OA
ENDBRANCH  21  33
ENDBRANCH   1  25
TORSDOF 4
ENDMDL
MODEL 6
REMARK VINA RESULT:      -6.7      4.037      6.678
REMARK  Name = 
REMARK  7 active torsions:
REMARK  status: ('A' for Active; 'I' for Inactive)
REMARK    1  A    between atoms: C_1  and  O_2
REMARK    2  A    between atoms: O_2  and  C_3
REMARK    3  A    between atoms: C_6  and  N_7
REMARK    4  A    between atoms: C_12  and  C_13
REMARK    5  A    between atoms: C_19  and  C_20
REMARK    6  A    between atoms: C_19  and  C_21
REMARK    7  A    between atoms: C_24  and  C_25
REMARK                            x       y       z     vdW  Elec       q    Type
REMARK                         _______ _______ _______ _____ _____    ______ ____
ROOT
ATOM      1  C   UNL     1       0.570  13.231  21.340  0.00  0.00    +0.000 C 
ATOM      2  O   UNL     1       0.224  13.542  22.483  0.00  0.00    +0.000 OA
ATOM      3  N   UNL     1       0.571  11.884  20.945  0.00  0.00    +0.000 N 
ATOM      4  C   UNL     1       0.331  10.896  21.991  0.00  0.00    +0.000 C 
ATOM      5  C   UNL     1       1.031   9.633  21.539  0.00  0.00    +0.000 C 
ATOM      6  C   UNL     1       1.013   9.694  20.026  0.00  0.00    +0.000 C 
ATOM      7  C   UNL     1       0.687  11.183  19.641  0.00  0.00    +0.000 C 
ATOM      8  C   UNL     1       1.813  11.673  18.723  0.00  0.00    +0.000 C 
ENDROOT
BRANCH   7   9
ATOM      9  C   UNL     1      -0.655  11.100  18.925  0.00  0.00    +0.000 A 
ATOM     10  N   UNL     1      -1.803  11.336  19.529  0.00  0.00    +0.000 NA
ATOM     11  C   UNL     1      -2.739  11.473  18.544  0.00  0.00    +0.000 A 
ATOM     12  C   UNL     1      -4.056  11.947  18.659  0.00  0.00    +0.000 A 
ATOM     13  C   UNL     1      -4.522  12.607  19.922  0.00  0.00    +0.000 C 
ATOM     14  C   UNL     1      -4.850  11.855  17.503  0.00  0.00    +0.000 A 
ATOM     15 CL   UNL     1      -6.510  12.343  17.533  0.00  0.00    +0.000 Cl
ATOM     16  C   UNL     1      -4.328  11.392  16.286  0.00  0.00    +0.000 A 
ATOM     17  C   UNL     1      -2.973  11.054  16.151  0.00  0.00    +0.000 A 
ATOM     18  C   UNL     1      -2.206  11.127  17.312  0.00  0.00    +0.000 A 
ATOM     19  N   UNL     1      -0.858  10.999  17.564  0.00  0.00    +0.000 N 
ATOM     20  H   UNL     1      -0.130  10.905  16.868  0.00  0.00    +0.000 HD
ENDBRANCH   7   9
BRANCH   1  25
ATOM     21  C   UNL     1      -0.087  16.109  18.965  0.00  0.00    +0.000 A 
ATOM     22  C   UNL     1       1.085  16.838  19.037  0.00  0.00    +0.000 A 
ATOM     23  C   UNL     1       2.140  16.376  19.821  0.00  0.00    +0.000 A 
ATOM     24  C   UNL     1       2.048  15.151  20.520  0.00  0.00    +0.000 A 
ATOM     25  C   UNL     1       0.867  14.384  20.435  0.00  0.00    +0.000 A 
ATOM     26  C   UNL     1      -0.197  14.929  19.690  0.00  0.00    +0.000 A 
BRANCH  24  27
ATOM     27  N   UNL     1       3.178  14.784  21.301  0.00  0.00    +0.000 N 
ATOM     28  N   UNL     1       4.299  14.203  20.795  0.00  0.00    +0.000 NA
ATOM     29  C   UNL     1       5.054  14.054  21.887  0.00  0.00    +0.000 A 
ATOM     30  C   UNL     1       4.414  14.609  22.996  0.00  0.00    +0.000 A 
ATOM     31  N   UNL     1       3.255  15.145  22.620  0.00  0.00    +0.000 NA
ENDBRANCH  24  27
BRANCH  21  33
ATOM     32  C   UNL     1      -0.835  17.972  17.673  0.00  0.00    +0.000 C 
ATOM     33  O   UNL     1      -1.072  16.665  18.190  0.00  0.00    +0.000 OA
ENDBRANCH  21  33
ENDBRANCH   1  25
TORSDOF 4
ENDMDL
MODEL 7
REMARK VINA RESULT:      -6.7     11.960     14.990
REMARK  Name = 
REMARK  7 active torsions:
REMARK  status: ('A' for Active; 'I' for Inactive)
REMARK    1  A    between atoms: C_1  and  O_2
REMARK    2  A    between atoms: O_2  and  C_3
REMARK    3  A    between atoms: C_6  and  N_7
REMARK    4  A    between atoms: C_12  and  C_13
REMARK    5  A    between atoms: C_19  and  C_20
REMARK    6  A    between atoms: C_19  and  C_21
REMARK    7  A    between atoms: C_24  and  C_25
REMARK                            x       y       z     vdW  Elec       q    Type
REMARK                         _______ _______ _______ _____ _____    ______ ____
ROOT
ATOM      1  C   UNL     1       8.079  14.660  19.335  0.00  0.00    +0.000 C 
ATOM      2  O   UNL     1       7.115  14.742  18.569  0.00  0.00    +0.000 OA
ATOM      3  N   UNL     1       8.083  15.373  20.543  0.00  0.00    +0.000 N 
ATOM      4  C   UNL     1       7.001  16.332  20.740  0.00  0.00    +0.000 C 
ATOM      5  C   UNL     1       7.550  17.394  21.666  0.00  0.00    +0.000 C 
ATOM      6  C   UNL     1       8.588  16.683  22.509  0.00  0.00    +0.000 C 
ATOM      7  C   UNL     1       8.919  15.335  21.770  0.00  0.00    +0.000 C 
ATOM      8  C   UNL     1      10.434  15.305  21.539  0.00  0.00    +0.000 C 
ENDROOT
BRANCH   7   9
ATOM      9  C   UNL     1       8.454  14.253  22.735  0.00  0.00    +0.000 A 
ATOM     10  N   UNL     1       8.876  14.178  23.982  0.00  0.00    +0.000 NA
ATOM     11  C   UNL     1       8.043  13.305  24.621  0.00  0.00    +0.000 A 
ATOM     12  C   UNL     1       7.937  13.060  26.000  0.00  0.00    +0.000 A 
ATOM     13  C   UNL     1       8.618  13.957  26.990  0.00  0.00    +0.000 C 
ATOM     14  C   UNL     1       7.088  12.005  26.378  0.00  0.00    +0.000 A 
ATOM     15 CL   UNL     1       6.925  11.558  28.042  0.00  0.00    +0.000 Cl
ATOM     16  C   UNL     1       6.330  11.297  25.434  0.00  0.00    +0.000 A 
ATOM     17  C   UNL     1       6.339  11.645  24.076  0.00  0.00    +0.000 A 
ATOM     18  C   UNL     1       7.205  12.676  23.715  0.00  0.00    +0.000 A 
ATOM     19  N   UNL     1       7.410  13.371  22.543  0.00  0.00    +0.000 N 
ATOM     20  H   UNL     1       6.855  13.294  21.702  0.00  0.00    +0.000 HD
ENDBRANCH   7   9
BRANCH   1  25
ATOM     21  C   UNL     1       9.679  11.324  18.515  0.00  0.00    +0.000 A 
ATOM     22  C   UNL     1      10.775  11.690  17.757  0.00  0.00    +0.000 A 
ATOM     23  C   UNL     1      11.050  13.038  17.542  0.00  0.00    +0.000 A 
ATOM     24  C   UNL     1      10.245  14.048  18.118  0.00  0.00    +0.000 A 
ATOM     25  C   UNL     1       9.137  13.689  18.914  0.00  0.00    +0.000 A 
ATOM     26  C   UNL     1       8.858  12.314  19.042  0.00  0.00    +0.000 A 
BRANCH  24  27
ATOM     27  N   UNL     1      10.607  15.390  17.821  0.00  0.00    +0.000 N 
ATOM     28  N   UNL     1       9.773  16.297  17.247  0.00  0.00    +0.000 NA
ATOM     29  C   UNL     1      10.548  17.382  17.173  0.00  0.00    +0.000 A 
ATOM     30  C   UNL     1      11.787  17.133  17.763  0.00  0.00    +0.000 A 
ATOM     31  N   UNL     1      11.808  15.893  18.248  0.00  0.00    +0.000 NA
ENDBRANCH  24  27
BRANCH  21  33
ATOM     32  C   UNL     1       8.303   9.429  18.056  0.00  0.00    +0.000 C 
ATOM     33  O   UNL     1       9.482   9.974  18.642  0.00  0.00    +0.000 OA
ENDBRANCH  21  33
ENDBRANCH   1  25
TORSDOF 4
ENDMDL
MODEL 8
REMARK VINA RESULT:      -6.7     10.429     12.266
REMARK  Name = 
REMARK  7 active torsions:
REMARK  status: ('A' for Active; 'I' for Inactive)
REMARK    1  A    between atoms: C_1  and  O_2
REMARK    2  A    between atoms: O_2  and  C_3
REMARK    3  A    between atoms: C_6  and  N_7
REMARK    4  A    between atoms: C_12  and  C_13
REMARK    5  A    between atoms: C_19  and  C_20
REMARK    6  A    between atoms: C_19  and  C_21
REMARK    7  A    between atoms: C_24  and  C_25
REMARK                            x       y       z     vdW  Elec       q    Type
REMARK                         _______ _______ _______ _____ _____    ______ ____
ROOT
ATOM      1  C   UNL     1       5.527  14.308  22.973  0.00  0.00    +0.000 C 
ATOM      2  O   UNL     1       4.341  13.969  22.930  0.00  0.00    +0.000 OA
ATOM      3  N   UNL     1       6.521  13.363  23.272  0.00  0.00    +0.000 N 
ATOM      4  C   UNL     1       6.063  12.048  23.704  0.00  0.00    +0.000 C 
ATOM      5  C   UNL     1       7.161  11.492  24.583  0.00  0.00    +0.000 C 
ATOM      6  C   UNL     1       8.436  12.124  24.065  0.00  0.00    +0.000 C 
ATOM      7  C   UNL     1       8.003  13.349  23.181  0.00  0.00    +0.000 C 
ATOM      8  C   UNL     1       8.713  14.587  23.740  0.00  0.00    +0.000 C 
ENDROOT
BRANCH   7   9
ATOM      9  C   UNL     1       8.477  12.987  21.779  0.00  0.00    +0.000 A 
ATOM     10  N   UNL     1       8.761  13.893  20.865  0.00  0.00    +0.000 NA
ATOM     11  C   UNL     1       9.430  13.242  19.868  0.00  0.00    +0.000 A 
ATOM     12  C   UNL     1      10.134  13.800  18.788  0.00  0.00    +0.000 A 
ATOM     13  C   UNL     1      10.429  15.269  18.747  0.00  0.00    +0.000 C 
ATOM     14  C   UNL     1      10.616  12.892  17.829  0.00  0.00    +0.000 A 
ATOM     15 CL   UNL     1      11.440  13.458  16.416  0.00  0.00    +0.000 Cl
ATOM     16  C   UNL     1      10.471  11.507  17.989  0.00  0.00    +0.000 A 
ATOM     17  C   UNL     1       9.890  10.958  19.142  0.00  0.00    +0.000 A 
ATOM     18  C   UNL     1       9.395  11.871  20.070  0.00  0.00    +0.000 A 
ATOM     19  N   UNL     1       8.880  11.742  21.341  0.00  0.00    +0.000 N 
ATOM     20  H   UNL     1       8.854  10.891  21.888  0.00  0.00    +0.000 HD
ENDBRANCH   7   9
BRANCH   1  25
ATOM     21  C   UNL     1       6.032  17.313  20.720  0.00  0.00    +0.000 A 
ATOM     22  C   UNL     1       5.827  18.376  21.580  0.00  0.00    +0.000 A 
ATOM     23  C   UNL     1       5.574  18.137  22.929  0.00  0.00    +0.000 A 
ATOM     24  C   UNL     1       5.558  16.822  23.447  0.00  0.00    +0.000 A 
ATOM     25  C   UNL     1       5.790  15.729  22.586  0.00  0.00    +0.000 A 
ATOM     26  C   UNL     1       5.969  16.018  21.219  0.00  0.00    +0.000 A 
BRANCH  24  27
ATOM     27  N   UNL     1       5.276  16.694  24.834  0.00  0.00    +0.000 N 
ATOM     28  N   UNL     1       4.027  16.530  25.346  0.00  0.00    +0.000 NA
ATOM     29  C   UNL     1       4.270  16.460  26.658  0.00  0.00    +0.000 A 
ATOM     30  C   UNL     1       5.643  16.507  26.898  0.00  0.00    +0.000 A 
ATOM     31  N   UNL     1       6.296  16.577  25.740  0.00  0.00    +0.000 NA
ENDBRANCH  24  27
BRANCH  21  33
ATOM     32  C   UNL     1       6.972  16.732  18.606  0.00  0.00    +0.000 C 
ATOM     33  O   UNL     1       6.244  17.656  19.411  0.00  0.00    +0.000 OA
ENDBRANCH  21  33
ENDBRANCH   1  25
TORSDOF 4
ENDMDL
MODEL 9
REMARK VINA RESULT:      -6.7      2.831      5.185
REMARK  Name = 
REMARK  7 active torsions:
REMARK  status: ('A' for Active; 'I' for Inactive)
REMARK    1  A    between atoms: C_1  and  O_2
REMARK    2  A    between atoms: O_2  and  C_3
REMARK    3  A    between atoms: C_6  and  N_7
REMARK    4  A    between atoms: C_12  and  C_13
REMARK    5  A    between atoms: C_19  and  C_20
REMARK    6  A    between atoms: C_19  and  C_21
REMARK    7  A    between atoms: C_24  and  C_25
REMARK                            x       y       z     vdW  Elec       q    Type
REMARK                         _______ _______ _______ _____ _____    ______ ____
ROOT
ATOM      1  C   UNL     1      -4.137  12.894  21.733  0.00  0.00    +0.000 C 
ATOM      2  O   UNL     1      -4.857  12.268  22.516  0.00  0.00    +0.000 OA
ATOM      3  N   UNL     1      -2.884  13.367  22.150  0.00  0.00    +0.000 N 
ATOM      4  C   UNL     1      -2.579  13.243  23.571  0.00  0.00    +0.000 C 
ATOM      5  C   UNL     1      -1.605  14.357  23.887  0.00  0.00    +0.000 C 
ATOM      6  C   UNL     1      -0.854  14.600  22.594  0.00  0.00    +0.000 C 
ATOM      7  C   UNL     1      -1.697  13.923  21.452  0.00  0.00    +0.000 C 
ATOM      8  C   UNL     1      -1.990  15.002  20.404  0.00  0.00    +0.000 C 
ENDROOT
BRANCH   7   9
ATOM      9  C   UNL     1      -0.791  12.822  20.919  0.00  0.00    +0.000 A 
ATOM     10  N   UNL     1      -0.277  11.884  21.689  0.00  0.00    +0.000 NA
ATOM     11  C   UNL     1       0.211  10.920  20.853  0.00  0.00    +0.000 A 
ATOM     12  C   UNL     1       0.650   9.627  21.183  0.00  0.00    +0.000 A 
ATOM     13  C   UNL     1       0.397   9.061  22.549  0.00  0.00    +0.000 C 
ATOM     14  C   UNL     1       1.234   8.886  20.141  0.00  0.00    +0.000 A 
ATOM     15 CL   UNL     1       1.876   7.307  20.434  0.00  0.00    +0.000 Cl
ATOM     16  C   UNL     1       1.296   9.384  18.831  0.00  0.00    +0.000 A 
ATOM     17  C   UNL     1       0.727  10.619  18.487  0.00  0.00    +0.000 A 
ATOM     18  C   UNL     1       0.175  11.351  19.536  0.00  0.00    +0.000 A 
ATOM     19  N   UNL     1      -0.561  12.513  19.593  0.00  0.00    +0.000 N 
ATOM     20  H   UNL     1      -0.926  13.025  18.800  0.00  0.00    +0.000 HD
ENDBRANCH   7   9
BRANCH   1  25
ATOM     21  C   UNL     1      -4.774  11.929  18.124  0.00  0.00    +0.000 A 
ATOM     22  C   UNL     1      -5.870  12.703  17.790  0.00  0.00    +0.000 A 
ATOM     23  C   UNL     1      -6.392  13.600  18.719  0.00  0.00    +0.000 A 
ATOM     24  C   UNL     1      -5.799  13.762  19.991  0.00  0.00    +0.000 A 
ATOM     25  C   UNL     1      -4.665  12.997  20.337  0.00  0.00    +0.000 A 
ATOM     26  C   UNL     1      -4.219  12.052  19.392  0.00  0.00    +0.000 A 
BRANCH  24  27
ATOM     27  N   UNL     1      -6.423  14.694  20.865  0.00  0.00    +0.000 N 
ATOM     28  N   UNL     1      -7.526  14.419  21.612  0.00  0.00    +0.000 NA
ATOM     29  C   UNL     1      -7.727  15.577  22.248  0.00  0.00    +0.000 A 
ATOM     30  C   UNL     1      -6.715  16.484  21.934  0.00  0.00    +0.000 A 
ATOM     31  N   UNL     1      -5.838  15.907  21.116  0.00  0.00    +0.000 NA
ENDBRANCH  24  27
BRANCH  21  33
ATOM     32  C   UNL     1      -3.200  10.276  17.430  0.00  0.00    +0.000 C 
ATOM     33  O   UNL     1      -4.356  11.060  17.151  0.00  0.00    +0.000 OA
ENDBRANCH  21  33
ENDBRANCH   1  25
TORSDOF 4
ENDMDL
