MODEL 1
REMARK VINA RESULT:      -9.2      0.000      0.000
REMARK  Name = 
REMARK  8 active torsions:
REMARK  status: ('A' for Active; 'I' for Inactive)
REMARK    1  A    between atoms: C_1  and  C_2
REMARK    2  A    between atoms: C_4  and  C_5
REMARK    3  A    between atoms: C_7  and  C_8
REMARK    4  A    between atoms: C_8  and  C_9
REMARK    5  A    between atoms: C_8  and  C_10
REMARK    6  A    between atoms: N_12  and  C_13
REMARK    7  A    between atoms: C_16  and  C_17
REMARK    8  A    between atoms: C_21  and  C_22
REMARK                            x       y       z     vdW  Elec       q    Type
REMARK                         _______ _______ _______ _____ _____    ______ ____
ROOT
ATOM      1  C   UNL     1       2.493   4.592  17.731  0.00  0.00    +0.000 C 
ATOM      2  O   UNL     1       1.293   4.362  17.865  0.00  0.00    +0.000 OA
ATOM      3  N   UNL     1       3.128   5.739  18.185  0.00  0.00    +0.000 N 
ATOM      4  H   UNL     1       3.971   6.002  17.691  0.00  0.00    +0.000 HD
ENDROOT
BRANCH   3   5
ATOM      5  C   UNL     1       2.463   6.758  18.898  0.00  0.00    +0.000 A 
ATOM      6  C   UNL     1       2.163   7.999  18.336  0.00  0.00    +0.000 A 
ATOM      7  C   UNL     1       1.509   8.984  19.094  0.00  0.00    +0.000 A 
ATOM      8  C   UNL     1       1.155   8.763  20.437  0.00  0.00    +0.000 A 
ATOM      9  C   UNL     1       1.459   7.498  20.974  0.00  0.00    +0.000 A 
ATOM     10  C   UNL     1       2.081   6.500  20.211  0.00  0.00    +0.000 A 
BRANCH   8  11
ATOM     11  C   UNL     1       0.485   9.803  21.254  0.00  0.00    +0.000 A 
ATOM     12  C   UNL     1      -0.262   9.479  22.393  0.00  0.00    +0.000 A 
ATOM     13  C   UNL     1      -0.843  10.492  23.140  0.00  0.00    +0.000 A 
ATOM     14  N   UNL     1      -0.733  11.804  22.846  0.00  0.00    +0.000 NA
ATOM     15  C   UNL     1      -0.018  12.127  21.748  0.00  0.00    +0.000 A 
ATOM     16  C   UNL     1       0.129  13.585  21.426  0.00  0.00    +0.000 C 
ATOM     17  C   UNL     1       0.587  11.168  20.935  0.00  0.00    +0.000 A 
ENDBRANCH   8  11
ENDBRANCH   3   5
BRANCH   1  18
ATOM     18  C   UNL     1       3.408   3.542  17.094  0.00  0.00    +0.000 C 
ATOM     19  C   UNL     1       3.328   2.263  17.935  0.00  0.00    +0.000 C 
BRANCH  18  26
ATOM     20  C   UNL     1       7.048   4.808  13.801  0.00  0.00    +0.000 C 
ATOM     21  C   UNL     1       6.593   4.649  15.222  0.00  0.00    +0.000 A 
ATOM     22  C   UNL     1       7.397   5.059  16.289  0.00  0.00    +0.000 A 
ATOM     23  C   UNL     1       6.947   4.933  17.607  0.00  0.00    +0.000 A 
ATOM     24  C   UNL     1       7.802   5.402  18.750  0.00  0.00    +0.000 C 
ATOM     25  C   UNL     1       5.670   4.400  17.851  0.00  0.00    +0.000 A 
ATOM     26  C   UNL     1       4.830   4.007  16.793  0.00  0.00    +0.000 A 
ATOM     27  C   UNL     1       5.322   4.117  15.483  0.00  0.00    +0.000 A 
ENDBRANCH  18  26
ENDBRANCH   1  18
TORSDOF 4
ENDMDL
MODEL 2
REMARK VINA RESULT:      -8.9      0.967      1.741
REMARK  Name = 
REMARK  8 active torsions:
REMARK  status: ('A' for Active; 'I' for Inactive)
REMARK    1  A    between atoms: C_1  and  C_2
REMARK    2  A    between atoms: C_4  and  C_5
REMARK    3  A    between atoms: C_7  and  C_8
REMARK    4  A    between atoms: C_8  and  C_9
REMARK    5  A    between atoms: C_8  and  C_10
REMARK    6  A    between atoms: N_12  and  C_13
REMARK    7  A    between atoms: C_16  and  C_17
REMARK    8  A    between atoms: C_21  and  C_22
REMARK                            x       y       z     vdW  Elec       q    Type
REMARK                         _______ _______ _______ _____ _____    ______ ____
ROOT
ATOM      1  C   UNL     1       2.549   4.739  18.021  0.00  0.00    +0.000 C 
ATOM      2  O   UNL     1       1.347   4.513  18.153  0.00  0.00    +0.000 OA
ATOM      3  N   UNL     1       3.150   5.963  18.277  0.00  0.00    +0.000 N 
ATOM      4  H   UNL     1       4.007   6.148  17.773  0.00  0.00    +0.000 HD
ENDROOT
BRANCH   3   5
ATOM      5  C   UNL     1       2.444   7.082  18.765  0.00  0.00    +0.000 A 
ATOM      6  C   UNL     1       2.050   7.203  20.098  0.00  0.00    +0.000 A 
ATOM      7  C   UNL     1       1.339   8.335  20.529  0.00  0.00    +0.000 A 
ATOM      8  C   UNL     1       0.987   9.365  19.639  0.00  0.00    +0.000 A 
ATOM      9  C   UNL     1       1.408   9.222  18.304  0.00  0.00    +0.000 A 
ATOM     10  C   UNL     1       2.148   8.111  17.876  0.00  0.00    +0.000 A 
BRANCH   8  11
ATOM     11  C   UNL     1       0.216  10.553  20.078  0.00  0.00    +0.000 A 
ATOM     12  C   UNL     1       0.007  11.650  19.233  0.00  0.00    +0.000 A 
ATOM     13  C   UNL     1      -0.747  12.723  19.681  0.00  0.00    +0.000 A 
ATOM     14  N   UNL     1      -1.314  12.789  20.903  0.00  0.00    +0.000 NA
ATOM     15  C   UNL     1      -1.115  11.739  21.727  0.00  0.00    +0.000 A 
ATOM     16  C   UNL     1      -1.761  11.792  23.080  0.00  0.00    +0.000 C 
ATOM     17  C   UNL     1      -0.358  10.626  21.358  0.00  0.00    +0.000 A 
ENDBRANCH   8  11
ENDBRANCH   3   5
BRANCH   1  18
ATOM     18  C   UNL     1       3.502   3.609  17.621  0.00  0.00    +0.000 C 
ATOM     19  C   UNL     1       3.465   2.541  18.719  0.00  0.00    +0.000 C 
BRANCH  18  26
ATOM     20  C   UNL     1       6.956   4.692  14.073  0.00  0.00    +0.000 C 
ATOM     21  C   UNL     1       6.581   4.602  15.523  0.00  0.00    +0.000 A 
ATOM     22  C   UNL     1       7.448   5.052  16.523  0.00  0.00    +0.000 A 
ATOM     23  C   UNL     1       7.073   4.990  17.868  0.00  0.00    +0.000 A 
ATOM     24  C   UNL     1       7.995   5.503  18.939  0.00  0.00    +0.000 C 
ATOM     25  C   UNL     1       5.808   4.480  18.209  0.00  0.00    +0.000 A 
ATOM     26  C   UNL     1       4.907   4.047  17.219  0.00  0.00    +0.000 A 
ATOM     27  C   UNL     1       5.324   4.093  15.880  0.00  0.00    +0.000 A 
ENDBRANCH  18  26
ENDBRANCH   1  18
TORSDOF 4
ENDMDL
MODEL 3
REMARK VINA RESULT:      -8.8      0.715      1.177
REMARK  Name = 
REMARK  8 active torsions:
REMARK  status: ('A' for Active; 'I' for Inactive)
REMARK    1  A    between atoms: C_1  and  C_2
REMARK    2  A    between atoms: C_4  and  C_5
REMARK    3  A    between atoms: C_7  and  C_8
REMARK    4  A    between atoms: C_8  and  C_9
REMARK    5  A    between atoms: C_8  and  C_10
REMARK    6  A    between atoms: N_12  and  C_13
REMARK    7  A    between atoms: C_16  and  C_17
REMARK    8  A    between atoms: C_21  and  C_22
REMARK                            x       y       z     vdW  Elec       q    Type
REMARK                         _______ _______ _______ _____ _____    ______ ____
ROOT
ATOM      1  C   UNL     1       2.489   4.753  17.759  0.00  0.00    +0.000 C 
ATOM      2  O   UNL     1       1.269   4.597  17.755  0.00  0.00    +0.000 OA
ATOM      3  N   UNL     1       3.136   5.865  18.276  0.00  0.00    +0.000 N 
ATOM      4  H   UNL     1       4.044   6.071  17.881  0.00  0.00    +0.000 HD
ENDROOT
BRANCH   3   5
ATOM      5  C   UNL     1       2.458   6.931  18.903  0.00  0.00    +0.000 A 
ATOM      6  C   UNL     1       2.071   6.895  20.243  0.00  0.00    +0.000 A 
ATOM      7  C   UNL     1       1.387   7.980  20.814  0.00  0.00    +0.000 A 
ATOM      8  C   UNL     1       1.055   9.119  20.060  0.00  0.00    +0.000 A 
ATOM      9  C   UNL     1       1.469   9.133  18.715  0.00  0.00    +0.000 A 
ATOM     10  C   UNL     1       2.181   8.068  18.149  0.00  0.00    +0.000 A 
BRANCH   8  11
ATOM     11  C   UNL     1       0.313  10.262  20.647  0.00  0.00    +0.000 A 
ATOM     12  C   UNL     1      -0.106  10.261  21.982  0.00  0.00    +0.000 A 
ATOM     13  C   UNL     1      -0.770  11.367  22.490  0.00  0.00    +0.000 A 
ATOM     14  N   UNL     1      -1.043  12.477  21.775  0.00  0.00    +0.000 NA
ATOM     15  C   UNL     1      -0.647  12.487  20.485  0.00  0.00    +0.000 A 
ATOM     16  C   UNL     1      -0.925  13.727  19.688  0.00  0.00    +0.000 C 
ATOM     17  C   UNL     1       0.015  11.409  19.893  0.00  0.00    +0.000 A 
ENDBRANCH   8  11
ENDBRANCH   3   5
BRANCH   1  18
ATOM     18  C   UNL     1       3.404   3.642  17.236  0.00  0.00    +0.000 C 
ATOM     19  C   UNL     1       3.308   2.451  18.194  0.00  0.00    +0.000 C 
BRANCH  18  26
ATOM     20  C   UNL     1       7.025   4.776  13.873  0.00  0.00    +0.000 C 
ATOM     21  C   UNL     1       6.587   4.648  15.302  0.00  0.00    +0.000 A 
ATOM     22  C   UNL     1       7.416   5.054  16.352  0.00  0.00    +0.000 A 
ATOM     23  C   UNL     1       6.981   4.958  17.678  0.00  0.00    +0.000 A 
ATOM     24  C   UNL     1       7.864   5.423  18.802  0.00  0.00    +0.000 C 
ATOM     25  C   UNL     1       5.696   4.458  17.948  0.00  0.00    +0.000 A 
ATOM     26  C   UNL     1       4.832   4.069  16.907  0.00  0.00    +0.000 A 
ATOM     27  C   UNL     1       5.307   4.150  15.590  0.00  0.00    +0.000 A 
ENDBRANCH  18  26
ENDBRANCH   1  18
TORSDOF 4
ENDMDL
MODEL 4
REMARK VINA RESULT:      -8.8      1.319      1.861
REMARK  Name = 
REMARK  8 active torsions:
REMARK  status: ('A' for Active; 'I' for Inactive)
REMARK    1  A    between atoms: C_1  and  C_2
REMARK    2  A    between atoms: C_4  and  C_5
REMARK    3  A    between atoms: C_7  and  C_8
REMARK    4  A    between atoms: C_8  and  C_9
REMARK    5  A    between atoms: C_8  and  C_10
REMARK    6  A    between atoms: N_12  and  C_13
REMARK    7  A    between atoms: C_16  and  C_17
REMARK    8  A    between atoms: C_21  and  C_22
REMARK                            x       y       z     vdW  Elec       q    Type
REMARK                         _______ _______ _______ _____ _____    ______ ____
ROOT
ATOM      1  C   UNL     1       2.551   4.711  18.581  0.00  0.00    +0.000 C 
ATOM      2  O   UNL     1       1.426   4.460  19.007  0.00  0.00    +0.000 OA
ATOM      3  N   UNL     1       3.087   5.987  18.487  0.00  0.00    +0.000 N 
ATOM      4  H   UNL     1       3.804   6.115  17.785  0.00  0.00    +0.000 HD
ENDROOT
BRANCH   3   5
ATOM      5  C   UNL     1       2.405   7.144  18.917  0.00  0.00    +0.000 A 
ATOM      6  C   UNL     1       2.003   7.335  20.239  0.00  0.00    +0.000 A 
ATOM      7  C   UNL     1       1.317   8.502  20.612  0.00  0.00    +0.000 A 
ATOM      8  C   UNL     1       0.997   9.499  19.672  0.00  0.00    +0.000 A 
ATOM      9  C   UNL     1       1.425   9.285  18.349  0.00  0.00    +0.000 A 
ATOM     10  C   UNL     1       2.141   8.138  17.979  0.00  0.00    +0.000 A 
BRANCH   8  11
ATOM     11  C   UNL     1       0.252  10.724  20.050  0.00  0.00    +0.000 A 
ATOM     12  C   UNL     1       0.852  11.757  20.781  0.00  0.00    +0.000 A 
ATOM     13  C   UNL     1       0.120  12.895  21.082  0.00  0.00    +0.000 A 
ATOM     14  N   UNL     1      -1.160  13.090  20.706  0.00  0.00    +0.000 NA
ATOM     15  C   UNL     1      -1.750  12.099  20.004  0.00  0.00    +0.000 A 
ATOM     16  C   UNL     1      -3.167  12.317  19.562  0.00  0.00    +0.000 C 
ATOM     17  C   UNL     1      -1.088  10.916  19.672  0.00  0.00    +0.000 A 
ENDBRANCH   8  11
ENDBRANCH   3   5
BRANCH   1  18
ATOM     18  C   UNL     1       3.493   3.571  18.184  0.00  0.00    +0.000 C 
ATOM     19  C   UNL     1       3.553   2.572  19.344  0.00  0.00    +0.000 C 
BRANCH  18  26
ATOM     20  C   UNL     1       6.687   4.430  14.341  0.00  0.00    +0.000 C 
ATOM     21  C   UNL     1       6.408   4.450  15.816  0.00  0.00    +0.000 A 
ATOM     22  C   UNL     1       7.325   4.996  16.718  0.00  0.00    +0.000 A 
ATOM     23  C   UNL     1       7.038   5.036  18.086  0.00  0.00    +0.000 A 
ATOM     24  C   UNL     1       8.014   5.652  19.049  0.00  0.00    +0.000 C 
ATOM     25  C   UNL     1       5.811   4.531  18.548  0.00  0.00    +0.000 A 
ATOM     26  C   UNL     1       4.859   4.002  17.656  0.00  0.00    +0.000 A 
ATOM     27  C   UNL     1       5.189   3.948  16.294  0.00  0.00    +0.000 A 
ENDBRANCH  18  26
ENDBRANCH   1  18
TORSDOF 4
ENDMDL
MODEL 5
REMARK VINA RESULT:      -8.7      0.343      1.962
REMARK  Name = 
REMARK  8 active torsions:
REMARK  status: ('A' for Active; 'I' for Inactive)
REMARK    1  A    between atoms: C_1  and  C_2
REMARK    2  A    between atoms: C_4  and  C_5
REMARK    3  A    between atoms: C_7  and  C_8
REMARK    4  A    between atoms: C_8  and  C_9
REMARK    5  A    between atoms: C_8  and  C_10
REMARK    6  A    between atoms: N_12  and  C_13
REMARK    7  A    between atoms: C_16  and  C_17
REMARK    8  A    between atoms: C_21  and  C_22
REMARK                            x       y       z     vdW  Elec       q    Type
REMARK                         _______ _______ _______ _____ _____    ______ ____
ROOT
ATOM      1  C   UNL     1       2.440   4.660  18.140  0.00  0.00    +0.000 C 
ATOM      2  O   UNL     1       1.328   4.290  18.512  0.00  0.00    +0.000 OA
ATOM      3  N   UNL     1       2.980   5.909  18.405  0.00  0.00    +0.000 N 
ATOM      4  H   UNL     1       3.674   6.240  17.747  0.00  0.00    +0.000 HD
ENDROOT
BRANCH   3   5
ATOM      5  C   UNL     1       2.321   6.887  19.180  0.00  0.00    +0.000 A 
ATOM      6  C   UNL     1       1.937   6.668  20.502  0.00  0.00    +0.000 A 
ATOM      7  C   UNL     1       1.272   7.673  21.225  0.00  0.00    +0.000 A 
ATOM      8  C   UNL     1       0.958   8.912  20.640  0.00  0.00    +0.000 A 
ATOM      9  C   UNL     1       1.368   9.109  19.309  0.00  0.00    +0.000 A 
ATOM     10  C   UNL     1       2.062   8.123  18.595  0.00  0.00    +0.000 A 
BRANCH   8  11
ATOM     11  C   UNL     1       0.236   9.972  21.386  0.00  0.00    +0.000 A 
ATOM     12  C   UNL     1      -0.490   9.691  22.549  0.00  0.00    +0.000 A 
ATOM     13  C   UNL     1      -1.122  10.724  23.225  0.00  0.00    +0.000 A 
ATOM     14  N   UNL     1      -1.081  12.015  22.839  0.00  0.00    +0.000 NA
ATOM     15  C   UNL     1      -0.387  12.296  21.717  0.00  0.00    +0.000 A 
ATOM     16  C   UNL     1      -0.316  13.733  21.291  0.00  0.00    +0.000 C 
ATOM     17  C   UNL     1       0.266  11.314  20.970  0.00  0.00    +0.000 A 
ENDBRANCH   8  11
ENDBRANCH   3   5
BRANCH   1  18
ATOM     18  C   UNL     1       3.360   3.690  17.393  0.00  0.00    +0.000 C 
ATOM     19  C   UNL     1       3.380   2.363  18.159  0.00  0.00    +0.000 C 
BRANCH  18  26
ATOM     20  C   UNL     1       7.911   5.434  18.787  0.00  0.00    +0.000 C 
ATOM     21  C   UNL     1       6.956   5.051  17.695  0.00  0.00    +0.000 A 
ATOM     22  C   UNL     1       7.355   5.041  16.356  0.00  0.00    +0.000 A 
ATOM     23  C   UNL     1       6.463   4.652  15.352  0.00  0.00    +0.000 A 
ATOM     24  C   UNL     1       6.904   4.613  13.916  0.00  0.00    +0.000 C 
ATOM     25  C   UNL     1       5.160   4.259  15.702  0.00  0.00    +0.000 A 
ATOM     26  C   UNL     1       4.743   4.233  17.046  0.00  0.00    +0.000 A 
ATOM     27  C   UNL     1       5.651   4.658  18.027  0.00  0.00    +0.000 A 
ENDBRANCH  18  26
ENDBRANCH   1  18
TORSDOF 4
ENDMDL
MODEL 6
REMARK VINA RESULT:      -8.7      1.324      2.594
REMARK  Name = 
REMARK  8 active torsions:
REMARK  status: ('A' for Active; 'I' for Inactive)
REMARK    1  A    between atoms: C_1  and  C_2
REMARK    2  A    between atoms: C_4  and  C_5
REMARK    3  A    between atoms: C_7  and  C_8
REMARK    4  A    between atoms: C_8  and  C_9
REMARK    5  A    between atoms: C_8  and  C_10
REMARK    6  A    between atoms: N_12  and  C_13
REMARK    7  A    between atoms: C_16  and  C_17
REMARK    8  A    between atoms: C_21  and  C_22
REMARK                            x       y       z     vdW  Elec       q    Type
REMARK                         _______ _______ _______ _____ _____    ______ ____
ROOT
ATOM      1  C   UNL     1       2.439   4.889  18.798  0.00  0.00    +0.000 C 
ATOM      2  O   UNL     1       1.295   4.630  19.168  0.00  0.00    +0.000 OA
ATOM      3  N   UNL     1       2.960   6.170  18.702  0.00  0.00    +0.000 N 
ATOM      4  H   UNL     1       3.713   6.292  18.037  0.00  0.00    +0.000 HD
ENDROOT
BRANCH   3   5
ATOM      5  C   UNL     1       2.239   7.327  19.064  0.00  0.00    +0.000 A 
ATOM      6  C   UNL     1       1.838   7.586  20.375  0.00  0.00    +0.000 A 
ATOM      7  C   UNL     1       1.111   8.748  20.679  0.00  0.00    +0.000 A 
ATOM      8  C   UNL     1       0.750   9.671  19.682  0.00  0.00    +0.000 A 
ATOM      9  C   UNL     1       1.178   9.391  18.372  0.00  0.00    +0.000 A 
ATOM     10  C   UNL     1       1.933   8.250  18.068  0.00  0.00    +0.000 A 
BRANCH   8  11
ATOM     11  C   UNL     1      -0.037  10.891  19.988  0.00  0.00    +0.000 A 
ATOM     12  C   UNL     1      -0.175  11.931  19.062  0.00  0.00    +0.000 A 
ATOM     13  C   UNL     1      -0.947  13.036  19.386  0.00  0.00    +0.000 A 
ATOM     14  N   UNL     1      -1.599  13.184  20.558  0.00  0.00    +0.000 NA
ATOM     15  C   UNL     1      -1.469  12.188  21.460  0.00  0.00    +0.000 A 
ATOM     16  C   UNL     1      -2.208  12.333  22.757  0.00  0.00    +0.000 C 
ATOM     17  C   UNL     1      -0.700  11.049  21.217  0.00  0.00    +0.000 A 
ENDBRANCH   8  11
ENDBRANCH   3   5
BRANCH   1  18
ATOM     18  C   UNL     1       3.417   3.754  18.483  0.00  0.00    +0.000 C 
ATOM     19  C   UNL     1       3.559   2.881  19.734  0.00  0.00    +0.000 C 
BRANCH  18  26
ATOM     20  C   UNL     1       8.146   5.523  18.942  0.00  0.00    +0.000 C 
ATOM     21  C   UNL     1       7.040   5.011  18.067  0.00  0.00    +0.000 A 
ATOM     22  C   UNL     1       7.245   4.779  16.704  0.00  0.00    +0.000 A 
ATOM     23  C   UNL     1       6.214   4.271  15.907  0.00  0.00    +0.000 A 
ATOM     24  C   UNL     1       6.446   3.994  14.448  0.00  0.00    +0.000 C 
ATOM     25  C   UNL     1       4.967   3.986  16.491  0.00  0.00    +0.000 A 
ATOM     26  C   UNL     1       4.745   4.185  17.866  0.00  0.00    +0.000 A 
ATOM     27  C   UNL     1       5.790   4.723  18.633  0.00  0.00    +0.000 A 
ENDBRANCH  18  26
ENDBRANCH   1  18
TORSDOF 4
ENDMDL
MODEL 7
REMARK VINA RESULT:      -8.6      1.570      2.020
REMARK  Name = 
REMARK  8 active torsions:
REMARK  status: ('A' for Active; 'I' for Inactive)
REMARK    1  A    between atoms: C_1  and  C_2
REMARK    2  A    between atoms: C_4  and  C_5
REMARK    3  A    between atoms: C_7  and  C_8
REMARK    4  A    between atoms: C_8  and  C_9
REMARK    5  A    between atoms: C_8  and  C_10
REMARK    6  A    between atoms: N_12  and  C_13
REMARK    7  A    between atoms: C_16  and  C_17
REMARK    8  A    between atoms: C_21  and  C_22
REMARK                            x       y       z     vdW  Elec       q    Type
REMARK                         _______ _______ _______ _____ _____    ______ ____
ROOT
ATOM      1  C   UNL     1       2.464   4.885  18.825  0.00  0.00    +0.000 C 
ATOM      2  O   UNL     1       1.292   4.690  19.143  0.00  0.00    +0.000 OA
ATOM      3  N   UNL     1       3.034   6.139  18.665  0.00  0.00    +0.000 N 
ATOM      4  H   UNL     1       3.828   6.186  18.040  0.00  0.00    +0.000 HD
ENDROOT
BRANCH   3   5
ATOM      5  C   UNL     1       2.333   7.341  18.895  0.00  0.00    +0.000 A 
ATOM      6  C   UNL     1       1.869   7.714  20.156  0.00  0.00    +0.000 A 
ATOM      7  C   UNL     1       1.166   8.917  20.328  0.00  0.00    +0.000 A 
ATOM      8  C   UNL     1       0.893   9.770  19.244  0.00  0.00    +0.000 A 
ATOM      9  C   UNL     1       1.383   9.374  17.986  0.00  0.00    +0.000 A 
ATOM     10  C   UNL     1       2.115   8.192  17.815  0.00  0.00    +0.000 A 
BRANCH   8  11
ATOM     11  C   UNL     1       0.132  11.032  19.409  0.00  0.00    +0.000 A 
ATOM     12  C   UNL     1      -1.264  11.043  19.513  0.00  0.00    +0.000 A 
ATOM     13  C   UNL     1      -1.925  12.248  19.697  0.00  0.00    +0.000 A 
ATOM     14  N   UNL     1      -1.306  13.442  19.792  0.00  0.00    +0.000 NA
ATOM     15  C   UNL     1       0.040  13.443  19.689  0.00  0.00    +0.000 A 
ATOM     16  C   UNL     1       0.740  14.763  19.817  0.00  0.00    +0.000 C 
ATOM     17  C   UNL     1       0.780  12.276  19.490  0.00  0.00    +0.000 A 
ENDBRANCH   8  11
ENDBRANCH   3   5
BRANCH   1  18
ATOM     18  C   UNL     1       3.419   3.700  18.656  0.00  0.00    +0.000 C 
ATOM     19  C   UNL     1       3.540   2.985  20.006  0.00  0.00    +0.000 C 
BRANCH  18  26
ATOM     20  C   UNL     1       6.362   4.035  14.542  0.00  0.00    +0.000 C 
ATOM     21  C   UNL     1       6.186   4.221  16.020  0.00  0.00    +0.000 A 
ATOM     22  C   UNL     1       7.178   4.828  16.795  0.00  0.00    +0.000 A 
ATOM     23  C   UNL     1       6.987   5.024  18.167  0.00  0.00    +0.000 A 
ATOM     24  C   UNL     1       8.043   5.704  18.992  0.00  0.00    +0.000 C 
ATOM     25  C   UNL     1       5.781   4.613  18.761  0.00  0.00    +0.000 A 
ATOM     26  C   UNL     1       4.757   4.025  17.996  0.00  0.00    +0.000 A 
ATOM     27  C   UNL     1       4.989   3.815  16.629  0.00  0.00    +0.000 A 
ENDBRANCH  18  26
ENDBRANCH   1  18
TORSDOF 4
ENDMDL
MODEL 8
REMARK VINA RESULT:      -8.6      1.241      2.361
REMARK  Name = 
REMARK  8 active torsions:
REMARK  status: ('A' for Active; 'I' for Inactive)
REMARK    1  A    between atoms: C_1  and  C_2
REMARK    2  A    between atoms: C_4  and  C_5
REMARK    3  A    between atoms: C_7  and  C_8
REMARK    4  A    between atoms: C_8  and  C_9
REMARK    5  A    between atoms: C_8  and  C_10
REMARK    6  A    between atoms: N_12  and  C_13
REMARK    7  A    between atoms: C_16  and  C_17
REMARK    8  A    between atoms: C_21  and  C_22
REMARK                            x       y       z     vdW  Elec       q    Type
REMARK                         _______ _______ _______ _____ _____    ______ ____
ROOT
ATOM      1  C   UNL     1       2.462   5.015  18.422  0.00  0.00    +0.000 C 
ATOM      2  O   UNL     1       1.258   4.777  18.487  0.00  0.00    +0.000 OA
ATOM      3  N   UNL     1       3.022   6.275  18.577  0.00  0.00    +0.000 N 
ATOM      4  H   UNL     1       3.913   6.422  18.121  0.00  0.00    +0.000 HD
ENDROOT
BRANCH   3   5
ATOM      5  C   UNL     1       2.262   7.426  18.875  0.00  0.00    +0.000 A 
ATOM      6  C   UNL     1       1.896   8.359  17.905  0.00  0.00    +0.000 A 
ATOM      7  C   UNL     1       1.148   9.495  18.258  0.00  0.00    +0.000 A 
ATOM      8  C   UNL     1       0.763   9.736  19.589  0.00  0.00    +0.000 A 
ATOM      9  C   UNL     1       1.136   8.772  20.543  0.00  0.00    +0.000 A 
ATOM     10  C   UNL     1       1.852   7.621  20.190  0.00  0.00    +0.000 A 
BRANCH   8  11
ATOM     11  C   UNL     1      -0.007  10.943  19.977  0.00  0.00    +0.000 A 
ATOM     12  C   UNL     1      -0.522  11.828  19.023  0.00  0.00    +0.000 A 
ATOM     13  C   UNL     1      -1.261  12.925  19.438  0.00  0.00    +0.000 A 
ATOM     14  N   UNL     1      -1.534  13.207  20.728  0.00  0.00    +0.000 NA
ATOM     15  C   UNL     1      -1.037  12.363  21.656  0.00  0.00    +0.000 A 
ATOM     16  C   UNL     1      -1.354  12.656  23.093  0.00  0.00    +0.000 C 
ATOM     17  C   UNL     1      -0.273  11.244  21.324  0.00  0.00    +0.000 A 
ENDBRANCH   8  11
ENDBRANCH   3   5
BRANCH   1  18
ATOM     18  C   UNL     1       3.462   3.871  18.232  0.00  0.00    +0.000 C 
ATOM     19  C   UNL     1       3.507   3.054  19.527  0.00  0.00    +0.000 C 
BRANCH  18  26
ATOM     20  C   UNL     1       8.216   5.457  18.994  0.00  0.00    +0.000 C 
ATOM     21  C   UNL     1       7.140   5.015  18.046  0.00  0.00    +0.000 A 
ATOM     22  C   UNL     1       7.407   4.826  16.687  0.00  0.00    +0.000 A 
ATOM     23  C   UNL     1       6.402   4.384  15.821  0.00  0.00    +0.000 A 
ATOM     24  C   UNL     1       6.700   4.152  14.366  0.00  0.00    +0.000 C 
ATOM     25  C   UNL     1       5.118   4.121  16.330  0.00  0.00    +0.000 A 
ATOM     26  C   UNL     1       4.833   4.278  17.699  0.00  0.00    +0.000 A 
ATOM     27  C   UNL     1       5.853   4.750  18.538  0.00  0.00    +0.000 A 
ENDBRANCH  18  26
ENDBRANCH   1  18
TORSDOF 4
ENDMDL
MODEL 9
REMARK VINA RESULT:      -8.5      1.524      2.607
REMARK  Name = 
REMARK  8 active torsions:
REMARK  status: ('A' for Active; 'I' for Inactive)
REMARK    1  A    between atoms: C_1  and  C_2
REMARK    2  A    between atoms: C_4  and  C_5
REMARK    3  A    between atoms: C_7  and  C_8
REMARK    4  A    between atoms: C_8  and  C_9
REMARK    5  A    between atoms: C_8  and  C_10
REMARK    6  A    between atoms: N_12  and  C_13
REMARK    7  A    between atoms: C_16  and  C_17
REMARK    8  A    between atoms: C_21  and  C_22
REMARK                            x       y       z     vdW  Elec       q    Type
REMARK                         _______ _______ _______ _____ _____    ______ ____
ROOT
ATOM      1  C   UNL     1       2.429   5.043  18.882  0.00  0.00    +0.000 C 
ATOM      2  O   UNL     1       1.315   4.823  19.354  0.00  0.00    +0.000 OA
ATOM      3  N   UNL     1       2.932   6.308  18.615  0.00  0.00    +0.000 N 
ATOM      4  H   UNL     1       3.638   6.359  17.892  0.00  0.00    +0.000 HD
ENDROOT
BRANCH   3   5
ATOM      5  C   UNL     1       2.227   7.495  18.901  0.00  0.00    +0.000 A 
ATOM      6  C   UNL     1       1.809   7.834  20.188  0.00  0.00    +0.000 A 
ATOM      7  C   UNL     1       1.100   9.024  20.415  0.00  0.00    +0.000 A 
ATOM      8  C   UNL     1       0.773   9.897  19.362  0.00  0.00    +0.000 A 
ATOM      9  C   UNL     1       1.217   9.536  18.077  0.00  0.00    +0.000 A 
ATOM     10  C   UNL     1       1.955   8.367  17.850  0.00  0.00    +0.000 A 
BRANCH   8  11
ATOM     11  C   UNL     1       0.004  11.145  19.586  0.00  0.00    +0.000 A 
ATOM     12  C   UNL     1      -1.179  11.159  20.335  0.00  0.00    +0.000 A 
ATOM     13  C   UNL     1      -1.844  12.358  20.540  0.00  0.00    +0.000 A 
ATOM     14  N   UNL     1      -1.419  13.547  20.065  0.00  0.00    +0.000 NA
ATOM     15  C   UNL     1      -0.282  13.544  19.339  0.00  0.00    +0.000 A 
ATOM     16  C   UNL     1       0.211  14.865  18.826  0.00  0.00    +0.000 C 
ATOM     17  C   UNL     1       0.439  12.379  19.075  0.00  0.00    +0.000 A 
ENDBRANCH   8  11
ENDBRANCH   3   5
BRANCH   1  18
ATOM     18  C   UNL     1       3.394   3.883  18.624  0.00  0.00    +0.000 C 
ATOM     19  C   UNL     1       3.523   3.069  19.916  0.00  0.00    +0.000 C 
BRANCH  18  26
ATOM     20  C   UNL     1       8.162   5.560  19.012  0.00  0.00    +0.000 C 
ATOM     21  C   UNL     1       7.041   5.048  18.156  0.00  0.00    +0.000 A 
ATOM     22  C   UNL     1       7.234   4.772  16.800  0.00  0.00    +0.000 A 
ATOM     23  C   UNL     1       6.188   4.266  16.022  0.00  0.00    +0.000 A 
ATOM     24  C   UNL     1       6.407   3.942  14.571  0.00  0.00    +0.000 C 
ATOM     25  C   UNL     1       4.939   4.024  16.619  0.00  0.00    +0.000 A 
ATOM     26  C   UNL     1       4.728   4.267  17.989  0.00  0.00    +0.000 A 
ATOM     27  C   UNL     1       5.787   4.803  18.736  0.00  0.00    +0.000 A 
ENDBRANCH  18  26
ENDBRANCH   1  18
TORSDOF 4
ENDMDL
