MODEL 1
REMARK VINA RESULT:      -7.2      0.000      0.000
REMARK  Name = 
REMARK  9 active torsions:
REMARK  status: ('A' for Active; 'I' for Inactive)
REMARK    1  A    between atoms: C_1  and  C_2
REMARK    2  A    between atoms: C_2  and  C_3
REMARK    3  A    between atoms: C_2  and  C_4
REMARK    4  A    between atoms: C_2  and  C_5
REMARK    5  A    between atoms: C_8  and  C_9
REMARK    6  A    between atoms: C_9  and  N_10
REMARK    7  A    between atoms: N_10  and  C_11
REMARK    8  A    between atoms: C_14  and  C_15
REMARK    9  A    between atoms: C_15  and  O_17
REMARK                            x       y       z     vdW  Elec       q    Type
REMARK                         _______ _______ _______ _____ _____    ______ ____
ROOT
ATOM      1  N   UNL     1       4.452   5.073  19.567  0.00  0.00    +0.000 N 
ATOM      2  H   UNL     1       4.814   5.821  20.154  0.00  0.00    +0.000 HD
ENDROOT
BRANCH   1   3
ATOM      3  C   UNL     1       5.140   4.968  18.353  0.00  0.00    +0.000 A 
ATOM      4  C   UNL     1       4.668   4.072  17.384  0.00  0.00    +0.000 A 
ATOM      5  C   UNL     1       5.277   3.971  16.126  0.00  0.00    +0.000 A 
ATOM      6  C   UNL     1       6.360   4.790  15.803  0.00  0.00    +0.000 A 
ATOM      7  C   UNL     1       6.801   5.737  16.730  0.00  0.00    +0.000 A 
ATOM      8  C   UNL     1       6.189   5.822  17.989  0.00  0.00    +0.000 A 
BRANCH   6   9
ATOM      9  C   UNL     1       6.953   4.664  14.444  0.00  0.00    +0.000 C 
ATOM     10  O   UNL     1       7.767   5.457  14.003  0.00  0.00    +0.000 OA
BRANCH   9  11
ATOM     11  O   UNL     1       6.484   3.620  13.728  0.00  0.00    +0.000 OA
ATOM     12  H   UNL     1       6.975   3.420  12.911  0.00  0.00    +0.000 HD
ENDBRANCH   9  11
ENDBRANCH   6   9
ENDBRANCH   1   3
BRANCH   1  13
ATOM     13  C   UNL     1       2.993   5.044  19.557  0.00  0.00    +0.000 C 
BRANCH  13  17
ATOM     14  C   UNL     1       1.400   9.096  19.323  0.00  0.00    +0.000 A 
ATOM     15  C   UNL     1       1.334   8.347  20.510  0.00  0.00    +0.000 A 
ATOM     16  C   UNL     1       1.845   7.046  20.584  0.00  0.00    +0.000 A 
ATOM     17  C   UNL     1       2.446   6.449  19.472  0.00  0.00    +0.000 A 
ATOM     18  C   UNL     1       2.538   7.188  18.289  0.00  0.00    +0.000 A 
ATOM     19  C   UNL     1       2.026   8.490  18.217  0.00  0.00    +0.000 A 
BRANCH  14  21
ATOM     20  C   UNL     1       0.487  11.168  20.565  0.00  0.00    +0.000 C 
ATOM     21  C   UNL     1       0.791  10.504  19.201  0.00  0.00    +0.000 C 
ATOM     22  C   UNL     1      -0.544  10.413  18.430  0.00  0.00    +0.000 C 
ATOM     23  C   UNL     1       1.750  11.445  18.440  0.00  0.00    +0.000 C 
ENDBRANCH  14  21
ENDBRANCH  13  17
ENDBRANCH   1  13
TORSDOF 6
ENDMDL
MODEL 2
REMARK VINA RESULT:      -7.2      3.325      4.712
REMARK  Name = 
REMARK  9 active torsions:
REMARK  status: ('A' for Active; 'I' for Inactive)
REMARK    1  A    between atoms: C_1  and  C_2
REMARK    2  A    between atoms: C_2  and  C_3
REMARK    3  A    between atoms: C_2  and  C_4
REMARK    4  A    between atoms: C_2  and  C_5
REMARK    5  A    between atoms: C_8  and  C_9
REMARK    6  A    between atoms: C_9  and  N_10
REMARK    7  A    between atoms: N_10  and  C_11
REMARK    8  A    between atoms: C_14  and  C_15
REMARK    9  A    between atoms: C_15  and  O_17
REMARK                            x       y       z     vdW  Elec       q    Type
REMARK                         _______ _______ _______ _____ _____    ______ ____
ROOT
ATOM      1  N   UNL     1       7.452   5.878  16.342  0.00  0.00    +0.000 N 
ATOM      2  H   UNL     1       8.381   6.235  16.130  0.00  0.00    +0.000 HD
ENDROOT
BRANCH   1   3
ATOM      3  C   UNL     1       6.906   5.150  15.279  0.00  0.00    +0.000 A 
ATOM      4  C   UNL     1       7.465   5.297  14.002  0.00  0.00    +0.000 A 
ATOM      5  C   UNL     1       7.002   4.546  12.913  0.00  0.00    +0.000 A 
ATOM      6  C   UNL     1       5.983   3.608  13.090  0.00  0.00    +0.000 A 
ATOM      7  C   UNL     1       5.461   3.399  14.369  0.00  0.00    +0.000 A 
ATOM      8  C   UNL     1       5.926   4.163  15.448  0.00  0.00    +0.000 A 
BRANCH   6   9
ATOM      9  C   UNL     1       5.547   2.816  11.908  0.00  0.00    +0.000 C 
ATOM     10  O   UNL     1       4.471   2.984  11.361  0.00  0.00    +0.000 OA
BRANCH   9  11
ATOM     11  O   UNL     1       6.427   1.870  11.519  0.00  0.00    +0.000 OA
ATOM     12  H   UNL     1       6.636   1.861  10.567  0.00  0.00    +0.000 HD
ENDBRANCH   9  11
ENDBRANCH   6   9
ENDBRANCH   1   3
BRANCH   1  13
ATOM     13  C   UNL     1       6.625   6.874  17.015  0.00  0.00    +0.000 C 
BRANCH  13  17
ATOM     14  C   UNL     1       3.360   4.909  19.134  0.00  0.00    +0.000 A 
ATOM     15  C   UNL     1       4.703   4.670  19.468  0.00  0.00    +0.000 A 
ATOM     16  C   UNL     1       5.751   5.300  18.787  0.00  0.00    +0.000 A 
ATOM     17  C   UNL     1       5.491   6.198  17.749  0.00  0.00    +0.000 A 
ATOM     18  C   UNL     1       4.159   6.465  17.417  0.00  0.00    +0.000 A 
ATOM     19  C   UNL     1       3.112   5.832  18.100  0.00  0.00    +0.000 A 
BRANCH  14  21
ATOM     20  C   UNL     1       2.650   3.074  20.806  0.00  0.00    +0.000 C 
ATOM     21  C   UNL     1       2.195   4.182  19.829  0.00  0.00    +0.000 C 
ATOM     22  C   UNL     1       1.308   3.510  18.757  0.00  0.00    +0.000 C 
ATOM     23  C   UNL     1       1.339   5.180  20.638  0.00  0.00    +0.000 C 
ENDBRANCH  14  21
ENDBRANCH  13  17
ENDBRANCH   1  13
TORSDOF 6
ENDMDL
MODEL 3
REMARK VINA RESULT:      -7.2      3.484      4.810
REMARK  Name = 
REMARK  9 active torsions:
REMARK  status: ('A' for Active; 'I' for Inactive)
REMARK    1  A    between atoms: C_1  and  C_2
REMARK    2  A    between atoms: C_2  and  C_3
REMARK    3  A    between atoms: C_2  and  C_4
REMARK    4  A    between atoms: C_2  and  C_5
REMARK    5  A    between atoms: C_8  and  C_9
REMARK    6  A    between atoms: C_9  and  N_10
REMARK    7  A    between atoms: N_10  and  C_11
REMARK    8  A    between atoms: C_14  and  C_15
REMARK    9  A    between atoms: C_15  and  O_17
REMARK                            x       y       z     vdW  Elec       q    Type
REMARK                         _______ _______ _______ _____ _____    ______ ____
ROOT
ATOM      1  N   UNL     1       7.293   5.667  16.656  0.00  0.00    +0.000 N 
ATOM      2  H   UNL     1       8.231   6.060  16.610  0.00  0.00    +0.000 HD
ENDROOT
BRANCH   1   3
ATOM      3  C   UNL     1       6.942   4.987  15.484  0.00  0.00    +0.000 A 
ATOM      4  C   UNL     1       5.949   4.000  15.547  0.00  0.00    +0.000 A 
ATOM      5  C   UNL     1       5.511   3.333  14.395  0.00  0.00    +0.000 A 
ATOM      6  C   UNL     1       6.043   3.663  13.148  0.00  0.00    +0.000 A 
ATOM      7  C   UNL     1       6.984   4.691  13.057  0.00  0.00    +0.000 A 
ATOM      8  C   UNL     1       7.421   5.345  14.217  0.00  0.00    +0.000 A 
BRANCH   6   9
ATOM      9  C   UNL     1       5.523   2.945  11.952  0.00  0.00    +0.000 C 
ATOM     10  O   UNL     1       4.512   3.288  11.364  0.00  0.00    +0.000 OA
BRANCH   9  11
ATOM     11  O   UNL     1       6.244   1.861  11.599  0.00  0.00    +0.000 OA
ATOM     12  H   UNL     1       5.724   1.072  11.363  0.00  0.00    +0.000 HD
ENDBRANCH   9  11
ENDBRANCH   6   9
ENDBRANCH   1   3
BRANCH   1  13
ATOM     13  C   UNL     1       6.338   6.599  17.245  0.00  0.00    +0.000 C 
BRANCH  13  17
ATOM     14  C   UNL     1       3.183   4.398  19.297  0.00  0.00    +0.000 A 
ATOM     15  C   UNL     1       4.540   4.180  19.586  0.00  0.00    +0.000 A 
ATOM     16  C   UNL     1       5.552   4.886  18.926  0.00  0.00    +0.000 A 
ATOM     17  C   UNL     1       5.242   5.842  17.955  0.00  0.00    +0.000 A 
ATOM     18  C   UNL     1       3.895   6.087  17.670  0.00  0.00    +0.000 A 
ATOM     19  C   UNL     1       2.884   5.378  18.331  0.00  0.00    +0.000 A 
BRANCH  14  21
ATOM     20  C   UNL     1       1.386   2.564  19.023  0.00  0.00    +0.000 C 
ATOM     21  C   UNL     1       2.056   3.591  19.965  0.00  0.00    +0.000 C 
ATOM     22  C   UNL     1       0.953   4.561  20.444  0.00  0.00    +0.000 C 
ATOM     23  C   UNL     1       2.600   2.806  21.180  0.00  0.00    +0.000 C 
ENDBRANCH  14  21
ENDBRANCH  13  17
ENDBRANCH   1  13
TORSDOF 6
ENDMDL
MODEL 4
REMARK VINA RESULT:      -7.2      3.586      4.888
REMARK  Name = 
REMARK  9 active torsions:
REMARK  status: ('A' for Active; 'I' for Inactive)
REMARK    1  A    between atoms: C_1  and  C_2
REMARK    2  A    between atoms: C_2  and  C_3
REMARK    3  A    between atoms: C_2  and  C_4
REMARK    4  A    between atoms: C_2  and  C_5
REMARK    5  A    between atoms: C_8  and  C_9
REMARK    6  A    between atoms: C_9  and  N_10
REMARK    7  A    between atoms: N_10  and  C_11
REMARK    8  A    between atoms: C_14  and  C_15
REMARK    9  A    between atoms: C_15  and  O_17
REMARK                            x       y       z     vdW  Elec       q    Type
REMARK                         _______ _______ _______ _____ _____    ______ ____
ROOT
ATOM      1  N   UNL     1       7.305   5.571  16.699  0.00  0.00    +0.000 N 
ATOM      2  H   UNL     1       8.235   5.980  16.657  0.00  0.00    +0.000 HD
ENDROOT
BRANCH   1   3
ATOM      3  C   UNL     1       6.957   4.917  15.511  0.00  0.00    +0.000 A 
ATOM      4  C   UNL     1       5.996   3.898  15.559  0.00  0.00    +0.000 A 
ATOM      5  C   UNL     1       5.560   3.252  14.394  0.00  0.00    +0.000 A 
ATOM      6  C   UNL     1       6.062   3.636  13.149  0.00  0.00    +0.000 A 
ATOM      7  C   UNL     1       6.970   4.696  13.076  0.00  0.00    +0.000 A 
ATOM      8  C   UNL     1       7.404   5.328  14.249  0.00  0.00    +0.000 A 
BRANCH   6   9
ATOM      9  C   UNL     1       5.547   2.939  11.940  0.00  0.00    +0.000 C 
ATOM     10  O   UNL     1       4.516   3.267  11.377  0.00  0.00    +0.000 OA
BRANCH   9  11
ATOM     11  O   UNL     1       6.297   1.890  11.542  0.00  0.00    +0.000 OA
ATOM     12  H   UNL     1       6.405   1.795  10.579  0.00  0.00    +0.000 HD
ENDBRANCH   9  11
ENDBRANCH   6   9
ENDBRANCH   1   3
BRANCH   1  13
ATOM     13  C   UNL     1       6.339   6.474  17.317  0.00  0.00    +0.000 C 
BRANCH  13  17
ATOM     14  C   UNL     1       3.183   4.198  19.286  0.00  0.00    +0.000 A 
ATOM     15  C   UNL     1       2.893   5.164  18.309  0.00  0.00    +0.000 A 
ATOM     16  C   UNL     1       3.906   5.895  17.678  0.00  0.00    +0.000 A 
ATOM     17  C   UNL     1       5.249   5.681  18.000  0.00  0.00    +0.000 A 
ATOM     18  C   UNL     1       5.557   4.707  18.955  0.00  0.00    +0.000 A 
ATOM     19  C   UNL     1       4.541   3.977  19.585  0.00  0.00    +0.000 A 
BRANCH  14  21
ATOM     20  C   UNL     1       2.560   2.805  21.369  0.00  0.00    +0.000 C 
ATOM     21  C   UNL     1       2.082   3.426  20.036  0.00  0.00    +0.000 C 
ATOM     22  C   UNL     1       1.580   2.268  19.145  0.00  0.00    +0.000 C 
ATOM     23  C   UNL     1       0.897   4.359  20.367  0.00  0.00    +0.000 C 
ENDBRANCH  14  21
ENDBRANCH  13  17
ENDBRANCH   1  13
TORSDOF 6
ENDMDL
MODEL 5
REMARK VINA RESULT:      -7.1      1.228      1.872
REMARK  Name = 
REMARK  9 active torsions:
REMARK  status: ('A' for Active; 'I' for Inactive)
REMARK    1  A    between atoms: C_1  and  C_2
REMARK    2  A    between atoms: C_2  and  C_3
REMARK    3  A    between atoms: C_2  and  C_4
REMARK    4  A    between atoms: C_2  and  C_5
REMARK    5  A    between atoms: C_8  and  C_9
REMARK    6  A    between atoms: C_9  and  N_10
REMARK    7  A    between atoms: N_10  and  C_11
REMARK    8  A    between atoms: C_14  and  C_15
REMARK    9  A    between atoms: C_15  and  O_17
REMARK                            x       y       z     vdW  Elec       q    Type
REMARK                         _______ _______ _______ _____ _____    ______ ____
ROOT
ATOM      1  N   UNL     1       2.712   5.537  18.471  0.00  0.00    +0.000 N 
ATOM      2  H   UNL     1       2.282   4.696  18.849  0.00  0.00    +0.000 HD
ENDROOT
BRANCH   1   3
ATOM      3  C   UNL     1       3.647   5.254  17.469  0.00  0.00    +0.000 A 
ATOM      4  C   UNL     1       4.388   6.310  16.919  0.00  0.00    +0.000 A 
ATOM      5  C   UNL     1       5.382   6.080  15.959  0.00  0.00    +0.000 A 
ATOM      6  C   UNL     1       5.673   4.778  15.549  0.00  0.00    +0.000 A 
ATOM      7  C   UNL     1       4.993   3.709  16.135  0.00  0.00    +0.000 A 
ATOM      8  C   UNL     1       3.994   3.952  17.088  0.00  0.00    +0.000 A 
BRANCH   6   9
ATOM      9  C   UNL     1       6.758   4.585  14.548  0.00  0.00    +0.000 C 
ATOM     10  O   UNL     1       7.727   5.321  14.474  0.00  0.00    +0.000 OA
BRANCH   9  11
ATOM     11  O   UNL     1       6.558   3.550  13.706  0.00  0.00    +0.000 OA
ATOM     12  H   UNL     1       7.297   2.920  13.636  0.00  0.00    +0.000 HD
ENDBRANCH   9  11
ENDBRANCH   6   9
ENDBRANCH   1   3
BRANCH   1  13
ATOM     13  C   UNL     1       3.068   6.486  19.522  0.00  0.00    +0.000 C 
BRANCH  13  17
ATOM     14  C   UNL     1       0.411   9.940  19.389  0.00  0.00    +0.000 A 
ATOM     15  C   UNL     1       0.617   9.216  20.575  0.00  0.00    +0.000 A 
ATOM     16  C   UNL     1       1.469   8.106  20.616  0.00  0.00    +0.000 A 
ATOM     17  C   UNL     1       2.151   7.685  19.472  0.00  0.00    +0.000 A 
ATOM     18  C   UNL     1       1.974   8.407  18.288  0.00  0.00    +0.000 A 
ATOM     19  C   UNL     1       1.119   9.517  18.249  0.00  0.00    +0.000 A 
BRANCH  14  21
ATOM     20  C   UNL     1       0.063  12.410  18.721  0.00  0.00    +0.000 C 
ATOM     21  C   UNL     1      -0.568  11.125  19.306  0.00  0.00    +0.000 C 
ATOM     22  C   UNL     1      -1.070  11.468  20.726  0.00  0.00    +0.000 C 
ATOM     23  C   UNL     1      -1.778  10.766  18.415  0.00  0.00    +0.000 C 
ENDBRANCH  14  21
ENDBRANCH  13  17
ENDBRANCH   1  13
TORSDOF 6
ENDMDL
MODEL 6
REMARK VINA RESULT:      -7.1      0.386      1.231
REMARK  Name = 
REMARK  9 active torsions:
REMARK  status: ('A' for Active; 'I' for Inactive)
REMARK    1  A    between atoms: C_1  and  C_2
REMARK    2  A    between atoms: C_2  and  C_3
REMARK    3  A    between atoms: C_2  and  C_4
REMARK    4  A    between atoms: C_2  and  C_5
REMARK    5  A    between atoms: C_8  and  C_9
REMARK    6  A    between atoms: C_9  and  N_10
REMARK    7  A    between atoms: N_10  and  C_11
REMARK    8  A    between atoms: C_14  and  C_15
REMARK    9  A    between atoms: C_15  and  O_17
REMARK                            x       y       z     vdW  Elec       q    Type
REMARK                         _______ _______ _______ _____ _____    ______ ____
ROOT
ATOM      1  N   UNL     1       4.405   5.529  19.581  0.00  0.00    +0.000 N 
ATOM      2  H   UNL     1       4.744   6.358  20.063  0.00  0.00    +0.000 HD
ENDROOT
BRANCH   1   3
ATOM      3  C   UNL     1       5.069   5.306  18.369  0.00  0.00    +0.000 A 
ATOM      4  C   UNL     1       4.431   4.545  17.379  0.00  0.00    +0.000 A 
ATOM      5  C   UNL     1       5.019   4.344  16.123  0.00  0.00    +0.000 A 
ATOM      6  C   UNL     1       6.251   4.928  15.824  0.00  0.00    +0.000 A 
ATOM      7  C   UNL     1       6.868   5.745  16.773  0.00  0.00    +0.000 A 
ATOM      8  C   UNL     1       6.275   5.931  18.029  0.00  0.00    +0.000 A 
BRANCH   6   9
ATOM      9  C   UNL     1       6.819   4.707  14.466  0.00  0.00    +0.000 C 
ATOM     10  O   UNL     1       6.445   3.809  13.732  0.00  0.00    +0.000 OA
BRANCH   9  11
ATOM     11  O   UNL     1       7.809   5.562  14.133  0.00  0.00    +0.000 OA
ATOM     12  H   UNL     1       8.677   5.371  14.531  0.00  0.00    +0.000 HD
ENDBRANCH   9  11
ENDBRANCH   6   9
ENDBRANCH   1   3
BRANCH   1  13
ATOM     13  C   UNL     1       2.949   5.435  19.616  0.00  0.00    +0.000 C 
BRANCH  13  17
ATOM     14  C   UNL     1       1.172   9.415  19.497  0.00  0.00    +0.000 A 
ATOM     15  C   UNL     1       1.120   8.620  20.654  0.00  0.00    +0.000 A 
ATOM     16  C   UNL     1       1.689   7.343  20.691  0.00  0.00    +0.000 A 
ATOM     17  C   UNL     1       2.338   6.815  19.571  0.00  0.00    +0.000 A 
ATOM     18  C   UNL     1       2.417   7.601  18.417  0.00  0.00    +0.000 A 
ATOM     19  C   UNL     1       1.846   8.880  18.383  0.00  0.00    +0.000 A 
BRANCH  14  21
ATOM     20  C   UNL     1       1.360  11.862  18.695  0.00  0.00    +0.000 C 
ATOM     21  C   UNL     1       0.500  10.797  19.414  0.00  0.00    +0.000 C 
ATOM     22  C   UNL     1       0.231  11.316  20.844  0.00  0.00    +0.000 C 
ATOM     23  C   UNL     1      -0.840  10.703  18.651  0.00  0.00    +0.000 C 
ENDBRANCH  14  21
ENDBRANCH  13  17
ENDBRANCH   1  13
TORSDOF 6
ENDMDL
MODEL 7
REMARK VINA RESULT:      -7.1      0.166      1.584
REMARK  Name = 
REMARK  9 active torsions:
REMARK  status: ('A' for Active; 'I' for Inactive)
REMARK    1  A    between atoms: C_1  and  C_2
REMARK    2  A    between atoms: C_2  and  C_3
REMARK    3  A    between atoms: C_2  and  C_4
REMARK    4  A    between atoms: C_2  and  C_5
REMARK    5  A    between atoms: C_8  and  C_9
REMARK    6  A    between atoms: C_9  and  N_10
REMARK    7  A    between atoms: N_10  and  C_11
REMARK    8  A    between atoms: C_14  and  C_15
REMARK    9  A    between atoms: C_15  and  O_17
REMARK                            x       y       z     vdW  Elec       q    Type
REMARK                         _______ _______ _______ _____ _____    ______ ____
ROOT
ATOM      1  N   UNL     1       4.579   5.155  19.482  0.00  0.00    +0.000 N 
ATOM      2  H   UNL     1       4.929   5.930  20.040  0.00  0.00    +0.000 HD
ENDROOT
BRANCH   1   3
ATOM      3  C   UNL     1       5.234   5.048  18.250  0.00  0.00    +0.000 A 
ATOM      4  C   UNL     1       4.773   4.105  17.320  0.00  0.00    +0.000 A 
ATOM      5  C   UNL     1       5.347   3.997  16.047  0.00  0.00    +0.000 A 
ATOM      6  C   UNL     1       6.381   4.854  15.668  0.00  0.00    +0.000 A 
ATOM      7  C   UNL     1       6.807   5.844  16.556  0.00  0.00    +0.000 A 
ATOM      8  C   UNL     1       6.232   5.937  17.830  0.00  0.00    +0.000 A 
BRANCH   6   9
ATOM      9  C   UNL     1       6.937   4.717  14.294  0.00  0.00    +0.000 C 
ATOM     10  O   UNL     1       6.565   3.857  13.514  0.00  0.00    +0.000 OA
BRANCH   9  11
ATOM     11  O   UNL     1       7.914   5.600  14.000  0.00  0.00    +0.000 OA
ATOM     12  H   UNL     1       8.480   5.861  14.749  0.00  0.00    +0.000 HD
ENDBRANCH   9  11
ENDBRANCH   6   9
ENDBRANCH   1   3
BRANCH   1  13
ATOM     13  C   UNL     1       3.123   5.070  19.518  0.00  0.00    +0.000 C 
BRANCH  13  17
ATOM     14  C   UNL     1       1.390   9.058  19.193  0.00  0.00    +0.000 A 
ATOM     15  C   UNL     1       1.955   8.408  18.083  0.00  0.00    +0.000 A 
ATOM     16  C   UNL     1       2.512   7.129  18.188  0.00  0.00    +0.000 A 
ATOM     17  C   UNL     1       2.519   6.450  19.410  0.00  0.00    +0.000 A 
ATOM     18  C   UNL     1       1.942   7.073  20.521  0.00  0.00    +0.000 A 
ATOM     19  C   UNL     1       1.385   8.354  20.412  0.00  0.00    +0.000 A 
BRANCH  14  21
ATOM     20  C   UNL     1      -0.492  10.592  18.314  0.00  0.00    +0.000 C 
ATOM     21  C   UNL     1       0.827  10.488  19.114  0.00  0.00    +0.000 C 
ATOM     22  C   UNL     1       1.859  11.400  18.414  0.00  0.00    +0.000 C 
ATOM     23  C   UNL     1       0.545  11.037  20.529  0.00  0.00    +0.000 C 
ENDBRANCH  14  21
ENDBRANCH  13  17
ENDBRANCH   1  13
TORSDOF 6
ENDMDL
MODEL 8
REMARK VINA RESULT:      -7.1      1.178      1.886
REMARK  Name = 
REMARK  9 active torsions:
REMARK  status: ('A' for Active; 'I' for Inactive)
REMARK    1  A    between atoms: C_1  and  C_2
REMARK    2  A    between atoms: C_2  and  C_3
REMARK    3  A    between atoms: C_2  and  C_4
REMARK    4  A    between atoms: C_2  and  C_5
REMARK    5  A    between atoms: C_8  and  C_9
REMARK    6  A    between atoms: C_9  and  N_10
REMARK    7  A    between atoms: N_10  and  C_11
REMARK    8  A    between atoms: C_14  and  C_15
REMARK    9  A    between atoms: C_15  and  O_17
REMARK                            x       y       z     vdW  Elec       q    Type
REMARK                         _______ _______ _______ _____ _____    ______ ____
ROOT
ATOM      1  N   UNL     1       2.757   5.516  18.511  0.00  0.00    +0.000 N 
ATOM      2  H   UNL     1       2.334   4.633  18.787  0.00  0.00    +0.000 HD
ENDROOT
BRANCH   1   3
ATOM      3  C   UNL     1       3.776   5.348  17.567  0.00  0.00    +0.000 A 
ATOM      4  C   UNL     1       4.089   4.052  17.135  0.00  0.00    +0.000 A 
ATOM      5  C   UNL     1       5.055   3.828  16.144  0.00  0.00    +0.000 A 
ATOM      6  C   UNL     1       5.709   4.905  15.545  0.00  0.00    +0.000 A 
ATOM      7  C   UNL     1       5.361   6.206  15.915  0.00  0.00    +0.000 A 
ATOM      8  C   UNL     1       4.400   6.418  16.913  0.00  0.00    +0.000 A 
BRANCH   6   9
ATOM      9  C   UNL     1       6.705   4.615  14.479  0.00  0.00    +0.000 C 
ATOM     10  O   UNL     1       7.698   5.299  14.299  0.00  0.00    +0.000 OA
BRANCH   9  11
ATOM     11  O   UNL     1       6.396   3.554  13.704  0.00  0.00    +0.000 OA
ATOM     12  H   UNL     1       6.285   3.748  12.756  0.00  0.00    +0.000 HD
ENDBRANCH   9  11
ENDBRANCH   6   9
ENDBRANCH   1   3
BRANCH   1  13
ATOM     13  C   UNL     1       2.991   6.389  19.657  0.00  0.00    +0.000 C 
BRANCH  13  17
ATOM     14  C   UNL     1       0.448   9.921  19.394  0.00  0.00    +0.000 A 
ATOM     15  C   UNL     1       1.187   9.463  18.292  0.00  0.00    +0.000 A 
ATOM     16  C   UNL     1       2.004   8.330  18.377  0.00  0.00    +0.000 A 
ATOM     17  C   UNL     1       2.106   7.610  19.570  0.00  0.00    +0.000 A 
ATOM     18  C   UNL     1       1.361   8.040  20.672  0.00  0.00    +0.000 A 
ATOM     19  C   UNL     1       0.544   9.175  20.584  0.00  0.00    +0.000 A 
BRANCH  14  21
ATOM     20  C   UNL     1       0.347  12.429  18.788  0.00  0.00    +0.000 C 
ATOM     21  C   UNL     1      -0.409  11.199  19.341  0.00  0.00    +0.000 C 
ATOM     22  C   UNL     1      -0.877  11.554  20.770  0.00  0.00    +0.000 C 
ATOM     23  C   UNL     1      -1.646  10.983  18.443  0.00  0.00    +0.000 C 
ENDBRANCH  14  21
ENDBRANCH  13  17
ENDBRANCH   1  13
TORSDOF 6
ENDMDL
MODEL 9
REMARK VINA RESULT:      -7.1      3.504      4.932
REMARK  Name = 
REMARK  9 active torsions:
REMARK  status: ('A' for Active; 'I' for Inactive)
REMARK    1  A    between atoms: C_1  and  C_2
REMARK    2  A    between atoms: C_2  and  C_3
REMARK    3  A    between atoms: C_2  and  C_4
REMARK    4  A    between atoms: C_2  and  C_5
REMARK    5  A    between atoms: C_8  and  C_9
REMARK    6  A    between atoms: C_9  and  N_10
REMARK    7  A    between atoms: N_10  and  C_11
REMARK    8  A    between atoms: C_14  and  C_15
REMARK    9  A    between atoms: C_15  and  O_17
REMARK                            x       y       z     vdW  Elec       q    Type
REMARK                         _______ _______ _______ _____ _____    ______ ____
ROOT
ATOM      1  N   UNL     1       7.095   5.859  16.420  0.00  0.00    +0.000 N 
ATOM      2  H   UNL     1       7.977   6.357  16.321  0.00  0.00    +0.000 HD
ENDROOT
BRANCH   1   3
ATOM      3  C   UNL     1       6.790   5.087  15.293  0.00  0.00    +0.000 A 
ATOM      4  C   UNL     1       5.630   4.301  15.308  0.00  0.00    +0.000 A 
ATOM      5  C   UNL     1       5.239   3.558  14.185  0.00  0.00    +0.000 A 
ATOM      6  C   UNL     1       5.993   3.611  13.012  0.00  0.00    +0.000 A 
ATOM      7  C   UNL     1       7.114   4.442  12.957  0.00  0.00    +0.000 A 
ATOM      8  C   UNL     1       7.500   5.173  14.089  0.00  0.00    +0.000 A 
BRANCH   6   9
ATOM      9  C   UNL     1       5.519   2.826  11.839  0.00  0.00    +0.000 C 
ATOM     10  O   UNL     1       4.457   3.045  11.283  0.00  0.00    +0.000 OA
BRANCH   9  11
ATOM     11  O   UNL     1       6.348   1.828  11.468  0.00  0.00    +0.000 OA
ATOM     12  H   UNL     1       6.849   1.984  10.648  0.00  0.00    +0.000 HD
ENDBRANCH   9  11
ENDBRANCH   6   9
ENDBRANCH   1   3
BRANCH   1  13
ATOM     13  C   UNL     1       6.055   6.701  17.002  0.00  0.00    +0.000 C 
BRANCH  13  17
ATOM     14  C   UNL     1       3.248   4.247  19.262  0.00  0.00    +0.000 A 
ATOM     15  C   UNL     1       4.636   4.053  19.356  0.00  0.00    +0.000 A 
ATOM     16  C   UNL     1       5.536   4.841  18.630  0.00  0.00    +0.000 A 
ATOM     17  C   UNL     1       5.079   5.856  17.785  0.00  0.00    +0.000 A 
ATOM     18  C   UNL     1       3.701   6.076  17.695  0.00  0.00    +0.000 A 
ATOM     19  C   UNL     1       2.802   5.286  18.423  0.00  0.00    +0.000 A 
BRANCH  14  21
ATOM     20  C   UNL     1       2.748   2.845  21.372  0.00  0.00    +0.000 C 
ATOM     21  C   UNL     1       2.238   3.353  20.004  0.00  0.00    +0.000 C 
ATOM     22  C   UNL     1       1.931   2.110  19.139  0.00  0.00    +0.000 C 
ATOM     23  C   UNL     1       0.925   4.123  20.264  0.00  0.00    +0.000 C 
ENDBRANCH  14  21
ENDBRANCH  13  17
ENDBRANCH   1  13
TORSDOF 6
ENDMDL
