MODEL 1
REMARK VINA RESULT:      -6.2      0.000      0.000
REMARK  Name = 
REMARK  5 active torsions:
REMARK  status: ('A' for Active; 'I' for Inactive)
REMARK    1  A    between atoms: C_2  and  OXT_3
REMARK    2  A    between atoms: C_2  and  CA_4
REMARK    3  A    between atoms: C_6  and  N_7
REMARK    4  A    between atoms: C_8  and  S_9
REMARK    5  A    between atoms: N_10  and  C_11
REMARK                            x       y       z     vdW  Elec       q    Type
REMARK                         _______ _______ _______ _____ _____    ______ ____
ROOT
ATOM      1  CA  UNL     1       1.391  14.754  20.347  0.00  0.00    +0.000 C 
ATOM      2  C   UNL     1       1.054  13.679  19.335  0.00  0.00    +0.000 C 
ATOM      3  C   UNL     1       0.712  12.345  20.032  0.00  0.00    +0.000 C 
ATOM      4  C   UNL     1      -0.076  12.591  21.316  0.00  0.00    +0.000 A 
ATOM      5  C   UNL     1      -0.495  11.533  22.137  0.00  0.00    +0.000 A 
ATOM      6 CL   UNL     1       0.289   9.995  22.108  0.00  0.00    +0.000 Cl
ATOM      7  C   UNL     1      -1.515  11.717  23.069  0.00  0.00    +0.000 A 
ATOM      8  C   UNL     1      -2.105  12.968  23.195  0.00  0.00    +0.000 A 
ATOM      9 CL   UNL     1      -3.451  13.174  24.246  0.00  0.00    +0.000 Cl
ATOM     10  C   UNL     1      -1.576  14.065  22.520  0.00  0.00    +0.000 A 
ATOM     11  C   UNL     1      -0.510  13.893  21.629  0.00  0.00    +0.000 A 
ATOM     12  N   UNL     1       0.214  15.031  21.211  0.00  0.00    +0.000 N 
ATOM     13  H   UNL     1      -0.409  15.755  20.848  0.00  0.00    +0.000 HD
ENDROOT
BRANCH   3  14
ATOM     14  N   UNL     1      -0.144  11.645  19.078  0.00  0.00    +0.000 NA
ATOM     15  C   UNL     1       0.053  10.557  18.450  0.00  0.00    +0.000 C 
ATOM     16  N   UNL     1      -0.819   9.962  17.572  0.00  0.00    +0.000 N 
ATOM     17  H   UNL     1      -0.488   9.091  17.177  0.00  0.00    +0.000 HD
BRANCH  16  18
ATOM     18  C   UNL     1      -2.089  10.375  17.122  0.00  0.00    +0.000 A 
ATOM     19  C   UNL     1      -2.532  10.240  15.805  0.00  0.00    +0.000 A 
ATOM     20  C   UNL     1      -3.811  10.660  15.419  0.00  0.00    +0.000 A 
ATOM     21  C   UNL     1      -4.674  11.220  16.350  0.00  0.00    +0.000 A 
ATOM     22  C   UNL     1      -4.255  11.374  17.665  0.00  0.00    +0.000 A 
ATOM     23  C   UNL     1      -2.976  10.953  18.045  0.00  0.00    +0.000 A 
ENDBRANCH  16  18
BRANCH  15  24
ATOM     24  S   UNL     1       1.521   9.594  18.582  0.00  0.00    +0.000 S 
ATOM     25  H   UNL     1       1.081   8.749  19.521  0.00  0.00    +0.000 HD
ENDBRANCH  15  24
ENDBRANCH   3  14
BRANCH   1  27
ATOM     26  O   UNL     1       3.571  13.724  20.801  0.00  0.00    +0.000 OA
ATOM     27  C   UNL     1       2.615  14.372  21.200  0.00  0.00    +0.000 C 
BRANCH  27  28
ATOM     28  OXT UNL     1       2.525  14.860  22.464  0.00  0.00    +0.000 OA
ATOM     29  HXT UNL     1       3.445  14.940  22.811  0.00  0.00    +0.000 HD
ENDBRANCH  27  28
ENDBRANCH   1  27
TORSDOF 5
ENDMDL
MODEL 2
REMARK VINA RESULT:      -6.1      0.209      1.167
REMARK  Name = 
REMARK  5 active torsions:
REMARK  status: ('A' for Active; 'I' for Inactive)
REMARK    1  A    between atoms: C_2  and  OXT_3
REMARK    2  A    between atoms: C_2  and  CA_4
REMARK    3  A    between atoms: C_6  and  N_7
REMARK    4  A    between atoms: C_8  and  S_9
REMARK    5  A    between atoms: N_10  and  C_11
REMARK                            x       y       z     vdW  Elec       q    Type
REMARK                         _______ _______ _______ _____ _____    ______ ____
ROOT
ATOM      1  CA  UNL     1       1.386  14.902  20.454  0.00  0.00    +0.000 C 
ATOM      2  C   UNL     1       1.048  13.827  19.443  0.00  0.00    +0.000 C 
ATOM      3  C   UNL     1       0.694  12.497  20.140  0.00  0.00    +0.000 C 
ATOM      4  C   UNL     1      -0.099  12.750  21.419  0.00  0.00    +0.000 A 
ATOM      5  C   UNL     1      -0.528  11.696  22.241  0.00  0.00    +0.000 A 
ATOM      6 CL   UNL     1       0.247  10.153  22.219  0.00  0.00    +0.000 Cl
ATOM      7  C   UNL     1      -1.552  11.888  23.167  0.00  0.00    +0.000 A 
ATOM      8  C   UNL     1      -2.135  13.142  23.287  0.00  0.00    +0.000 A 
ATOM      9 CL   UNL     1      -3.485  13.358  24.332  0.00  0.00    +0.000 Cl
ATOM     10  C   UNL     1      -1.596  14.235  22.613  0.00  0.00    +0.000 A 
ATOM     11  C   UNL     1      -0.527  14.055  21.729  0.00  0.00    +0.000 A 
ATOM     12  N   UNL     1       0.206  15.188  21.312  0.00  0.00    +0.000 N 
ATOM     13  H   UNL     1      -0.410  15.915  20.944  0.00  0.00    +0.000 HD
ENDROOT
BRANCH   3  14
ATOM     14  N   UNL     1      -0.161  11.799  19.183  0.00  0.00    +0.000 NA
ATOM     15  C   UNL     1       0.084  10.785  18.456  0.00  0.00    +0.000 C 
ATOM     16  N   UNL     1      -0.790  10.185  17.585  0.00  0.00    +0.000 N 
ATOM     17  H   UNL     1      -0.415   9.381  17.100  0.00  0.00    +0.000 HD
BRANCH  16  18
ATOM     18  C   UNL     1      -2.117  10.518  17.246  0.00  0.00    +0.000 A 
ATOM     19  C   UNL     1      -3.026  11.099  18.133  0.00  0.00    +0.000 A 
ATOM     20  C   UNL     1      -4.330  11.417  17.735  0.00  0.00    +0.000 A 
ATOM     21  C   UNL     1      -4.748  11.164  16.437  0.00  0.00    +0.000 A 
ATOM     22  C   UNL     1      -3.866  10.578  15.537  0.00  0.00    +0.000 A 
ATOM     23  C   UNL     1      -2.564  10.261  15.939  0.00  0.00    +0.000 A 
ENDBRANCH  16  18
BRANCH  15  24
ATOM     24  S   UNL     1       1.634   9.949  18.422  0.00  0.00    +0.000 S 
ATOM     25  H   UNL     1       1.177   8.740  18.762  0.00  0.00    +0.000 HD
ENDBRANCH  15  24
ENDBRANCH   3  14
BRANCH   1  27
ATOM     26  O   UNL     1       2.687  14.678  22.522  0.00  0.00    +0.000 OA
ATOM     27  C   UNL     1       2.604  14.515  21.314  0.00  0.00    +0.000 C 
BRANCH  27  28
ATOM     28  OXT UNL     1       3.587  13.944  20.573  0.00  0.00    +0.000 OA
ATOM     29  HXT UNL     1       4.085  14.676  20.137  0.00  0.00    +0.000 HD
ENDBRANCH  27  28
ENDBRANCH   1  27
TORSDOF 5
ENDMDL
MODEL 3
REMARK VINA RESULT:      -6.0      7.861      9.994
REMARK  Name = 
REMARK  5 active torsions:
REMARK  status: ('A' for Active; 'I' for Inactive)
REMARK    1  A    between atoms: C_2  and  OXT_3
REMARK    2  A    between atoms: C_2  and  CA_4
REMARK    3  A    between atoms: C_6  and  N_7
REMARK    4  A    between atoms: C_8  and  S_9
REMARK    5  A    between atoms: N_10  and  C_11
REMARK                            x       y       z     vdW  Elec       q    Type
REMARK                         _______ _______ _______ _____ _____    ______ ____
ROOT
ATOM      1  CA  UNL     1       2.029   7.587  17.543  0.00  0.00    +0.000 C 
ATOM      2  C   UNL     1       3.342   7.503  16.793  0.00  0.00    +0.000 C 
ATOM      3  C   UNL     1       4.389   6.696  17.591  0.00  0.00    +0.000 C 
ATOM      4  C   UNL     1       3.734   5.518  18.306  0.00  0.00    +0.000 A 
ATOM      5  C   UNL     1       4.477   4.637  19.109  0.00  0.00    +0.000 A 
ATOM      6 CL   UNL     1       5.985   5.100  19.809  0.00  0.00    +0.000 Cl
ATOM      7  C   UNL     1       3.976   3.379  19.436  0.00  0.00    +0.000 A 
ATOM      8  C   UNL     1       2.720   3.004  18.976  0.00  0.00    +0.000 A 
ATOM      9 CL   UNL     1       2.148   1.408  19.262  0.00  0.00    +0.000 Cl
ATOM     10  C   UNL     1       1.901   3.932  18.338  0.00  0.00    +0.000 A 
ATOM     11  C   UNL     1       2.380   5.218  18.063  0.00  0.00    +0.000 A 
ATOM     12  N   UNL     1       1.453   6.227  17.720  0.00  0.00    +0.000 N 
ATOM     13  H   UNL     1       0.845   5.930  16.956  0.00  0.00    +0.000 HD
ENDROOT
BRANCH   3  14
ATOM     14  N   UNL     1       5.304   6.183  16.575  0.00  0.00    +0.000 NA
ATOM     15  C   UNL     1       6.565   6.312  16.472  0.00  0.00    +0.000 C 
ATOM     16  N   UNL     1       7.353   5.782  15.480  0.00  0.00    +0.000 N 
ATOM     17  H   UNL     1       8.340   5.986  15.574  0.00  0.00    +0.000 HD
BRANCH  16  18
ATOM     18  C   UNL     1       7.009   5.017  14.348  0.00  0.00    +0.000 A 
ATOM     19  C   UNL     1       5.992   4.060  14.333  0.00  0.00    +0.000 A 
ATOM     20  C   UNL     1       5.688   3.337  13.173  0.00  0.00    +0.000 A 
ATOM     21  C   UNL     1       6.394   3.565  12.001  0.00  0.00    +0.000 A 
ATOM     22  C   UNL     1       7.417   4.505  11.991  0.00  0.00    +0.000 A 
ATOM     23  C   UNL     1       7.717   5.224  13.153  0.00  0.00    +0.000 A 
ENDBRANCH  16  18
BRANCH  15  24
ATOM     24  S   UNL     1       7.558   7.226  17.603  0.00  0.00    +0.000 S 
ATOM     25  H   UNL     1       6.817   8.338  17.613  0.00  0.00    +0.000 HD
ENDBRANCH  15  24
ENDBRANCH   3  14
BRANCH   1  27
ATOM     26  O   UNL     1       2.113   7.740  19.990  0.00  0.00    +0.000 OA
ATOM     27  C   UNL     1       2.191   8.291  18.903  0.00  0.00    +0.000 C 
BRANCH  27  28
ATOM     28  OXT UNL     1       2.455   9.615  18.760  0.00  0.00    +0.000 OA
ATOM     29  HXT UNL     1       2.811   9.936  19.622  0.00  0.00    +0.000 HD
ENDBRANCH  27  28
ENDBRANCH   1  27
TORSDOF 5
ENDMDL
MODEL 4
REMARK VINA RESULT:      -6.0      1.492      2.011
REMARK  Name = 
REMARK  5 active torsions:
REMARK  status: ('A' for Active; 'I' for Inactive)
REMARK    1  A    between atoms: C_2  and  OXT_3
REMARK    2  A    between atoms: C_2  and  CA_4
REMARK    3  A    between atoms: C_6  and  N_7
REMARK    4  A    between atoms: C_8  and  S_9
REMARK    5  A    between atoms: N_10  and  C_11
REMARK                            x       y       z     vdW  Elec       q    Type
REMARK                         _______ _______ _______ _____ _____    ______ ____
ROOT
ATOM      1  CA  UNL     1      -0.285  15.449  21.371  0.00  0.00    +0.000 C 
ATOM      2  C   UNL     1      -0.198  14.279  20.413  0.00  0.00    +0.000 C 
ATOM      3  C   UNL     1      -0.528  12.950  21.125  0.00  0.00    +0.000 C 
ATOM      4  C   UNL     1      -1.651  13.145  22.141  0.00  0.00    +0.000 A 
ATOM      5  C   UNL     1      -2.125  12.083  22.928  0.00  0.00    +0.000 A 
ATOM      6 CL   UNL     1      -1.162  10.685  23.243  0.00  0.00    +0.000 Cl
ATOM      7  C   UNL     1      -3.369  12.160  23.551  0.00  0.00    +0.000 A 
ATOM      8  C   UNL     1      -4.134  13.310  23.405  0.00  0.00    +0.000 A 
ATOM      9 CL   UNL     1      -5.723  13.366  24.061  0.00  0.00    +0.000 Cl
ATOM     10  C   UNL     1      -3.598  14.435  22.784  0.00  0.00    +0.000 A 
ATOM     11  C   UNL     1      -2.323  14.379  22.210  0.00  0.00    +0.000 A 
ATOM     12  N   UNL     1      -1.675  15.590  21.881  0.00  0.00    +0.000 N 
ATOM     13  H   UNL     1      -2.271  16.187  21.306  0.00  0.00    +0.000 HD
ENDROOT
BRANCH   3  14
ATOM     14  N   UNL     1      -1.002  12.073  20.058  0.00  0.00    +0.000 NA
ATOM     15  C   UNL     1      -0.577  10.933  19.689  0.00  0.00    +0.000 C 
ATOM     16  N   UNL     1      -1.093  10.168  18.672  0.00  0.00    +0.000 N 
ATOM     17  H   UNL     1      -0.625   9.282  18.534  0.00  0.00    +0.000 HD
BRANCH  16  18
ATOM     18  C   UNL     1      -2.157  10.424  17.785  0.00  0.00    +0.000 A 
ATOM     19  C   UNL     1      -3.277  11.193  18.110  0.00  0.00    +0.000 A 
ATOM     20  C   UNL     1      -4.299  11.421  17.181  0.00  0.00    +0.000 A 
ATOM     21  C   UNL     1      -4.216  10.888  15.903  0.00  0.00    +0.000 A 
ATOM     22  C   UNL     1      -3.117  10.111  15.556  0.00  0.00    +0.000 A 
ATOM     23  C   UNL     1      -2.099   9.885  16.489  0.00  0.00    +0.000 A 
ENDBRANCH  16  18
BRANCH  15  24
ATOM     24  S   UNL     1       0.795  10.108  20.422  0.00  0.00    +0.000 S 
ATOM     25  H   UNL     1       1.449   9.832  19.289  0.00  0.00    +0.000 HD
ENDBRANCH  15  24
ENDBRANCH   3  14
BRANCH   1  27
ATOM     26  O   UNL     1       1.827  14.819  22.447  0.00  0.00    +0.000 OA
ATOM     27  C   UNL     1       0.712  15.310  22.536  0.00  0.00    +0.000 C 
BRANCH  27  28
ATOM     28  OXT UNL     1       0.214  15.818  23.693  0.00  0.00    +0.000 OA
ATOM     29  HXT UNL     1       0.605  16.717  23.807  0.00  0.00    +0.000 HD
ENDBRANCH  27  28
ENDBRANCH   1  27
TORSDOF 5
ENDMDL
MODEL 5
REMARK VINA RESULT:      -6.0      2.396      3.101
REMARK  Name = 
REMARK  5 active torsions:
REMARK  status: ('A' for Active; 'I' for Inactive)
REMARK    1  A    between atoms: C_2  and  OXT_3
REMARK    2  A    between atoms: C_2  and  CA_4
REMARK    3  A    between atoms: C_6  and  N_7
REMARK    4  A    between atoms: C_8  and  S_9
REMARK    5  A    between atoms: N_10  and  C_11
REMARK                            x       y       z     vdW  Elec       q    Type
REMARK                         _______ _______ _______ _____ _____    ______ ____
ROOT
ATOM      1  CA  UNL     1       3.004  14.158  19.238  0.00  0.00    +0.000 C 
ATOM      2  C   UNL     1       2.133  12.918  19.205  0.00  0.00    +0.000 C 
ATOM      3  C   UNL     1       0.861  13.108  20.057  0.00  0.00    +0.000 C 
ATOM      4  C   UNL     1       0.329  14.532  19.928  0.00  0.00    +0.000 A 
ATOM      5  C   UNL     1      -0.816  14.957  20.620  0.00  0.00    +0.000 A 
ATOM      6 CL   UNL     1      -1.363  14.157  22.049  0.00  0.00    +0.000 Cl
ATOM      7  C   UNL     1      -1.509  16.097  20.217  0.00  0.00    +0.000 A 
ATOM      8  C   UNL     1      -1.044  16.828  19.131  0.00  0.00    +0.000 A 
ATOM      9 CL   UNL     1      -1.961  18.160  18.544  0.00  0.00    +0.000 Cl
ATOM     10  C   UNL     1       0.186  16.524  18.555  0.00  0.00    +0.000 A 
ATOM     11  C   UNL     1       0.914  15.414  19.000  0.00  0.00    +0.000 A 
ATOM     12  N   UNL     1       2.276  15.310  18.643  0.00  0.00    +0.000 N 
ATOM     13  H   UNL     1       2.406  15.409  17.635  0.00  0.00    +0.000 HD
ENDROOT
BRANCH   3  14
ATOM     14  N   UNL     1      -0.110  12.185  19.474  0.00  0.00    +0.000 NA
ATOM     15  C   UNL     1      -0.444  11.014  19.838  0.00  0.00    +0.000 C 
ATOM     16  N   UNL     1      -1.382  10.215  19.230  0.00  0.00    +0.000 N 
ATOM     17  H   UNL     1      -1.518   9.316  19.672  0.00  0.00    +0.000 HD
BRANCH  16  18
ATOM     18  C   UNL     1      -2.170  10.441  18.085  0.00  0.00    +0.000 A 
ATOM     19  C   UNL     1      -1.909   9.878  16.834  0.00  0.00    +0.000 A 
ATOM     20  C   UNL     1      -2.736  10.131  15.733  0.00  0.00    +0.000 A 
ATOM     21  C   UNL     1      -3.848  10.950  15.866  0.00  0.00    +0.000 A 
ATOM     22  C   UNL     1      -4.127  11.529  17.098  0.00  0.00    +0.000 A 
ATOM     23  C   UNL     1      -3.296  11.274  18.194  0.00  0.00    +0.000 A 
ENDBRANCH  16  18
BRANCH  15  24
ATOM     24  S   UNL     1       0.259  10.171  21.215  0.00  0.00    +0.000 S 
ATOM     25  H   UNL     1       1.490  10.033  20.714  0.00  0.00    +0.000 HD
ENDBRANCH  15  24
ENDBRANCH   3  14
BRANCH   1  27
ATOM     26  O   UNL     1       3.573  13.677  21.575  0.00  0.00    +0.000 OA
ATOM     27  C   UNL     1       3.472  14.488  20.667  0.00  0.00    +0.000 C 
BRANCH  27  28
ATOM     28  OXT UNL     1       3.785  15.801  20.807  0.00  0.00    +0.000 OA
ATOM     29  HXT UNL     1       4.123  16.115  19.934  0.00  0.00    +0.000 HD
ENDBRANCH  27  28
ENDBRANCH   1  27
TORSDOF 5
ENDMDL
MODEL 6
REMARK VINA RESULT:      -5.9      2.443      3.318
REMARK  Name = 
REMARK  5 active torsions:
REMARK  status: ('A' for Active; 'I' for Inactive)
REMARK    1  A    between atoms: C_2  and  OXT_3
REMARK    2  A    between atoms: C_2  and  CA_4
REMARK    3  A    between atoms: C_6  and  N_7
REMARK    4  A    between atoms: C_8  and  S_9
REMARK    5  A    between atoms: N_10  and  C_11
REMARK                            x       y       z     vdW  Elec       q    Type
REMARK                         _______ _______ _______ _____ _____    ______ ____
ROOT
ATOM      1  CA  UNL     1       2.958  14.357  19.372  0.00  0.00    +0.000 C 
ATOM      2  C   UNL     1       2.099  13.109  19.356  0.00  0.00    +0.000 C 
ATOM      3  C   UNL     1       0.798  13.316  20.159  0.00  0.00    +0.000 C 
ATOM      4  C   UNL     1       0.259  14.730  19.962  0.00  0.00    +0.000 A 
ATOM      5  C   UNL     1      -0.912  15.168  20.601  0.00  0.00    +0.000 A 
ATOM      6 CL   UNL     1      -1.498  14.415  22.039  0.00  0.00    +0.000 Cl
ATOM      7  C   UNL     1      -1.601  16.286  20.134  0.00  0.00    +0.000 A 
ATOM      8  C   UNL     1      -1.107  16.982  19.038  0.00  0.00    +0.000 A 
ATOM      9 CL   UNL     1      -2.016  18.283  18.375  0.00  0.00    +0.000 Cl
ATOM     10  C   UNL     1       0.144  16.670  18.514  0.00  0.00    +0.000 A 
ATOM     11  C   UNL     1       0.866  15.584  19.022  0.00  0.00    +0.000 A 
ATOM     12  N   UNL     1       2.240  15.480  18.713  0.00  0.00    +0.000 N 
ATOM     13  H   UNL     1       2.402  15.544  17.707  0.00  0.00    +0.000 HD
ENDROOT
BRANCH   3  14
ATOM     14  N   UNL     1      -0.145  12.364  19.578  0.00  0.00    +0.000 NA
ATOM     15  C   UNL     1      -0.408  11.166  19.914  0.00  0.00    +0.000 C 
ATOM     16  N   UNL     1      -1.325  10.341  19.312  0.00  0.00    +0.000 N 
ATOM     17  H   UNL     1      -1.400   9.422  19.729  0.00  0.00    +0.000 HD
BRANCH  16  18
ATOM     18  C   UNL     1      -2.163  10.561  18.202  0.00  0.00    +0.000 A 
ATOM     19  C   UNL     1      -3.295  11.378  18.228  0.00  0.00    +0.000 A 
ATOM     20  C   UNL     1      -4.085  11.567  17.087  0.00  0.00    +0.000 A 
ATOM     21  C   UNL     1      -3.751  10.944  15.893  0.00  0.00    +0.000 A 
ATOM     22  C   UNL     1      -2.635  10.119  15.842  0.00  0.00    +0.000 A 
ATOM     23  C   UNL     1      -1.849   9.933  16.985  0.00  0.00    +0.000 A 
ENDBRANCH  16  18
BRANCH  15  24
ATOM     24  S   UNL     1       0.383  10.319  21.239  0.00  0.00    +0.000 S 
ATOM     25  H   UNL     1      -0.347   9.200  21.181  0.00  0.00    +0.000 HD
ENDBRANCH  15  24
ENDBRANCH   3  14
BRANCH   1  27
ATOM     26  O   UNL     1       3.426  15.885  21.234  0.00  0.00    +0.000 OA
ATOM     27  C   UNL     1       3.376  14.743  20.803  0.00  0.00    +0.000 C 
BRANCH  27  28
ATOM     28  OXT UNL     1       3.674  13.652  21.556  0.00  0.00    +0.000 OA
ATOM     29  HXT UNL     1       2.828  13.331  21.950  0.00  0.00    +0.000 HD
ENDBRANCH  27  28
ENDBRANCH   1  27
TORSDOF 5
ENDMDL
MODEL 7
REMARK VINA RESULT:      -5.8      8.027     11.006
REMARK  Name = 
REMARK  5 active torsions:
REMARK  status: ('A' for Active; 'I' for Inactive)
REMARK    1  A    between atoms: C_2  and  OXT_3
REMARK    2  A    between atoms: C_2  and  CA_4
REMARK    3  A    between atoms: C_6  and  N_7
REMARK    4  A    between atoms: C_8  and  S_9
REMARK    5  A    between atoms: N_10  and  C_11
REMARK                            x       y       z     vdW  Elec       q    Type
REMARK                         _______ _______ _______ _____ _____    ______ ____
ROOT
ATOM      1  CA  UNL     1       9.967  12.364  17.649  0.00  0.00    +0.000 C 
ATOM      2  C   UNL     1       8.892  12.566  18.696  0.00  0.00    +0.000 C 
ATOM      3  C   UNL     1       9.339  13.584  19.766  0.00  0.00    +0.000 C 
ATOM      4  C   UNL     1      10.143  14.717  19.134  0.00  0.00    +0.000 A 
ATOM      5  C   UNL     1      10.674  15.764  19.904  0.00  0.00    +0.000 A 
ATOM      6 CL   UNL     1      10.968  15.587  21.596  0.00  0.00    +0.000 Cl
ATOM      7  C   UNL     1      11.058  16.962  19.306  0.00  0.00    +0.000 A 
ATOM      8  C   UNL     1      10.931  17.109  17.931  0.00  0.00    +0.000 A 
ATOM      9 CL   UNL     1      11.279  18.627  17.200  0.00  0.00    +0.000 Cl
ATOM     10  C   UNL     1      10.582  16.020  17.138  0.00  0.00    +0.000 A 
ATOM     11  C   UNL     1      10.255  14.796  17.733  0.00  0.00    +0.000 A 
ATOM     12  N   UNL     1      10.223  13.637  16.926  0.00  0.00    +0.000 N 
ATOM     13  H   UNL     1       9.634  13.774  16.102  0.00  0.00    +0.000 HD
ENDROOT
BRANCH   3  14
ATOM     14  N   UNL     1       8.092  14.128  20.297  0.00  0.00    +0.000 NA
ATOM     15  C   UNL     1       7.598  14.049  21.466  0.00  0.00    +0.000 C 
ATOM     16  N   UNL     1       6.413  14.604  21.882  0.00  0.00    +0.000 N 
ATOM     17  H   UNL     1       6.192  14.441  22.855  0.00  0.00    +0.000 HD
BRANCH  16  18
ATOM     18  C   UNL     1       5.453  15.349  21.170  0.00  0.00    +0.000 A 
ATOM     19  C   UNL     1       4.298  14.800  20.608  0.00  0.00    +0.000 A 
ATOM     20  C   UNL     1       3.373  15.594  19.920  0.00  0.00    +0.000 A 
ATOM     21  C   UNL     1       3.584  16.959  19.786  0.00  0.00    +0.000 A 
ATOM     22  C   UNL     1       4.729  17.530  20.328  0.00  0.00    +0.000 A 
ATOM     23  C   UNL     1       5.651  16.731  21.014  0.00  0.00    +0.000 A 
ENDBRANCH  16  18
BRANCH  15  24
ATOM     24  S   UNL     1       8.354  13.181  22.798  0.00  0.00    +0.000 S 
ATOM     25  H   UNL     1       9.451  12.791  22.141  0.00  0.00    +0.000 HD
ENDBRANCH  15  24
ENDBRANCH   3  14
BRANCH   1  27
ATOM     26  O   UNL     1      11.353  11.281  19.360  0.00  0.00    +0.000 OA
ATOM     27  C   UNL     1      11.268  11.817  18.266  0.00  0.00    +0.000 C 
BRANCH  27  28
ATOM     28  OXT UNL     1      12.331  11.982  17.437  0.00  0.00    +0.000 OA
ATOM     29  HXT UNL     1      12.000  11.866  16.514  0.00  0.00    +0.000 HD
ENDBRANCH  27  28
ENDBRANCH   1  27
TORSDOF 5
ENDMDL
MODEL 8
REMARK VINA RESULT:      -5.8      8.841     11.015
REMARK  Name = 
REMARK  5 active torsions:
REMARK  status: ('A' for Active; 'I' for Inactive)
REMARK    1  A    between atoms: C_2  and  OXT_3
REMARK    2  A    between atoms: C_2  and  CA_4
REMARK    3  A    between atoms: C_6  and  N_7
REMARK    4  A    between atoms: C_8  and  S_9
REMARK    5  A    between atoms: N_10  and  C_11
REMARK                            x       y       z     vdW  Elec       q    Type
REMARK                         _______ _______ _______ _____ _____    ______ ____
ROOT
ATOM      1  CA  UNL     1      10.357  13.225  18.002  0.00  0.00    +0.000 C 
ATOM      2  C   UNL     1      10.374  13.393  19.507  0.00  0.00    +0.000 C 
ATOM      3  C   UNL     1       9.710  14.721  19.927  0.00  0.00    +0.000 C 
ATOM      4  C   UNL     1       8.504  15.027  19.044  0.00  0.00    +0.000 A 
ATOM      5  C   UNL     1       7.737  16.191  19.220  0.00  0.00    +0.000 A 
ATOM      6 CL   UNL     1       8.379  17.591  19.999  0.00  0.00    +0.000 Cl
ATOM      7  C   UNL     1       6.450  16.280  18.695  0.00  0.00    +0.000 A 
ATOM      8  C   UNL     1       5.932  15.211  17.974  0.00  0.00    +0.000 A 
ATOM      9 CL   UNL     1       4.300  15.258  17.434  0.00  0.00    +0.000 Cl
ATOM     10  C   UNL     1       6.745  14.132  17.637  0.00  0.00    +0.000 A 
ATOM     11  C   UNL     1       8.060  14.070  18.112  0.00  0.00    +0.000 A 
ATOM     12  N   UNL     1       8.956  13.159  17.510  0.00  0.00    +0.000 N 
ATOM     13  H   UNL     1       8.566  12.215  17.486  0.00  0.00    +0.000 HD
ENDROOT
BRANCH   3  14
ATOM     14  N   UNL     1       9.249  14.483  21.292  0.00  0.00    +0.000 NA
ATOM     15  C   UNL     1       9.597  15.041  22.381  0.00  0.00    +0.000 C 
ATOM     16  N   UNL     1       9.099  14.758  23.629  0.00  0.00    +0.000 N 
ATOM     17  H   UNL     1       9.493  15.316  24.374  0.00  0.00    +0.000 HD
BRANCH  16  18
ATOM     18  C   UNL     1       8.143  13.808  24.038  0.00  0.00    +0.000 A 
ATOM     19  C   UNL     1       8.388  12.435  24.113  0.00  0.00    +0.000 A 
ATOM     20  C   UNL     1       7.399  11.540  24.538  0.00  0.00    +0.000 A 
ATOM     21  C   UNL     1       6.144  12.004  24.902  0.00  0.00    +0.000 A 
ATOM     22  C   UNL     1       5.870  13.364  24.829  0.00  0.00    +0.000 A 
ATOM     23  C   UNL     1       6.862  14.255  24.403  0.00  0.00    +0.000 A 
ENDBRANCH  16  18
BRANCH  15  24
ATOM     24  S   UNL     1      10.819  16.303  22.495  0.00  0.00    +0.000 S 
ATOM     25  H   UNL     1      10.860  16.375  23.829  0.00  0.00    +0.000 HD
ENDBRANCH  15  24
ENDBRANCH   3  14
BRANCH   1  27
ATOM     26  O   UNL     1      11.775  15.222  17.859  0.00  0.00    +0.000 OA
ATOM     27  C   UNL     1      11.131  14.352  17.292  0.00  0.00    +0.000 C 
BRANCH  27  28
ATOM     28  OXT UNL     1      11.034  14.261  15.941  0.00  0.00    +0.000 OA
ATOM     29  HXT UNL     1      10.082  14.381  15.710  0.00  0.00    +0.000 HD
ENDBRANCH  27  28
ENDBRANCH   1  27
TORSDOF 5
ENDMDL
MODEL 9
REMARK VINA RESULT:      -5.7      1.107      1.400
REMARK  Name = 
REMARK  5 active torsions:
REMARK  status: ('A' for Active; 'I' for Inactive)
REMARK    1  A    between atoms: C_2  and  OXT_3
REMARK    2  A    between atoms: C_2  and  CA_4
REMARK    3  A    between atoms: C_6  and  N_7
REMARK    4  A    between atoms: C_8  and  S_9
REMARK    5  A    between atoms: N_10  and  C_11
REMARK                            x       y       z     vdW  Elec       q    Type
REMARK                         _______ _______ _______ _____ _____    ______ ____
ROOT
ATOM      1  CA  UNL     1       1.516  14.872  20.427  0.00  0.00    +0.000 C 
ATOM      2  C   UNL     1       1.131  13.591  19.716  0.00  0.00    +0.000 C 
ATOM      3  C   UNL     1       0.340  12.651  20.650  0.00  0.00    +0.000 C 
ATOM      4  C   UNL     1      -0.601  13.448  21.550  0.00  0.00    +0.000 A 
ATOM      5  C   UNL     1      -1.422  12.819  22.499  0.00  0.00    +0.000 A 
ATOM      6 CL   UNL     1      -1.052  11.253  23.125  0.00  0.00    +0.000 Cl
ATOM      7  C   UNL     1      -2.528  13.478  23.031  0.00  0.00    +0.000 A 
ATOM      8  C   UNL     1      -2.805  14.779  22.629  0.00  0.00    +0.000 A 
ATOM      9 CL   UNL     1      -4.238  15.555  23.178  0.00  0.00    +0.000 Cl
ATOM     10  C   UNL     1      -1.899  15.475  21.833  0.00  0.00    +0.000 A 
ATOM     11  C   UNL     1      -0.754  14.833  21.348  0.00  0.00    +0.000 A 
ATOM     12  N   UNL     1       0.296  15.621  20.828  0.00  0.00    +0.000 N 
ATOM     13  H   UNL     1      -0.043  16.273  20.120  0.00  0.00    +0.000 HD
ENDROOT
BRANCH   3  14
ATOM     14  N   UNL     1      -0.456  11.825  19.747  0.00  0.00    +0.000 NA
ATOM     15  C   UNL     1      -0.435  10.568  19.557  0.00  0.00    +0.000 C 
ATOM     16  N   UNL     1      -1.234   9.868  18.687  0.00  0.00    +0.000 N 
ATOM     17  H   UNL     1      -1.076   8.869  18.683  0.00  0.00    +0.000 HD
BRANCH  16  18
ATOM     18  C   UNL     1      -2.222  10.318  17.790  0.00  0.00    +0.000 A 
ATOM     19  C   UNL     1      -2.193  10.082  16.414  0.00  0.00    +0.000 A 
ATOM     20  C   UNL     1      -3.212  10.547  15.573  0.00  0.00    +0.000 A 
ATOM     21  C   UNL     1      -4.285  11.252  16.096  0.00  0.00    +0.000 A 
ATOM     22  C   UNL     1      -4.335  11.508  17.461  0.00  0.00    +0.000 A 
ATOM     23  C   UNL     1      -3.314  11.042  18.297  0.00  0.00    +0.000 A 
ENDBRANCH  16  18
BRANCH  15  24
ATOM     24  S   UNL     1       0.657   9.465  20.388  0.00  0.00    +0.000 S 
ATOM     25  H   UNL     1       1.713   9.641  19.587  0.00  0.00    +0.000 HD
ENDBRANCH  15  24
ENDBRANCH   3  14
BRANCH   1  27
ATOM     26  O   UNL     1       2.286  15.127  22.743  0.00  0.00    +0.000 OA
ATOM     27  C   UNL     1       2.415  14.599  21.648  0.00  0.00    +0.000 C 
BRANCH  27  28
ATOM     28  OXT UNL     1       3.374  13.678  21.377  0.00  0.00    +0.000 OA
ATOM     29  HXT UNL     1       3.116  13.228  20.537  0.00  0.00    +0.000 HD
ENDBRANCH  27  28
ENDBRANCH   1  27
TORSDOF 5
ENDMDL
