MODEL 1
REMARK VINA RESULT:      -9.4      0.000      0.000
REMARK  Name = 
REMARK  8 active torsions:
REMARK  status: ('A' for Active; 'I' for Inactive)
REMARK    1  A    between atoms: C_2  and  C_10
REMARK    2  A    between atoms: N_3  and  C_4
REMARK    3  A    between atoms: C_10  and  C_11
REMARK    4  A    between atoms: C_10  and  N_26
REMARK    5  A    between atoms: C_11  and  C_12
REMARK    6  A    between atoms: C_12  and  C_13
REMARK    7  A    between atoms: C_13  and  C_14
REMARK    8  A    between atoms: C_14  and  N_15
REMARK                            x       y       z     vdW  Elec       q    Type
REMARK                         _______ _______ _______ _____ _____    ______ ____
ROOT
ATOM      1  C   UNL     1       5.994   6.452  17.369  0.00  0.00    +0.000 C 
ENDROOT
BRANCH   1   2
ATOM      2  N   UNL     1       4.893   5.876  18.149  0.00  0.00    +0.000 N 
ATOM      3  C   UNL     1       5.075   4.708  18.848  0.00  0.00    +0.000 C 
ATOM      4  O   UNL     1       6.042   3.971  18.886  0.00  0.00    +0.000 OA
ATOM      5  C   UNL     1       3.850   4.453  19.586  0.00  0.00    +0.000 A 
ATOM      6  C   UNL     1       3.559   3.428  20.467  0.00  0.00    +0.000 A 
ATOM      7  C   UNL     1       2.269   3.390  20.994  0.00  0.00    +0.000 A 
ATOM      8  C   UNL     1       1.314   4.357  20.615  0.00  0.00    +0.000 A 
ATOM      9  C   UNL     1       1.650   5.406  19.740  0.00  0.00    +0.000 A 
ATOM     10  C   UNL     1       2.944   5.443  19.255  0.00  0.00    +0.000 A 
ATOM     11  C   UNL     1       3.649   6.395  18.376  0.00  0.00    +0.000 C 
ATOM     12  O   UNL     1       3.181   7.435  17.949  0.00  0.00    +0.000 OA
ENDBRANCH   1   2
BRANCH   1  14
ATOM     13  O   UNL     1       5.146   6.853  15.176  0.00  0.00    +0.000 OA
ATOM     14  C   UNL     1       5.964   6.221  15.847  0.00  0.00    +0.000 C 
ATOM     15  N   UNL     1       6.748   5.181  15.367  0.00  0.00    +0.000 N 
ATOM     16  H   UNL     1       7.307   4.666  16.045  0.00  0.00    +0.000 HD
BRANCH  15  17
ATOM     17  C   UNL     1       6.711   4.675  14.048  0.00  0.00    +0.000 A 
ATOM     18  C   UNL     1       5.818   3.680  13.634  0.00  0.00    +0.000 A 
ATOM     19  C   UNL     1       5.850   3.185  12.328  0.00  0.00    +0.000 A 
ATOM     20  C   UNL     1       6.780   3.677  11.420  0.00  0.00    +0.000 A 
ATOM     21  C   UNL     1       7.669   4.675  11.815  0.00  0.00    +0.000 A 
ATOM     22  C   UNL     1       7.627   5.182  13.120  0.00  0.00    +0.000 A 
ENDBRANCH  15  17
ENDBRANCH   1  14
BRANCH   1  23
ATOM     23  C   UNL     1       6.442   7.874  17.768  0.00  0.00    +0.000 C 
BRANCH  23  24
ATOM     24  C   UNL     1       7.940   8.184  17.743  0.00  0.00    +0.000 C 
BRANCH  24  25
ATOM     25  C   UNL     1       8.219   9.659  18.087  0.00  0.00    +0.000 C 
BRANCH  25  26
ATOM     26  C   UNL     1       9.327   9.772  19.139  0.00  0.00    +0.000 C 
BRANCH  26  27
ATOM     27  N   UNL     1       9.685  11.147  19.447  0.00  0.00    +0.000 N 
ATOM     28  C   UNL     1       9.359  11.749  20.631  0.00  0.00    +0.000 C 
ATOM     29  O   UNL     1       8.690  11.326  21.557  0.00  0.00    +0.000 OA
ATOM     30  C   UNL     1       9.978  13.071  20.614  0.00  0.00    +0.000 A 
ATOM     31  C   UNL     1      10.000  14.050  21.590  0.00  0.00    +0.000 A 
ATOM     32  C   UNL     1      10.673  15.235  21.290  0.00  0.00    +0.000 A 
ATOM     33  C   UNL     1      11.296  15.411  20.037  0.00  0.00    +0.000 A 
ATOM     34  C   UNL     1      11.280  14.391  19.073  0.00  0.00    +0.000 A 
ATOM     35  C   UNL     1      10.614  13.222  19.397  0.00  0.00    +0.000 A 
ATOM     36  C   UNL     1      10.442  11.965  18.657  0.00  0.00    +0.000 C 
ATOM     37  O   UNL     1      10.927  11.744  17.563  0.00  0.00    +0.000 OA
ENDBRANCH  26  27
ENDBRANCH  25  26
ENDBRANCH  24  25
ENDBRANCH  23  24
ENDBRANCH   1  23
TORSDOF 8
ENDMDL
MODEL 2
REMARK VINA RESULT:      -9.2      0.165      1.465
REMARK  Name = 
REMARK  8 active torsions:
REMARK  status: ('A' for Active; 'I' for Inactive)
REMARK    1  A    between atoms: C_2  and  C_10
REMARK    2  A    between atoms: N_3  and  C_4
REMARK    3  A    between atoms: C_10  and  C_11
REMARK    4  A    between atoms: C_10  and  N_26
REMARK    5  A    between atoms: C_11  and  C_12
REMARK    6  A    between atoms: C_12  and  C_13
REMARK    7  A    between atoms: C_13  and  C_14
REMARK    8  A    between atoms: C_14  and  N_15
REMARK                            x       y       z     vdW  Elec       q    Type
REMARK                         _______ _______ _______ _____ _____    ______ ____
ROOT
ATOM      1  C   UNL     1       5.992   6.480  17.381  0.00  0.00    +0.000 C 
ENDROOT
BRANCH   1   2
ATOM      2  N   UNL     1       4.875   5.945  18.166  0.00  0.00    +0.000 N 
ATOM      3  C   UNL     1       5.019   4.772  18.866  0.00  0.00    +0.000 C 
ATOM      4  O   UNL     1       5.960   4.002  18.903  0.00  0.00    +0.000 OA
ATOM      5  C   UNL     1       3.788   4.561  19.609  0.00  0.00    +0.000 A 
ATOM      6  C   UNL     1       3.465   3.548  20.494  0.00  0.00    +0.000 A 
ATOM      7  C   UNL     1       2.177   3.556  21.025  0.00  0.00    +0.000 A 
ATOM      8  C   UNL     1       1.254   4.554  20.646  0.00  0.00    +0.000 A 
ATOM      9  C   UNL     1       1.623   5.589  19.768  0.00  0.00    +0.000 A 
ATOM     10  C   UNL     1       2.916   5.580  19.279  0.00  0.00    +0.000 A 
ATOM     11  C   UNL     1       3.650   6.506  18.395  0.00  0.00    +0.000 C 
ATOM     12  O   UNL     1       3.217   7.560  17.968  0.00  0.00    +0.000 OA
ENDBRANCH   1   2
BRANCH   1  14
ATOM     13  O   UNL     1       5.066   6.803  15.207  0.00  0.00    +0.000 OA
ATOM     14  C   UNL     1       5.950   6.246  15.859  0.00  0.00    +0.000 C 
ATOM     15  N   UNL     1       6.812   5.278  15.362  0.00  0.00    +0.000 N 
ATOM     16  H   UNL     1       7.428   4.815  16.028  0.00  0.00    +0.000 HD
BRANCH  15  17
ATOM     17  C   UNL     1       6.792   4.769  14.044  0.00  0.00    +0.000 A 
ATOM     18  C   UNL     1       5.955   3.723  13.640  0.00  0.00    +0.000 A 
ATOM     19  C   UNL     1       6.003   3.229  12.334  0.00  0.00    +0.000 A 
ATOM     20  C   UNL     1       6.892   3.774  11.416  0.00  0.00    +0.000 A 
ATOM     21  C   UNL     1       7.724   4.824  11.801  0.00  0.00    +0.000 A 
ATOM     22  C   UNL     1       7.667   5.328  13.106  0.00  0.00    +0.000 A 
ENDBRANCH  15  17
ENDBRANCH   1  14
BRANCH   1  23
ATOM     23  C   UNL     1       6.489   7.888  17.775  0.00  0.00    +0.000 C 
BRANCH  23  24
ATOM     24  C   UNL     1       7.998   8.140  17.766  0.00  0.00    +0.000 C 
BRANCH  24  25
ATOM     25  C   UNL     1       8.331   9.593  18.157  0.00  0.00    +0.000 C 
BRANCH  25  26
ATOM     26  C   UNL     1       9.420   9.629  19.235  0.00  0.00    +0.000 C 
BRANCH  26  27
ATOM     27  N   UNL     1       9.820  10.979  19.597  0.00  0.00    +0.000 N 
ATOM     28  C   UNL     1      10.605  11.758  18.791  0.00  0.00    +0.000 C 
ATOM     29  O   UNL     1      11.151  11.481  17.738  0.00  0.00    +0.000 OA
ATOM     30  C   UNL     1      10.697  13.066  19.433  0.00  0.00    +0.000 A 
ATOM     31  C   UNL     1      11.322  14.221  19.003  0.00  0.00    +0.000 A 
ATOM     32  C   UNL     1      11.249  15.337  19.838  0.00  0.00    +0.000 A 
ATOM     33  C   UNL     1      10.565  15.268  21.069  0.00  0.00    +0.000 A 
ATOM     34  C   UNL     1       9.917  14.090  21.471  0.00  0.00    +0.000 A 
ATOM     35  C   UNL     1       9.996  13.001  20.622  0.00  0.00    +0.000 A 
ATOM     36  C   UNL     1       9.410  11.657  20.710  0.00  0.00    +0.000 C 
ATOM     37  O   UNL     1       8.686  11.284  21.614  0.00  0.00    +0.000 OA
ENDBRANCH  26  27
ENDBRANCH  25  26
ENDBRANCH  24  25
ENDBRANCH  23  24
ENDBRANCH   1  23
TORSDOF 8
ENDMDL
MODEL 3
REMARK VINA RESULT:      -9.0      1.166      1.604
REMARK  Name = 
REMARK  8 active torsions:
REMARK  status: ('A' for Active; 'I' for Inactive)
REMARK    1  A    between atoms: C_2  and  C_10
REMARK    2  A    between atoms: N_3  and  C_4
REMARK    3  A    between atoms: C_10  and  C_11
REMARK    4  A    between atoms: C_10  and  N_26
REMARK    5  A    between atoms: C_11  and  C_12
REMARK    6  A    between atoms: C_12  and  C_13
REMARK    7  A    between atoms: C_13  and  C_14
REMARK    8  A    between atoms: C_14  and  N_15
REMARK                            x       y       z     vdW  Elec       q    Type
REMARK                         _______ _______ _______ _____ _____    ______ ____
ROOT
ATOM      1  C   UNL     1       5.982   6.267  17.493  0.00  0.00    +0.000 C 
ENDROOT
BRANCH   1   2
ATOM      2  N   UNL     1       4.852   5.662  18.206  0.00  0.00    +0.000 N 
ATOM      3  C   UNL     1       5.023   4.499  18.916  0.00  0.00    +0.000 C 
ATOM      4  O   UNL     1       6.005   3.788  19.013  0.00  0.00    +0.000 OA
ATOM      5  C   UNL     1       3.763   4.210  19.579  0.00  0.00    +0.000 A 
ATOM      6  C   UNL     1       3.447   3.176  20.443  0.00  0.00    +0.000 A 
ATOM      7  C   UNL     1       2.129   3.104  20.891  0.00  0.00    +0.000 A 
ATOM      8  C   UNL     1       1.173   4.044  20.453  0.00  0.00    +0.000 A 
ATOM      9  C   UNL     1       1.533   5.103  19.599  0.00  0.00    +0.000 A 
ATOM     10  C   UNL     1       2.852   5.175  19.192  0.00  0.00    +0.000 A 
ATOM     11  C   UNL     1       3.583   6.146  18.356  0.00  0.00    +0.000 C 
ATOM     12  O   UNL     1       3.113   7.173  17.901  0.00  0.00    +0.000 OA
ENDBRANCH   1   2
BRANCH   1  14
ATOM     13  O   UNL     1       5.229   6.792  15.291  0.00  0.00    +0.000 OA
ATOM     14  C   UNL     1       6.005   6.108  15.961  0.00  0.00    +0.000 C 
ATOM     15  N   UNL     1       6.780   5.070  15.463  0.00  0.00    +0.000 N 
ATOM     16  H   UNL     1       7.300   4.509  16.137  0.00  0.00    +0.000 HD
BRANCH  15  17
ATOM     17  C   UNL     1       6.782   4.627  14.121  0.00  0.00    +0.000 A 
ATOM     18  C   UNL     1       7.656   5.128  13.150  0.00  0.00    +0.000 A 
ATOM     19  C   UNL     1       7.589   4.685  11.826  0.00  0.00    +0.000 A 
ATOM     20  C   UNL     1       6.643   3.736  11.457  0.00  0.00    +0.000 A 
ATOM     21  C   UNL     1       5.773   3.221  12.416  0.00  0.00    +0.000 A 
ATOM     22  C   UNL     1       5.849   3.654  13.745  0.00  0.00    +0.000 A 
ENDBRANCH  15  17
ENDBRANCH   1  14
BRANCH   1  23
ATOM     23  C   UNL     1       6.420   7.667  17.974  0.00  0.00    +0.000 C 
BRANCH  23  24
ATOM     24  C   UNL     1       7.828   8.140  17.604  0.00  0.00    +0.000 C 
BRANCH  24  25
ATOM     25  C   UNL     1       8.237   9.386  18.412  0.00  0.00    +0.000 C 
BRANCH  25  26
ATOM     26  C   UNL     1       9.295  10.199  17.659  0.00  0.00    +0.000 C 
BRANCH  26  27
ATOM     27  N   UNL     1       9.343  11.593  18.070  0.00  0.00    +0.000 N 
ATOM     28  C   UNL     1      10.319  12.090  18.889  0.00  0.00    +0.000 C 
ATOM     29  O   UNL     1      11.222  11.505  19.461  0.00  0.00    +0.000 OA
ATOM     30  C   UNL     1      10.097  13.529  18.982  0.00  0.00    +0.000 A 
ATOM     31  C   UNL     1      10.835  14.497  19.637  0.00  0.00    +0.000 A 
ATOM     32  C   UNL     1      10.376  15.813  19.557  0.00  0.00    +0.000 A 
ATOM     33  C   UNL     1       9.204  16.122  18.836  0.00  0.00    +0.000 A 
ATOM     34  C   UNL     1       8.488  15.123  18.159  0.00  0.00    +0.000 A 
ATOM     35  C   UNL     1       8.967  13.829  18.246  0.00  0.00    +0.000 A 
ATOM     36  C   UNL     1       8.498  12.576  17.638  0.00  0.00    +0.000 C 
ATOM     37  O   UNL     1       7.548  12.497  16.882  0.00  0.00    +0.000 OA
ENDBRANCH  26  27
ENDBRANCH  25  26
ENDBRANCH  24  25
ENDBRANCH  23  24
ENDBRANCH   1  23
TORSDOF 8
ENDMDL
MODEL 4
REMARK VINA RESULT:      -8.6      5.381      6.531
REMARK  Name = 
REMARK  8 active torsions:
REMARK  status: ('A' for Active; 'I' for Inactive)
REMARK    1  A    between atoms: C_2  and  C_10
REMARK    2  A    between atoms: N_3  and  C_4
REMARK    3  A    between atoms: C_10  and  C_11
REMARK    4  A    between atoms: C_10  and  N_26
REMARK    5  A    between atoms: C_11  and  C_12
REMARK    6  A    between atoms: C_12  and  C_13
REMARK    7  A    between atoms: C_13  and  C_14
REMARK    8  A    between atoms: C_14  and  N_15
REMARK                            x       y       z     vdW  Elec       q    Type
REMARK                         _______ _______ _______ _____ _____    ______ ____
ROOT
ATOM      1  C   UNL     1       4.921   5.468  17.288  0.00  0.00    +0.000 C 
ENDROOT
BRANCH   1   2
ATOM      2  N   UNL     1       3.954   4.701  18.079  0.00  0.00    +0.000 N 
ATOM      3  C   UNL     1       3.943   4.800  19.449  0.00  0.00    +0.000 C 
ATOM      4  O   UNL     1       4.696   5.408  20.187  0.00  0.00    +0.000 OA
ATOM      5  C   UNL     1       2.825   4.007  19.930  0.00  0.00    +0.000 A 
ATOM      6  C   UNL     1       2.373   3.830  21.225  0.00  0.00    +0.000 A 
ATOM      7  C   UNL     1       1.302   2.958  21.410  0.00  0.00    +0.000 A 
ATOM      8  C   UNL     1       0.733   2.282  20.310  0.00  0.00    +0.000 A 
ATOM      9  C   UNL     1       1.195   2.507  19.001  0.00  0.00    +0.000 A 
ATOM     10  C   UNL     1       2.237   3.401  18.836  0.00  0.00    +0.000 A 
ATOM     11  C   UNL     1       2.933   3.906  17.638  0.00  0.00    +0.000 C 
ATOM     12  O   UNL     1       2.630   3.644  16.488  0.00  0.00    +0.000 OA
ENDBRANCH   1   2
BRANCH   1  14
ATOM     13  O   UNL     1       6.799   4.237  16.485  0.00  0.00    +0.000 OA
ATOM     14  C   UNL     1       5.694   4.702  16.199  0.00  0.00    +0.000 C 
ATOM     15  N   UNL     1       5.160   4.747  14.918  0.00  0.00    +0.000 N 
ATOM     16  H   UNL     1       4.285   5.255  14.795  0.00  0.00    +0.000 HD
BRANCH  15  17
ATOM     17  C   UNL     1       5.808   4.290  13.749  0.00  0.00    +0.000 A 
ATOM     18  C   UNL     1       7.020   4.818  13.288  0.00  0.00    +0.000 A 
ATOM     19  C   UNL     1       7.599   4.357  12.103  0.00  0.00    +0.000 A 
ATOM     20  C   UNL     1       6.971   3.364  11.361  0.00  0.00    +0.000 A 
ATOM     21  C   UNL     1       5.769   2.822  11.813  0.00  0.00    +0.000 A 
ATOM     22  C   UNL     1       5.196   3.273  13.009  0.00  0.00    +0.000 A 
ENDBRANCH  15  17
ENDBRANCH   1  14
BRANCH   1  23
ATOM     23  C   UNL     1       4.477   6.881  16.851  0.00  0.00    +0.000 C 
BRANCH  23  24
ATOM     24  C   UNL     1       3.037   7.301  17.153  0.00  0.00    +0.000 C 
BRANCH  24  25
ATOM     25  C   UNL     1       2.985   8.648  17.899  0.00  0.00    +0.000 C 
BRANCH  25  26
ATOM     26  C   UNL     1       1.580   9.255  17.828  0.00  0.00    +0.000 C 
BRANCH  26  27
ATOM     27  N   UNL     1       1.046   9.612  19.132  0.00  0.00    +0.000 N 
ATOM     28  C   UNL     1       0.333  10.760  19.350  0.00  0.00    +0.000 C 
ATOM     29  O   UNL     1       0.089  11.677  18.586  0.00  0.00    +0.000 OA
ATOM     30  C   UNL     1      -0.124  10.713  20.736  0.00  0.00    +0.000 A 
ATOM     31  C   UNL     1      -0.924  11.598  21.433  0.00  0.00    +0.000 A 
ATOM     32  C   UNL     1      -1.196  11.298  22.769  0.00  0.00    +0.000 A 
ATOM     33  C   UNL     1      -0.663  10.136  23.366  0.00  0.00    +0.000 A 
ATOM     34  C   UNL     1       0.127   9.242  22.628  0.00  0.00    +0.000 A 
ATOM     35  C   UNL     1       0.374   9.557  21.304  0.00  0.00    +0.000 A 
ATOM     36  C   UNL     1       1.108   8.837  20.255  0.00  0.00    +0.000 C 
ATOM     37  O   UNL     1       1.630   7.748  20.410  0.00  0.00    +0.000 OA
ENDBRANCH  26  27
ENDBRANCH  25  26
ENDBRANCH  24  25
ENDBRANCH  23  24
ENDBRANCH   1  23
TORSDOF 8
ENDMDL
MODEL 5
REMARK VINA RESULT:      -8.6      1.194      2.051
REMARK  Name = 
REMARK  8 active torsions:
REMARK  status: ('A' for Active; 'I' for Inactive)
REMARK    1  A    between atoms: C_2  and  C_10
REMARK    2  A    between atoms: N_3  and  C_4
REMARK    3  A    between atoms: C_10  and  C_11
REMARK    4  A    between atoms: C_10  and  N_26
REMARK    5  A    between atoms: C_11  and  C_12
REMARK    6  A    between atoms: C_12  and  C_13
REMARK    7  A    between atoms: C_13  and  C_14
REMARK    8  A    between atoms: C_14  and  N_15
REMARK                            x       y       z     vdW  Elec       q    Type
REMARK                         _______ _______ _______ _____ _____    ______ ____
ROOT
ATOM      1  C   UNL     1       6.189   6.502  17.460  0.00  0.00    +0.000 C 
ENDROOT
BRANCH   1   2
ATOM      2  N   UNL     1       5.146   5.880  18.282  0.00  0.00    +0.000 N 
ATOM      3  C   UNL     1       3.913   6.473  18.404  0.00  0.00    +0.000 C 
ATOM      4  O   UNL     1       3.520   7.540  17.971  0.00  0.00    +0.000 OA
ATOM      5  C   UNL     1       3.082   5.579  19.191  0.00  0.00    +0.000 A 
ATOM      6  C   UNL     1       1.751   5.709  19.545  0.00  0.00    +0.000 A 
ATOM      7  C   UNL     1       1.213   4.720  20.367  0.00  0.00    +0.000 A 
ATOM      8  C   UNL     1       2.016   3.653  20.820  0.00  0.00    +0.000 A 
ATOM      9  C   UNL     1       3.359   3.531  20.417  0.00  0.00    +0.000 A 
ATOM     10  C   UNL     1       3.863   4.506  19.576  0.00  0.00    +0.000 A 
ATOM     11  C   UNL     1       5.178   4.677  18.929  0.00  0.00    +0.000 C 
ATOM     12  O   UNL     1       6.096   3.879  18.984  0.00  0.00    +0.000 OA
ENDBRANCH   1   2
BRANCH   1  14
ATOM     13  O   UNL     1       5.214   6.797  15.303  0.00  0.00    +0.000 OA
ATOM     14  C   UNL     1       6.119   6.256  15.942  0.00  0.00    +0.000 C 
ATOM     15  N   UNL     1       6.982   5.294  15.434  0.00  0.00    +0.000 N 
ATOM     16  H   UNL     1       7.618   4.844  16.091  0.00  0.00    +0.000 HD
BRANCH  15  17
ATOM     17  C   UNL     1       6.941   4.775  14.121  0.00  0.00    +0.000 A 
ATOM     18  C   UNL     1       7.759   5.243  13.086  0.00  0.00    +0.000 A 
ATOM     19  C   UNL     1       7.651   4.723  11.794  0.00  0.00    +0.000 A 
ATOM     20  C   UNL     1       6.719   3.729  11.520  0.00  0.00    +0.000 A 
ATOM     21  C   UNL     1       5.905   3.246  12.543  0.00  0.00    +0.000 A 
ATOM     22  C   UNL     1       6.023   3.757  13.841  0.00  0.00    +0.000 A 
ENDBRANCH  15  17
ENDBRANCH   1  14
BRANCH   1  23
ATOM     23  C   UNL     1       6.579   7.949  17.833  0.00  0.00    +0.000 C 
BRANCH  23  24
ATOM     24  C   UNL     1       8.007   8.405  17.526  0.00  0.00    +0.000 C 
BRANCH  24  25
ATOM     25  C   UNL     1       8.522   9.401  18.582  0.00  0.00    +0.000 C 
BRANCH  25  26
ATOM     26  C   UNL     1       9.460  10.432  17.945  0.00  0.00    +0.000 C 
BRANCH  26  27
ATOM     27  N   UNL     1       9.343  11.754  18.539  0.00  0.00    +0.000 N 
ATOM     28  C   UNL     1      10.098  12.153  19.607  0.00  0.00    +0.000 C 
ATOM     29  O   UNL     1      10.894  11.517  20.275  0.00  0.00    +0.000 OA
ATOM     30  C   UNL     1       9.782  13.559  19.842  0.00  0.00    +0.000 A 
ATOM     31  C   UNL     1      10.312  14.442  20.763  0.00  0.00    +0.000 A 
ATOM     32  C   UNL     1       9.807  15.744  20.764  0.00  0.00    +0.000 A 
ATOM     33  C   UNL     1       8.795  16.122  19.857  0.00  0.00    +0.000 A 
ATOM     34  C   UNL     1       8.293  15.212  18.915  0.00  0.00    +0.000 A 
ATOM     35  C   UNL     1       8.815  13.931  18.928  0.00  0.00    +0.000 A 
ATOM     36  C   UNL     1       8.554  12.766  18.072  0.00  0.00    +0.000 C 
ATOM     37  O   UNL     1       7.788  12.771  17.127  0.00  0.00    +0.000 OA
ENDBRANCH  26  27
ENDBRANCH  25  26
ENDBRANCH  24  25
ENDBRANCH  23  24
ENDBRANCH   1  23
TORSDOF 8
ENDMDL
MODEL 6
REMARK VINA RESULT:      -8.6      1.150      2.012
REMARK  Name = 
REMARK  8 active torsions:
REMARK  status: ('A' for Active; 'I' for Inactive)
REMARK    1  A    between atoms: C_2  and  C_10
REMARK    2  A    between atoms: N_3  and  C_4
REMARK    3  A    between atoms: C_10  and  C_11
REMARK    4  A    between atoms: C_10  and  N_26
REMARK    5  A    between atoms: C_11  and  C_12
REMARK    6  A    between atoms: C_12  and  C_13
REMARK    7  A    between atoms: C_13  and  C_14
REMARK    8  A    between atoms: C_14  and  N_15
REMARK                            x       y       z     vdW  Elec       q    Type
REMARK                         _______ _______ _______ _____ _____    ______ ____
ROOT
ATOM      1  C   UNL     1       6.108   6.360  17.431  0.00  0.00    +0.000 C 
ENDROOT
BRANCH   1   2
ATOM      2  N   UNL     1       5.074   5.730  18.258  0.00  0.00    +0.000 N 
ATOM      3  C   UNL     1       3.840   6.317  18.393  0.00  0.00    +0.000 C 
ATOM      4  O   UNL     1       3.439   7.385  17.969  0.00  0.00    +0.000 OA
ATOM      5  C   UNL     1       3.018   5.416  19.183  0.00  0.00    +0.000 A 
ATOM      6  C   UNL     1       1.689   5.540  19.548  0.00  0.00    +0.000 A 
ATOM      7  C   UNL     1       1.162   4.545  20.369  0.00  0.00    +0.000 A 
ATOM      8  C   UNL     1       1.973   3.478  20.810  0.00  0.00    +0.000 A 
ATOM      9  C   UNL     1       3.312   3.364  20.395  0.00  0.00    +0.000 A 
ATOM     10  C   UNL     1       3.806   4.344  19.555  0.00  0.00    +0.000 A 
ATOM     11  C   UNL     1       5.115   4.523  18.899  0.00  0.00    +0.000 C 
ATOM     12  O   UNL     1       6.036   3.728  18.942  0.00  0.00    +0.000 OA
ENDBRANCH   1   2
BRANCH   1  14
ATOM     13  O   UNL     1       5.209   6.817  15.269  0.00  0.00    +0.000 OA
ATOM     14  C   UNL     1       6.014   6.138  15.910  0.00  0.00    +0.000 C 
ATOM     15  N   UNL     1       6.724   5.059  15.401  0.00  0.00    +0.000 N 
ATOM     16  H   UNL     1       7.276   4.511  16.058  0.00  0.00    +0.000 HD
BRANCH  15  17
ATOM     17  C   UNL     1       6.615   4.562  14.083  0.00  0.00    +0.000 A 
ATOM     18  C   UNL     1       5.623   3.659  13.684  0.00  0.00    +0.000 A 
ATOM     19  C   UNL     1       5.583   3.166  12.377  0.00  0.00    +0.000 A 
ATOM     20  C   UNL     1       6.541   3.567  11.453  0.00  0.00    +0.000 A 
ATOM     21  C   UNL     1       7.529   4.473  11.833  0.00  0.00    +0.000 A 
ATOM     22  C   UNL     1       7.560   4.979  13.139  0.00  0.00    +0.000 A 
ENDBRANCH  15  17
ENDBRANCH   1  14
BRANCH   1  23
ATOM     23  C   UNL     1       6.510   7.798  17.820  0.00  0.00    +0.000 C 
BRANCH  23  24
ATOM     24  C   UNL     1       7.975   8.204  17.638  0.00  0.00    +0.000 C 
BRANCH  24  25
ATOM     25  C   UNL     1       8.311   9.481  18.431  0.00  0.00    +0.000 C 
BRANCH  25  26
ATOM     26  C   UNL     1       9.343  10.330  17.682  0.00  0.00    +0.000 C 
BRANCH  26  27
ATOM     27  N   UNL     1       9.467  11.678  18.212  0.00  0.00    +0.000 N 
ATOM     28  C   UNL     1       8.608  12.688  17.872  0.00  0.00    +0.000 C 
ATOM     29  O   UNL     1       7.695  12.689  17.066  0.00  0.00    +0.000 OA
ATOM     30  C   UNL     1       8.981  13.845  18.681  0.00  0.00    +0.000 A 
ATOM     31  C   UNL     1       8.395  15.094  18.759  0.00  0.00    +0.000 A 
ATOM     32  C   UNL     1       8.977  16.019  19.626  0.00  0.00    +0.000 A 
ATOM     33  C   UNL     1      10.119  15.677  20.381  0.00  0.00    +0.000 A 
ATOM     34  C   UNL     1      10.679  14.393  20.300  0.00  0.00    +0.000 A 
ATOM     35  C   UNL     1      10.078  13.491  19.441  0.00  0.00    +0.000 A 
ATOM     36  C   UNL     1      10.372  12.081  19.152  0.00  0.00    +0.000 C 
ATOM     37  O   UNL     1      11.252  11.440  19.697  0.00  0.00    +0.000 OA
ENDBRANCH  26  27
ENDBRANCH  25  26
ENDBRANCH  24  25
ENDBRANCH  23  24
ENDBRANCH   1  23
TORSDOF 8
ENDMDL
MODEL 7
REMARK VINA RESULT:      -8.6      1.331      1.861
REMARK  Name = 
REMARK  8 active torsions:
REMARK  status: ('A' for Active; 'I' for Inactive)
REMARK    1  A    between atoms: C_2  and  C_10
REMARK    2  A    between atoms: N_3  and  C_4
REMARK    3  A    between atoms: C_10  and  C_11
REMARK    4  A    between atoms: C_10  and  N_26
REMARK    5  A    between atoms: C_11  and  C_12
REMARK    6  A    between atoms: C_12  and  C_13
REMARK    7  A    between atoms: C_13  and  C_14
REMARK    8  A    between atoms: C_14  and  N_15
REMARK                            x       y       z     vdW  Elec       q    Type
REMARK                         _______ _______ _______ _____ _____    ______ ____
ROOT
ATOM      1  C   UNL     1       6.350   5.937  17.677  0.00  0.00    +0.000 C 
ENDROOT
BRANCH   1   2
ATOM      2  N   UNL     1       5.096   5.570  18.343  0.00  0.00    +0.000 N 
ATOM      3  C   UNL     1       5.034   4.452  19.139  0.00  0.00    +0.000 C 
ATOM      4  O   UNL     1       5.883   3.607  19.356  0.00  0.00    +0.000 OA
ATOM      5  C   UNL     1       3.706   4.414  19.725  0.00  0.00    +0.000 A 
ATOM      6  C   UNL     1       3.176   3.511  20.630  0.00  0.00    +0.000 A 
ATOM      7  C   UNL     1       1.838   3.677  20.984  0.00  0.00    +0.000 A 
ATOM      8  C   UNL     1       1.074   4.718  20.416  0.00  0.00    +0.000 A 
ATOM      9  C   UNL     1       1.650   5.639  19.522  0.00  0.00    +0.000 A 
ATOM     10  C   UNL     1       2.986   5.475  19.210  0.00  0.00    +0.000 A 
ATOM     11  C   UNL     1       3.913   6.254  18.368  0.00  0.00    +0.000 C 
ATOM     12  O   UNL     1       3.643   7.303  17.812  0.00  0.00    +0.000 OA
ENDBRANCH   1   2
BRANCH   1  14
ATOM     13  O   UNL     1       7.824   4.435  16.555  0.00  0.00    +0.000 OA
ATOM     14  C   UNL     1       6.776   5.078  16.472  0.00  0.00    +0.000 C 
ATOM     15  N   UNL     1       6.031   5.234  15.311  0.00  0.00    +0.000 N 
ATOM     16  H   UNL     1       5.242   5.878  15.345  0.00  0.00    +0.000 HD
BRANCH  15  17
ATOM     17  C   UNL     1       6.371   4.702  14.048  0.00  0.00    +0.000 A 
ATOM     18  C   UNL     1       7.410   5.207  13.258  0.00  0.00    +0.000 A 
ATOM     19  C   UNL     1       7.680   4.669  11.997  0.00  0.00    +0.000 A 
ATOM     20  C   UNL     1       6.910   3.621  11.507  0.00  0.00    +0.000 A 
ATOM     21  C   UNL     1       5.878   3.101  12.287  0.00  0.00    +0.000 A 
ATOM     22  C   UNL     1       5.617   3.630  13.557  0.00  0.00    +0.000 A 
ENDBRANCH  15  17
ENDBRANCH   1  14
BRANCH   1  23
ATOM     23  C   UNL     1       6.599   7.447  17.477  0.00  0.00    +0.000 C 
BRANCH  23  24
ATOM     24  C   UNL     1       7.925   8.024  17.976  0.00  0.00    +0.000 C 
BRANCH  24  25
ATOM     25  C   UNL     1       7.928   9.564  17.923  0.00  0.00    +0.000 C 
BRANCH  25  26
ATOM     26  C   UNL     1       9.315  10.116  18.267  0.00  0.00    +0.000 C 
BRANCH  26  27
ATOM     27  N   UNL     1       9.288  11.509  18.683  0.00  0.00    +0.000 N 
ATOM     28  C   UNL     1       8.544  12.459  18.037  0.00  0.00    +0.000 C 
ATOM     29  O   UNL     1       7.876  12.363  17.023  0.00  0.00    +0.000 OA
ATOM     30  C   UNL     1       8.685  13.694  18.804  0.00  0.00    +0.000 A 
ATOM     31  C   UNL     1       8.093  14.927  18.609  0.00  0.00    +0.000 A 
ATOM     32  C   UNL     1       8.421  15.942  19.509  0.00  0.00    +0.000 A 
ATOM     33  C   UNL     1       9.325  15.702  20.565  0.00  0.00    +0.000 A 
ATOM     34  C   UNL     1       9.892  14.432  20.754  0.00  0.00    +0.000 A 
ATOM     35  C   UNL     1       9.545  13.441  19.855  0.00  0.00    +0.000 A 
ATOM     36  C   UNL     1       9.911  12.020  19.786  0.00  0.00    +0.000 C 
ATOM     37  O   UNL     1      10.619  11.456  20.599  0.00  0.00    +0.000 OA
ENDBRANCH  26  27
ENDBRANCH  25  26
ENDBRANCH  24  25
ENDBRANCH  23  24
ENDBRANCH   1  23
TORSDOF 8
ENDMDL
MODEL 8
REMARK VINA RESULT:      -8.6      1.113      1.206
REMARK  Name = 
REMARK  8 active torsions:
REMARK  status: ('A' for Active; 'I' for Inactive)
REMARK    1  A    between atoms: C_2  and  C_10
REMARK    2  A    between atoms: N_3  and  C_4
REMARK    3  A    between atoms: C_10  and  C_11
REMARK    4  A    between atoms: C_10  and  N_26
REMARK    5  A    between atoms: C_11  and  C_12
REMARK    6  A    between atoms: C_12  and  C_13
REMARK    7  A    between atoms: C_13  and  C_14
REMARK    8  A    between atoms: C_14  and  N_15
REMARK                            x       y       z     vdW  Elec       q    Type
REMARK                         _______ _______ _______ _____ _____    ______ ____
ROOT
ATOM      1  C   UNL     1       6.036   5.905  17.626  0.00  0.00    +0.000 C 
ENDROOT
BRANCH   1   2
ATOM      2  N   UNL     1       4.847   5.429  18.340  0.00  0.00    +0.000 N 
ATOM      3  C   UNL     1       4.874   4.230  19.010  0.00  0.00    +0.000 C 
ATOM      4  O   UNL     1       5.755   3.394  19.067  0.00  0.00    +0.000 OA
ATOM      5  C   UNL     1       3.596   4.087  19.686  0.00  0.00    +0.000 A 
ATOM      6  C   UNL     1       3.159   3.075  20.523  0.00  0.00    +0.000 A 
ATOM      7  C   UNL     1       1.850   3.160  20.992  0.00  0.00    +0.000 A 
ATOM      8  C   UNL     1       1.019   4.232  20.602  0.00  0.00    +0.000 A 
ATOM      9  C   UNL     1       1.503   5.262  19.775  0.00  0.00    +0.000 A 
ATOM     10  C   UNL     1       2.814   5.174  19.347  0.00  0.00    +0.000 A 
ATOM     11  C   UNL     1       3.654   6.069  18.528  0.00  0.00    +0.000 C 
ATOM     12  O   UNL     1       3.317   7.164  18.114  0.00  0.00    +0.000 OA
ENDBRANCH   1   2
BRANCH   1  14
ATOM     13  O   UNL     1       5.192   6.583  15.501  0.00  0.00    +0.000 OA
ATOM     14  C   UNL     1       5.993   5.853  16.088  0.00  0.00    +0.000 C 
ATOM     15  N   UNL     1       6.742   4.851  15.485  0.00  0.00    +0.000 N 
ATOM     16  H   UNL     1       7.288   4.244  16.095  0.00  0.00    +0.000 HD
BRANCH  15  17
ATOM     17  C   UNL     1       6.684   4.503  14.117  0.00  0.00    +0.000 A 
ATOM     18  C   UNL     1       5.784   3.562  13.604  0.00  0.00    +0.000 A 
ATOM     19  C   UNL     1       5.795   3.223  12.248  0.00  0.00    +0.000 A 
ATOM     20  C   UNL     1       6.710   3.819  11.389  0.00  0.00    +0.000 A 
ATOM     21  C   UNL     1       7.606   4.765  11.885  0.00  0.00    +0.000 A 
ATOM     22  C   UNL     1       7.586   5.115  13.240  0.00  0.00    +0.000 A 
ENDBRANCH  15  17
ENDBRANCH   1  14
BRANCH   1  23
ATOM     23  C   UNL     1       6.698   7.184  18.182  0.00  0.00    +0.000 C 
BRANCH  23  24
ATOM     24  C   UNL     1       7.728   7.895  17.301  0.00  0.00    +0.000 C 
BRANCH  24  25
ATOM     25  C   UNL     1       8.595   8.871  18.119  0.00  0.00    +0.000 C 
BRANCH  25  26
ATOM     26  C   UNL     1       7.863  10.199  18.335  0.00  0.00    +0.000 C 
BRANCH  26  27
ATOM     27  N   UNL     1       8.763  11.327  18.504  0.00  0.00    +0.000 N 
ATOM     28  C   UNL     1       9.773  11.336  19.427  0.00  0.00    +0.000 C 
ATOM     29  O   UNL     1      10.052  10.510  20.278  0.00  0.00    +0.000 OA
ATOM     30  C   UNL     1      10.519  12.574  19.222  0.00  0.00    +0.000 A 
ATOM     31  C   UNL     1      11.658  13.034  19.853  0.00  0.00    +0.000 A 
ATOM     32  C   UNL     1      12.155  14.275  19.450  0.00  0.00    +0.000 A 
ATOM     33  C   UNL     1      11.504  15.016  18.442  0.00  0.00    +0.000 A 
ATOM     34  C   UNL     1      10.362  14.513  17.800  0.00  0.00    +0.000 A 
ATOM     35  C   UNL     1       9.895  13.278  18.210  0.00  0.00    +0.000 A 
ATOM     36  C   UNL     1       8.776  12.455  17.732  0.00  0.00    +0.000 C 
ATOM     37  O   UNL     1       8.049  12.761  16.806  0.00  0.00    +0.000 OA
ENDBRANCH  26  27
ENDBRANCH  25  26
ENDBRANCH  24  25
ENDBRANCH  23  24
ENDBRANCH   1  23
TORSDOF 8
ENDMDL
MODEL 9
REMARK VINA RESULT:      -8.5      5.298      6.335
REMARK  Name = 
REMARK  8 active torsions:
REMARK  status: ('A' for Active; 'I' for Inactive)
REMARK    1  A    between atoms: C_2  and  C_10
REMARK    2  A    between atoms: N_3  and  C_4
REMARK    3  A    between atoms: C_10  and  C_11
REMARK    4  A    between atoms: C_10  and  N_26
REMARK    5  A    between atoms: C_11  and  C_12
REMARK    6  A    between atoms: C_12  and  C_13
REMARK    7  A    between atoms: C_13  and  C_14
REMARK    8  A    between atoms: C_14  and  N_15
REMARK                            x       y       z     vdW  Elec       q    Type
REMARK                         _______ _______ _______ _____ _____    ______ ____
ROOT
ATOM      1  C   UNL     1       5.336   5.341  17.363  0.00  0.00    +0.000 C 
ENDROOT
BRANCH   1   2
ATOM      2  N   UNL     1       4.265   4.664  18.101  0.00  0.00    +0.000 N 
ATOM      3  C   UNL     1       4.201   4.753  19.470  0.00  0.00    +0.000 C 
ATOM      4  O   UNL     1       4.973   5.279  20.249  0.00  0.00    +0.000 OA
ATOM      5  C   UNL     1       2.992   4.067  19.890  0.00  0.00    +0.000 A 
ATOM      6  C   UNL     1       2.465   3.923  21.161  0.00  0.00    +0.000 A 
ATOM      7  C   UNL     1       1.309   3.156  21.287  0.00  0.00    +0.000 A 
ATOM      8  C   UNL     1       0.730   2.547  20.154  0.00  0.00    +0.000 A 
ATOM      9  C   UNL     1       1.270   2.737  18.870  0.00  0.00    +0.000 A 
ATOM     10  C   UNL     1       2.399   3.529  18.763  0.00  0.00    +0.000 A 
ATOM     11  C   UNL     1       3.194   3.974  17.604  0.00  0.00    +0.000 C 
ATOM     12  O   UNL     1       2.921   3.752  16.438  0.00  0.00    +0.000 OA
ENDBRANCH   1   2
BRANCH   1  14
ATOM     13  O   UNL     1       7.052   4.019  16.364  0.00  0.00    +0.000 OA
ATOM     14  C   UNL     1       5.965   4.574  16.186  0.00  0.00    +0.000 C 
ATOM     15  N   UNL     1       5.340   4.716  14.955  0.00  0.00    +0.000 N 
ATOM     16  H   UNL     1       4.498   5.288  14.922  0.00  0.00    +0.000 HD
BRANCH  15  17
ATOM     17  C   UNL     1       5.861   4.268  13.721  0.00  0.00    +0.000 A 
ATOM     18  C   UNL     1       5.297   3.219  12.986  0.00  0.00    +0.000 A 
ATOM     19  C   UNL     1       5.876   2.788  11.789  0.00  0.00    +0.000 A 
ATOM     20  C   UNL     1       7.030   3.398  11.315  0.00  0.00    +0.000 A 
ATOM     21  C   UNL     1       7.598   4.451  12.031  0.00  0.00    +0.000 A 
ATOM     22  C   UNL     1       7.010   4.893  13.222  0.00  0.00    +0.000 A 
ENDBRANCH  15  17
ENDBRANCH   1  14
BRANCH   1  23
ATOM     23  C   UNL     1       5.122   6.843  17.076  0.00  0.00    +0.000 C 
BRANCH  23  24
ATOM     24  C   UNL     1       3.686   7.336  16.889  0.00  0.00    +0.000 C 
BRANCH  24  25
ATOM     25  C   UNL     1       3.123   7.946  18.187  0.00  0.00    +0.000 C 
BRANCH  25  26
ATOM     26  C   UNL     1       1.925   8.853  17.887  0.00  0.00    +0.000 C 
BRANCH  26  27
ATOM     27  N   UNL     1       1.214   9.274  19.082  0.00  0.00    +0.000 N 
ATOM     28  C   UNL     1       1.213   8.543  20.239  0.00  0.00    +0.000 C 
ATOM     29  O   UNL     1       1.696   7.447  20.463  0.00  0.00    +0.000 OA
ATOM     30  C   UNL     1       0.495   9.333  21.234  0.00  0.00    +0.000 A 
ATOM     31  C   UNL     1       0.264   9.072  22.572  0.00  0.00    +0.000 A 
ATOM     32  C   UNL     1      -0.470  10.017  23.290  0.00  0.00    +0.000 A 
ATOM     33  C   UNL     1      -0.952  11.183  22.659  0.00  0.00    +0.000 A 
ATOM     34  C   UNL     1      -0.682  11.435  21.305  0.00  0.00    +0.000 A 
ATOM     35  C   UNL     1       0.055  10.488  20.617  0.00  0.00    +0.000 A 
ATOM     36  C   UNL     1       0.545  10.456  19.233  0.00  0.00    +0.000 C 
ATOM     37  O   UNL     1       0.377  11.353  18.427  0.00  0.00    +0.000 OA
ENDBRANCH  26  27
ENDBRANCH  25  26
ENDBRANCH  24  25
ENDBRANCH  23  24
ENDBRANCH   1  23
TORSDOF 8
ENDMDL
