MODEL 1
REMARK VINA RESULT:      -7.3      0.000      0.000
REMARK  Name = 
REMARK  8 active torsions:
REMARK  status: ('A' for Active; 'I' for Inactive)
REMARK    1  A    between atoms: C_1  and  C_2
REMARK    2  A    between atoms: C_2  and  C_3
REMARK    3  A    between atoms: N_5  and  C_6
REMARK    4  A    between atoms: C_6  and  C_7
REMARK    5  A    between atoms: C_7  and  O_8
REMARK    6  A    between atoms: C_9  and  N_10
REMARK    7  A    between atoms: C_14  and  C_15
REMARK    8  A    between atoms: C_15  and  C_16
REMARK                            x       y       z     vdW  Elec       q    Type
REMARK                         _______ _______ _______ _____ _____    ______ ____
ROOT
ATOM      1  C   UNL     1       2.864   4.110  17.792  0.00  0.00    +0.000 A 
ATOM      2  N   UNL     1       3.640   3.816  16.748  0.00  0.00    +0.000 NA
ATOM      3  N   UNL     1       4.902   4.046  17.159  0.00  0.00    +0.000 N 
ATOM      4  C   UNL     1       4.959   4.477  18.476  0.00  0.00    +0.000 A 
ATOM      5  C   UNL     1       3.631   4.551  18.907  0.00  0.00    +0.000 A 
ENDROOT
BRANCH   4   6
ATOM      6  N   UNL     1       6.072   4.777  19.254  0.00  0.00    +0.000 N 
ATOM      7  C   UNL     1       7.054   5.704  19.023  0.00  0.00    +0.000 C 
ATOM      8  N   UNL     1       8.061   5.640  19.940  0.00  0.00    +0.000 N 
ATOM      9  O   UNL     1       7.146   6.538  18.138  0.00  0.00    +0.000 OA
ATOM     10  H   UNL     1       6.192   4.226  20.093  0.00  0.00    +0.000 HD
ATOM     11  H   UNL     1       7.815   5.510  20.908  0.00  0.00    +0.000 HD
ATOM     12  H   UNL     1       8.751   6.369  19.788  0.00  0.00    +0.000 HD
ENDBRANCH   4   6
BRANCH   1  14
ATOM     13  C   UNL     1       0.773   2.938  18.570  0.00  0.00    +0.000 C 
ATOM     14  C   UNL     1       1.386   3.971  17.629  0.00  0.00    +0.000 C 
ENDBRANCH   1  14
BRANCH   3  15
ATOM     15  C   UNL     1       5.968   3.800  16.205  0.00  0.00    +0.000 C 
BRANCH  15  16
ATOM     16  C   UNL     1       6.212   4.892  15.162  0.00  0.00    +0.000 C 
BRANCH  16  17
ATOM     17  O   UNL     1       7.446   5.571  15.417  0.00  0.00    +0.000 OA
ATOM     18  H   UNL     1       7.259   6.290  16.045  0.00  0.00    +0.000 HD
ENDBRANCH  16  17
ENDBRANCH  15  16
ENDBRANCH   3  15
BRANCH   5  19
ATOM     19  C   UNL     1       3.099   5.129  20.184  0.00  0.00    +0.000 C 
BRANCH  19  20
ATOM     20  C   UNL     1       2.474   6.500  20.023  0.00  0.00    +0.000 A 
ATOM     21  C   UNL     1       2.611   7.344  18.914  0.00  0.00    +0.000 A 
ATOM     22  C   UNL     1       1.926   8.570  18.863  0.00  0.00    +0.000 A 
ATOM     23 CL   UNL     1       2.113   9.593  17.490  0.00  0.00    +0.000 Cl
ATOM     24  C   UNL     1       1.080   8.972  19.894  0.00  0.00    +0.000 A 
ATOM     25  C   UNL     1       0.921   8.138  20.991  0.00  0.00    +0.000 A 
ATOM     26 CL   UNL     1      -0.142   8.588  22.266  0.00  0.00    +0.000 Cl
ATOM     27  C   UNL     1       1.609   6.923  21.059  0.00  0.00    +0.000 A 
ENDBRANCH  19  20
ENDBRANCH   5  19
TORSDOF 7
ENDMDL
MODEL 2
REMARK VINA RESULT:      -7.3      3.632      5.915
REMARK  Name = 
REMARK  8 active torsions:
REMARK  status: ('A' for Active; 'I' for Inactive)
REMARK    1  A    between atoms: C_1  and  C_2
REMARK    2  A    between atoms: C_2  and  C_3
REMARK    3  A    between atoms: N_5  and  C_6
REMARK    4  A    between atoms: C_6  and  C_7
REMARK    5  A    between atoms: C_7  and  O_8
REMARK    6  A    between atoms: C_9  and  N_10
REMARK    7  A    between atoms: C_14  and  C_15
REMARK    8  A    between atoms: C_15  and  C_16
REMARK                            x       y       z     vdW  Elec       q    Type
REMARK                         _______ _______ _______ _____ _____    ______ ____
ROOT
ATOM      1  C   UNL     1       2.240   6.604  19.956  0.00  0.00    +0.000 A 
ATOM      2  N   UNL     1       1.991   5.848  21.025  0.00  0.00    +0.000 NA
ATOM      3  N   UNL     1       2.490   4.631  20.732  0.00  0.00    +0.000 N 
ATOM      4  C   UNL     1       3.081   4.590  19.477  0.00  0.00    +0.000 A 
ATOM      5  C   UNL     1       2.908   5.868  18.936  0.00  0.00    +0.000 A 
ENDROOT
BRANCH   4   6
ATOM      6  N   UNL     1       3.727   3.534  18.846  0.00  0.00    +0.000 N 
ATOM      7  C   UNL     1       3.182   2.423  18.258  0.00  0.00    +0.000 C 
ATOM      8  N   UNL     1       4.126   1.532  17.844  0.00  0.00    +0.000 N 
ATOM      9  O   UNL     1       2.011   2.135  18.072  0.00  0.00    +0.000 OA
ATOM     10  H   UNL     1       4.738   3.572  18.834  0.00  0.00    +0.000 HD
ATOM     11  H   UNL     1       4.953   1.890  17.395  0.00  0.00    +0.000 HD
ATOM     12  H   UNL     1       3.709   0.742  17.361  0.00  0.00    +0.000 HD
ENDBRANCH   4   6
BRANCH   1  14
ATOM     13  C   UNL     1       1.098   8.415  21.286  0.00  0.00    +0.000 C 
ATOM     14  C   UNL     1       1.777   8.024  19.977  0.00  0.00    +0.000 C 
ENDBRANCH   1  14
BRANCH   3  15
ATOM     15  C   UNL     1       2.355   3.596  21.739  0.00  0.00    +0.000 C 
BRANCH  15  16
ATOM     16  C   UNL     1       1.215   2.596  21.538  0.00  0.00    +0.000 C 
BRANCH  16  17
ATOM     17  O   UNL     1       0.388   2.985  20.437  0.00  0.00    +0.000 OA
ATOM     18  H   UNL     1      -0.344   3.515  20.795  0.00  0.00    +0.000 HD
ENDBRANCH  16  17
ENDBRANCH  15  16
ENDBRANCH   3  15
BRANCH   5  19
ATOM     19  C   UNL     1       3.190   6.333  17.540  0.00  0.00    +0.000 C 
BRANCH  19  20
ATOM     20  C   UNL     1       4.605   6.051  17.074  0.00  0.00    +0.000 A 
ATOM     21  C   UNL     1       4.968   5.298  15.950  0.00  0.00    +0.000 A 
ATOM     22  C   UNL     1       6.320   5.163  15.589  0.00  0.00    +0.000 A 
ATOM     23 CL   UNL     1       6.742   4.230  14.205  0.00  0.00    +0.000 Cl
ATOM     24  C   UNL     1       7.330   5.784  16.319  0.00  0.00    +0.000 A 
ATOM     25  C   UNL     1       6.984   6.547  17.425  0.00  0.00    +0.000 A 
ATOM     26 CL   UNL     1       8.204   7.355  18.329  0.00  0.00    +0.000 Cl
ATOM     27  C   UNL     1       5.644   6.676  17.801  0.00  0.00    +0.000 A 
ENDBRANCH  19  20
ENDBRANCH   5  19
TORSDOF 7
ENDMDL
MODEL 3
REMARK VINA RESULT:      -7.3      3.564      5.835
REMARK  Name = 
REMARK  8 active torsions:
REMARK  status: ('A' for Active; 'I' for Inactive)
REMARK    1  A    between atoms: C_1  and  C_2
REMARK    2  A    between atoms: C_2  and  C_3
REMARK    3  A    between atoms: N_5  and  C_6
REMARK    4  A    between atoms: C_6  and  C_7
REMARK    5  A    between atoms: C_7  and  O_8
REMARK    6  A    between atoms: C_9  and  N_10
REMARK    7  A    between atoms: C_14  and  C_15
REMARK    8  A    between atoms: C_15  and  C_16
REMARK                            x       y       z     vdW  Elec       q    Type
REMARK                         _______ _______ _______ _____ _____    ______ ____
ROOT
ATOM      1  C   UNL     1       1.957   6.602  19.942  0.00  0.00    +0.000 A 
ATOM      2  N   UNL     1       1.226   5.727  20.633  0.00  0.00    +0.000 NA
ATOM      3  N   UNL     1       1.477   4.526  20.075  0.00  0.00    +0.000 N 
ATOM      4  C   UNL     1       2.383   4.608  19.028  0.00  0.00    +0.000 A 
ATOM      5  C   UNL     1       2.694   5.965  18.903  0.00  0.00    +0.000 A 
ENDROOT
BRANCH   4   6
ATOM      6  N   UNL     1       2.908   3.590  18.240  0.00  0.00    +0.000 N 
ATOM      7  C   UNL     1       3.860   2.659  18.565  0.00  0.00    +0.000 C 
ATOM      8  N   UNL     1       4.223   1.887  17.502  0.00  0.00    +0.000 N 
ATOM      9  O   UNL     1       4.407   2.445  19.634  0.00  0.00    +0.000 OA
ATOM     10  H   UNL     1       2.564   3.536  17.291  0.00  0.00    +0.000 HD
ATOM     11  H   UNL     1       3.500   1.560  16.883  0.00  0.00    +0.000 HD
ATOM     12  H   UNL     1       4.886   1.167  17.772  0.00  0.00    +0.000 HD
ENDBRANCH   4   6
BRANCH   1  14
ATOM     13  C   UNL     1       0.777   8.329  21.346  0.00  0.00    +0.000 C 
ATOM     14  C   UNL     1       1.869   8.044  20.321  0.00  0.00    +0.000 C 
ENDBRANCH   1  14
BRANCH   3  15
ATOM     15  C   UNL     1       0.802   3.374  20.644  0.00  0.00    +0.000 C 
BRANCH  15  16
ATOM     16  C   UNL     1       1.622   2.511  21.605  0.00  0.00    +0.000 C 
BRANCH  16  17
ATOM     17  O   UNL     1       2.647   3.287  22.234  0.00  0.00    +0.000 OA
ATOM     18  H   UNL     1       2.245   3.734  22.999  0.00  0.00    +0.000 HD
ENDBRANCH  16  17
ENDBRANCH  15  16
ENDBRANCH   3  15
BRANCH   5  19
ATOM     19  C   UNL     1       3.481   6.643  17.823  0.00  0.00    +0.000 C 
BRANCH  19  20
ATOM     20  C   UNL     1       4.763   5.923  17.453  0.00  0.00    +0.000 A 
ATOM     21  C   UNL     1       5.050   5.335  16.214  0.00  0.00    +0.000 A 
ATOM     22  C   UNL     1       6.305   4.750  15.978  0.00  0.00    +0.000 A 
ATOM     23 CL   UNL     1       6.634   4.030  14.449  0.00  0.00    +0.000 Cl
ATOM     24  C   UNL     1       7.302   4.754  16.951  0.00  0.00    +0.000 A 
ATOM     25  C   UNL     1       7.038   5.349  18.176  0.00  0.00    +0.000 A 
ATOM     26 CL   UNL     1       8.258   5.402  19.387  0.00  0.00    +0.000 Cl
ATOM     27  C   UNL     1       5.787   5.921  18.427  0.00  0.00    +0.000 A 
ENDBRANCH  19  20
ENDBRANCH   5  19
TORSDOF 7
ENDMDL
MODEL 4
REMARK VINA RESULT:      -7.3      3.642      6.014
REMARK  Name = 
REMARK  8 active torsions:
REMARK  status: ('A' for Active; 'I' for Inactive)
REMARK    1  A    between atoms: C_1  and  C_2
REMARK    2  A    between atoms: C_2  and  C_3
REMARK    3  A    between atoms: N_5  and  C_6
REMARK    4  A    between atoms: C_6  and  C_7
REMARK    5  A    between atoms: C_7  and  O_8
REMARK    6  A    between atoms: C_9  and  N_10
REMARK    7  A    between atoms: C_14  and  C_15
REMARK    8  A    between atoms: C_15  and  C_16
REMARK                            x       y       z     vdW  Elec       q    Type
REMARK                         _______ _______ _______ _____ _____    ______ ____
ROOT
ATOM      1  C   UNL     1       2.185   6.630  19.935  0.00  0.00    +0.000 A 
ATOM      2  N   UNL     1       1.941   5.887  21.014  0.00  0.00    +0.000 NA
ATOM      3  N   UNL     1       2.448   4.670  20.737  0.00  0.00    +0.000 N 
ATOM      4  C   UNL     1       3.038   4.615  19.482  0.00  0.00    +0.000 A 
ATOM      5  C   UNL     1       2.856   5.885  18.925  0.00  0.00    +0.000 A 
ENDROOT
BRANCH   4   6
ATOM      6  N   UNL     1       3.691   3.555  18.865  0.00  0.00    +0.000 N 
ATOM      7  C   UNL     1       3.152   2.448  18.265  0.00  0.00    +0.000 C 
ATOM      8  N   UNL     1       4.099   1.551  17.871  0.00  0.00    +0.000 N 
ATOM      9  O   UNL     1       1.984   2.169  18.052  0.00  0.00    +0.000 OA
ATOM     10  H   UNL     1       4.702   3.586  18.876  0.00  0.00    +0.000 HD
ATOM     11  H   UNL     1       4.938   1.903  17.441  0.00  0.00    +0.000 HD
ATOM     12  H   UNL     1       3.687   0.765  17.378  0.00  0.00    +0.000 HD
ENDBRANCH   4   6
BRANCH   1  14
ATOM     13  C   UNL     1       1.169   8.497  21.290  0.00  0.00    +0.000 C 
ATOM     14  C   UNL     1       1.712   8.047  19.937  0.00  0.00    +0.000 C 
ENDBRANCH   1  14
BRANCH   3  15
ATOM     15  C   UNL     1       2.321   3.647  21.759  0.00  0.00    +0.000 C 
BRANCH  15  16
ATOM     16  C   UNL     1       1.266   2.567  21.512  0.00  0.00    +0.000 C 
BRANCH  16  17
ATOM     17  O   UNL     1       0.362   2.968  20.477  0.00  0.00    +0.000 OA
ATOM     18  H   UNL     1      -0.459   2.460  20.594  0.00  0.00    +0.000 HD
ENDBRANCH  16  17
ENDBRANCH  15  16
ENDBRANCH   3  15
BRANCH   5  19
ATOM     19  C   UNL     1       3.135   6.332  17.522  0.00  0.00    +0.000 C 
BRANCH  19  20
ATOM     20  C   UNL     1       4.603   6.295  17.146  0.00  0.00    +0.000 A 
ATOM     21  C   UNL     1       5.636   6.988  17.789  0.00  0.00    +0.000 A 
ATOM     22  C   UNL     1       6.970   6.820  17.379  0.00  0.00    +0.000 A 
ATOM     23 CL   UNL     1       8.223   7.684  18.184  0.00  0.00    +0.000 Cl
ATOM     24  C   UNL     1       7.306   5.951  16.343  0.00  0.00    +0.000 A 
ATOM     25  C   UNL     1       6.295   5.245  15.708  0.00  0.00    +0.000 A 
ATOM     26 CL   UNL     1       6.678   4.138  14.449  0.00  0.00    +0.000 Cl
ATOM     27  C   UNL     1       4.963   5.416  16.099  0.00  0.00    +0.000 A 
ENDBRANCH  19  20
ENDBRANCH   5  19
TORSDOF 7
ENDMDL
MODEL 5
REMARK VINA RESULT:      -7.2      3.623      6.038
REMARK  Name = 
REMARK  8 active torsions:
REMARK  status: ('A' for Active; 'I' for Inactive)
REMARK    1  A    between atoms: C_1  and  C_2
REMARK    2  A    between atoms: C_2  and  C_3
REMARK    3  A    between atoms: N_5  and  C_6
REMARK    4  A    between atoms: C_6  and  C_7
REMARK    5  A    between atoms: C_7  and  O_8
REMARK    6  A    between atoms: C_9  and  N_10
REMARK    7  A    between atoms: C_14  and  C_15
REMARK    8  A    between atoms: C_15  and  C_16
REMARK                            x       y       z     vdW  Elec       q    Type
REMARK                         _______ _______ _______ _____ _____    ______ ____
ROOT
ATOM      1  C   UNL     1       1.956   6.470  19.918  0.00  0.00    +0.000 A 
ATOM      2  N   UNL     1       1.233   5.595  20.617  0.00  0.00    +0.000 NA
ATOM      3  N   UNL     1       1.481   4.393  20.059  0.00  0.00    +0.000 N 
ATOM      4  C   UNL     1       2.377   4.475  19.004  0.00  0.00    +0.000 A 
ATOM      5  C   UNL     1       2.686   5.833  18.874  0.00  0.00    +0.000 A 
ENDROOT
BRANCH   4   6
ATOM      6  N   UNL     1       2.898   3.456  18.214  0.00  0.00    +0.000 N 
ATOM      7  C   UNL     1       3.812   2.493  18.550  0.00  0.00    +0.000 C 
ATOM      8  N   UNL     1       4.186   1.730  17.484  0.00  0.00    +0.000 N 
ATOM      9  O   UNL     1       4.319   2.243  19.630  0.00  0.00    +0.000 OA
ATOM     10  H   UNL     1       2.582   3.430  17.253  0.00  0.00    +0.000 HD
ATOM     11  H   UNL     1       3.473   1.436  16.836  0.00  0.00    +0.000 HD
ATOM     12  H   UNL     1       4.819   0.986  17.760  0.00  0.00    +0.000 HD
ENDBRANCH   4   6
BRANCH   1  14
ATOM     13  C   UNL     1       0.805   8.193  21.352  0.00  0.00    +0.000 C 
ATOM     14  C   UNL     1       1.869   7.912  20.295  0.00  0.00    +0.000 C 
ENDBRANCH   1  14
BRANCH   3  15
ATOM     15  C   UNL     1       0.813   3.241  20.636  0.00  0.00    +0.000 C 
BRANCH  15  16
ATOM     16  C   UNL     1       1.554   2.517  21.761  0.00  0.00    +0.000 C 
BRANCH  16  17
ATOM     17  O   UNL     1       2.736   3.235  22.133  0.00  0.00    +0.000 OA
ATOM     18  H   UNL     1       3.072   2.837  22.954  0.00  0.00    +0.000 HD
ENDBRANCH  16  17
ENDBRANCH  15  16
ENDBRANCH   3  15
BRANCH   5  19
ATOM     19  C   UNL     1       3.462   6.510  17.786  0.00  0.00    +0.000 C 
BRANCH  19  20
ATOM     20  C   UNL     1       4.853   5.943  17.580  0.00  0.00    +0.000 A 
ATOM     21  C   UNL     1       5.876   5.904  18.534  0.00  0.00    +0.000 A 
ATOM     22  C   UNL     1       7.106   5.293  18.235  0.00  0.00    +0.000 A 
ATOM     23 CL   UNL     1       8.351   5.258  19.424  0.00  0.00    +0.000 Cl
ATOM     24  C   UNL     1       7.337   4.694  16.998  0.00  0.00    +0.000 A 
ATOM     25  C   UNL     1       6.325   4.711  16.049  0.00  0.00    +0.000 A 
ATOM     26 CL   UNL     1       6.564   3.952  14.524  0.00  0.00    +0.000 Cl
ATOM     27  C   UNL     1       5.103   5.329  16.331  0.00  0.00    +0.000 A 
ENDBRANCH  19  20
ENDBRANCH   5  19
TORSDOF 7
ENDMDL
MODEL 6
REMARK VINA RESULT:      -7.0      0.343      1.900
REMARK  Name = 
REMARK  8 active torsions:
REMARK  status: ('A' for Active; 'I' for Inactive)
REMARK    1  A    between atoms: C_1  and  C_2
REMARK    2  A    between atoms: C_2  and  C_3
REMARK    3  A    between atoms: N_5  and  C_6
REMARK    4  A    between atoms: C_6  and  C_7
REMARK    5  A    between atoms: C_7  and  O_8
REMARK    6  A    between atoms: C_9  and  N_10
REMARK    7  A    between atoms: C_14  and  C_15
REMARK    8  A    between atoms: C_15  and  C_16
REMARK                            x       y       z     vdW  Elec       q    Type
REMARK                         _______ _______ _______ _____ _____    ______ ____
ROOT
ATOM      1  C   UNL     1       2.683   3.947  17.978  0.00  0.00    +0.000 A 
ATOM      2  N   UNL     1       3.405   3.683  16.888  0.00  0.00    +0.000 NA
ATOM      3  N   UNL     1       4.682   3.945  17.228  0.00  0.00    +0.000 N 
ATOM      4  C   UNL     1       4.804   4.367  18.544  0.00  0.00    +0.000 A 
ATOM      5  C   UNL     1       3.501   4.400  19.052  0.00  0.00    +0.000 A 
ENDROOT
BRANCH   4   6
ATOM      6  N   UNL     1       5.950   4.692  19.259  0.00  0.00    +0.000 N 
ATOM      7  C   UNL     1       6.904   5.632  18.969  0.00  0.00    +0.000 C 
ATOM      8  N   UNL     1       7.958   5.593  19.832  0.00  0.00    +0.000 N 
ATOM      9  O   UNL     1       6.936   6.459  18.073  0.00  0.00    +0.000 OA
ATOM     10  H   UNL     1       6.123   4.151  20.096  0.00  0.00    +0.000 HD
ATOM     11  H   UNL     1       7.766   5.468  20.812  0.00  0.00    +0.000 HD
ATOM     12  H   UNL     1       8.627   6.332  19.638  0.00  0.00    +0.000 HD
ENDBRANCH   4   6
BRANCH   1  14
ATOM     13  C   UNL     1       0.701   2.565  18.693  0.00  0.00    +0.000 C 
ATOM     14  C   UNL     1       1.203   3.767  17.899  0.00  0.00    +0.000 C 
ENDBRANCH   1  14
BRANCH   3  15
ATOM     15  C   UNL     1       5.698   3.738  16.212  0.00  0.00    +0.000 C 
BRANCH  15  16
ATOM     16  C   UNL     1       5.687   4.711  15.032  0.00  0.00    +0.000 C 
BRANCH  16  17
ATOM     17  O   UNL     1       6.617   5.778  15.246  0.00  0.00    +0.000 OA
ATOM     18  H   UNL     1       7.178   5.528  16.000  0.00  0.00    +0.000 HD
ENDBRANCH  16  17
ENDBRANCH  15  16
ENDBRANCH   3  15
BRANCH   5  19
ATOM     19  C   UNL     1       3.028   4.952  20.362  0.00  0.00    +0.000 C 
BRANCH  19  20
ATOM     20  C   UNL     1       2.294   6.273  20.242  0.00  0.00    +0.000 A 
ATOM     21  C   UNL     1       1.432   6.826  21.198  0.00  0.00    +0.000 A 
ATOM     22  C   UNL     1       0.860   8.094  20.992  0.00  0.00    +0.000 A 
ATOM     23 CL   UNL     1      -0.199   8.752  22.179  0.00  0.00    +0.000 Cl
ATOM     24  C   UNL     1       1.146   8.842  19.852  0.00  0.00    +0.000 A 
ATOM     25  C   UNL     1       2.012   8.314  18.905  0.00  0.00    +0.000 A 
ATOM     26 CL   UNL     1       2.413   9.225  17.503  0.00  0.00    +0.000 Cl
ATOM     27  C   UNL     1       2.575   7.048  19.094  0.00  0.00    +0.000 A 
ENDBRANCH  19  20
ENDBRANCH   5  19
TORSDOF 7
ENDMDL
MODEL 7
REMARK VINA RESULT:      -7.0      3.852      6.384
REMARK  Name = 
REMARK  8 active torsions:
REMARK  status: ('A' for Active; 'I' for Inactive)
REMARK    1  A    between atoms: C_1  and  C_2
REMARK    2  A    between atoms: C_2  and  C_3
REMARK    3  A    between atoms: N_5  and  C_6
REMARK    4  A    between atoms: C_6  and  C_7
REMARK    5  A    between atoms: C_7  and  O_8
REMARK    6  A    between atoms: C_9  and  N_10
REMARK    7  A    between atoms: C_14  and  C_15
REMARK    8  A    between atoms: C_15  and  C_16
REMARK                            x       y       z     vdW  Elec       q    Type
REMARK                         _______ _______ _______ _____ _____    ______ ____
ROOT
ATOM      1  C   UNL     1       3.319   4.253  17.241  0.00  0.00    +0.000 A 
ATOM      2  N   UNL     1       2.628   5.255  17.786  0.00  0.00    +0.000 NA
ATOM      3  N   UNL     1       3.448   6.324  17.745  0.00  0.00    +0.000 N 
ATOM      4  C   UNL     1       4.672   6.030  17.162  0.00  0.00    +0.000 A 
ATOM      5  C   UNL     1       4.622   4.669  16.845  0.00  0.00    +0.000 A 
ENDROOT
BRANCH   4   6
ATOM      6  N   UNL     1       5.750   6.872  16.915  0.00  0.00    +0.000 N 
ATOM      7  C   UNL     1       6.950   6.945  17.573  0.00  0.00    +0.000 C 
ATOM      8  N   UNL     1       7.726   7.975  17.135  0.00  0.00    +0.000 N 
ATOM      9  O   UNL     1       7.391   6.242  18.467  0.00  0.00    +0.000 OA
ATOM     10  H   UNL     1       5.633   7.539  16.164  0.00  0.00    +0.000 HD
ATOM     11  H   UNL     1       7.771   8.149  16.144  0.00  0.00    +0.000 HD
ATOM     12  H   UNL     1       8.633   7.980  17.592  0.00  0.00    +0.000 HD
ENDBRANCH   4   6
BRANCH   1  14
ATOM     13  C   UNL     1       1.972   2.507  18.460  0.00  0.00    +0.000 C 
ATOM     14  C   UNL     1       2.668   2.911  17.164  0.00  0.00    +0.000 C 
ENDBRANCH   1  14
BRANCH   3  15
ATOM     15  C   UNL     1       2.939   7.573  18.281  0.00  0.00    +0.000 C 
BRANCH  15  16
ATOM     16  C   UNL     1       2.043   7.468  19.516  0.00  0.00    +0.000 C 
BRANCH  16  17
ATOM     17  O   UNL     1       2.635   6.617  20.502  0.00  0.00    +0.000 OA
ATOM     18  H   UNL     1       2.577   7.077  21.357  0.00  0.00    +0.000 HD
ENDBRANCH  16  17
ENDBRANCH  15  16
ENDBRANCH   3  15
BRANCH   5  19
ATOM     19  C   UNL     1       5.732   3.786  16.362  0.00  0.00    +0.000 C 
BRANCH  19  20
ATOM     20  C   UNL     1       6.162   4.065  14.935  0.00  0.00    +0.000 A 
ATOM     21  C   UNL     1       7.232   4.879  14.541  0.00  0.00    +0.000 A 
ATOM     22  C   UNL     1       7.566   5.007  13.182  0.00  0.00    +0.000 A 
ATOM     23 CL   UNL     1       8.883   6.015  12.720  0.00  0.00    +0.000 Cl
ATOM     24  C   UNL     1       6.865   4.318  12.195  0.00  0.00    +0.000 A 
ATOM     25  C   UNL     1       5.814   3.494  12.572  0.00  0.00    +0.000 A 
ATOM     26 CL   UNL     1       4.949   2.603  11.383  0.00  0.00    +0.000 Cl
ATOM     27  C   UNL     1       5.464   3.372  13.920  0.00  0.00    +0.000 A 
ENDBRANCH  19  20
ENDBRANCH   5  19
TORSDOF 7
ENDMDL
MODEL 8
REMARK VINA RESULT:      -6.9      3.799      6.358
REMARK  Name = 
REMARK  8 active torsions:
REMARK  status: ('A' for Active; 'I' for Inactive)
REMARK    1  A    between atoms: C_1  and  C_2
REMARK    2  A    between atoms: C_2  and  C_3
REMARK    3  A    between atoms: N_5  and  C_6
REMARK    4  A    between atoms: C_6  and  C_7
REMARK    5  A    between atoms: C_7  and  O_8
REMARK    6  A    between atoms: C_9  and  N_10
REMARK    7  A    between atoms: C_14  and  C_15
REMARK    8  A    between atoms: C_15  and  C_16
REMARK                            x       y       z     vdW  Elec       q    Type
REMARK                         _______ _______ _______ _____ _____    ______ ____
ROOT
ATOM      1  C   UNL     1       3.316   4.186  17.307  0.00  0.00    +0.000 A 
ATOM      2  N   UNL     1       2.559   5.150  17.831  0.00  0.00    +0.000 NA
ATOM      3  N   UNL     1       3.315   6.265  17.793  0.00  0.00    +0.000 N 
ATOM      4  C   UNL     1       4.563   6.039  17.231  0.00  0.00    +0.000 A 
ATOM      5  C   UNL     1       4.598   4.674  16.926  0.00  0.00    +0.000 A 
ENDROOT
BRANCH   4   6
ATOM      6  N   UNL     1       5.594   6.939  16.992  0.00  0.00    +0.000 N 
ATOM      7  C   UNL     1       6.824   7.014  17.591  0.00  0.00    +0.000 C 
ATOM      8  N   UNL     1       7.537   8.104  17.192  0.00  0.00    +0.000 N 
ATOM      9  O   UNL     1       7.340   6.268  18.407  0.00  0.00    +0.000 OA
ATOM     10  H   UNL     1       5.412   7.654  16.300  0.00  0.00    +0.000 HD
ATOM     11  H   UNL     1       7.522   8.351  16.216  0.00  0.00    +0.000 HD
ATOM     12  H   UNL     1       8.466   8.114  17.601  0.00  0.00    +0.000 HD
ENDBRANCH   4   6
BRANCH   1  14
ATOM     13  C   UNL     1       1.697   2.534  18.307  0.00  0.00    +0.000 C 
ATOM     14  C   UNL     1       2.745   2.808  17.233  0.00  0.00    +0.000 C 
ENDBRANCH   1  14
BRANCH   3  15
ATOM     15  C   UNL     1       2.727   7.487  18.309  0.00  0.00    +0.000 C 
BRANCH  15  16
ATOM     16  C   UNL     1       2.301   7.469  19.778  0.00  0.00    +0.000 C 
BRANCH  16  17
ATOM     17  O   UNL     1       2.668   6.232  20.398  0.00  0.00    +0.000 OA
ATOM     18  H   UNL     1       3.614   6.286  20.618  0.00  0.00    +0.000 HD
ENDBRANCH  16  17
ENDBRANCH  15  16
ENDBRANCH   3  15
BRANCH   5  19
ATOM     19  C   UNL     1       5.765   3.854  16.468  0.00  0.00    +0.000 C 
BRANCH  19  20
ATOM     20  C   UNL     1       6.036   3.949  14.980  0.00  0.00    +0.000 A 
ATOM     21  C   UNL     1       5.245   3.404  13.961  0.00  0.00    +0.000 A 
ATOM     22  C   UNL     1       5.575   3.616  12.611  0.00  0.00    +0.000 A 
ATOM     23 CL   UNL     1       4.588   2.934  11.376  0.00  0.00    +0.000 Cl
ATOM     24  C   UNL     1       6.677   4.386  12.247  0.00  0.00    +0.000 A 
ATOM     25  C   UNL     1       7.461   4.947  13.246  0.00  0.00    +0.000 A 
ATOM     26 CL   UNL     1       8.809   5.931  12.831  0.00  0.00    +0.000 Cl
ATOM     27  C   UNL     1       7.149   4.729  14.591  0.00  0.00    +0.000 A 
ENDBRANCH  19  20
ENDBRANCH   5  19
TORSDOF 7
ENDMDL
MODEL 9
REMARK VINA RESULT:      -6.9      3.913      6.331
REMARK  Name = 
REMARK  8 active torsions:
REMARK  status: ('A' for Active; 'I' for Inactive)
REMARK    1  A    between atoms: C_1  and  C_2
REMARK    2  A    between atoms: C_2  and  C_3
REMARK    3  A    between atoms: N_5  and  C_6
REMARK    4  A    between atoms: C_6  and  C_7
REMARK    5  A    between atoms: C_7  and  O_8
REMARK    6  A    between atoms: C_9  and  N_10
REMARK    7  A    between atoms: C_14  and  C_15
REMARK    8  A    between atoms: C_15  and  C_16
REMARK                            x       y       z     vdW  Elec       q    Type
REMARK                         _______ _______ _______ _____ _____    ______ ____
ROOT
ATOM      1  C   UNL     1       3.371   4.429  17.381  0.00  0.00    +0.000 A 
ATOM      2  N   UNL     1       2.669   5.436  17.900  0.00  0.00    +0.000 NA
ATOM      3  N   UNL     1       3.486   6.506  17.859  0.00  0.00    +0.000 N 
ATOM      4  C   UNL     1       4.720   6.209  17.300  0.00  0.00    +0.000 A 
ATOM      5  C   UNL     1       4.679   4.843  17.000  0.00  0.00    +0.000 A 
ENDROOT
BRANCH   4   6
ATOM      6  N   UNL     1       5.800   7.050  17.058  0.00  0.00    +0.000 N 
ATOM      7  C   UNL     1       7.022   7.075  17.676  0.00  0.00    +0.000 C 
ATOM      8  N   UNL     1       7.797   8.118  17.265  0.00  0.00    +0.000 N 
ATOM      9  O   UNL     1       7.486   6.321  18.516  0.00  0.00    +0.000 OA
ATOM     10  H   UNL     1       5.665   7.757  16.348  0.00  0.00    +0.000 HD
ATOM     11  H   UNL     1       7.809   8.344  16.284  0.00  0.00    +0.000 HD
ATOM     12  H   UNL     1       8.719   8.089  17.689  0.00  0.00    +0.000 HD
ENDBRANCH   4   6
BRANCH   1  14
ATOM     13  C   UNL     1       1.619   2.896  18.345  0.00  0.00    +0.000 C 
ATOM     14  C   UNL     1       2.725   3.084  17.312  0.00  0.00    +0.000 C 
ENDBRANCH   1  14
BRANCH   3  15
ATOM     15  C   UNL     1       2.965   7.761  18.369  0.00  0.00    +0.000 C 
BRANCH  15  16
ATOM     16  C   UNL     1       1.814   8.390  17.581  0.00  0.00    +0.000 C 
BRANCH  16  17
ATOM     17  O   UNL     1       2.009   9.802  17.439  0.00  0.00    +0.000 OA
ATOM     18  H   UNL     1       2.532   9.944  16.632  0.00  0.00    +0.000 HD
ENDBRANCH  16  17
ENDBRANCH  15  16
ENDBRANCH   3  15
BRANCH   5  19
ATOM     19  C   UNL     1       5.800   3.957  16.548  0.00  0.00    +0.000 C 
BRANCH  19  20
ATOM     20  C   UNL     1       6.067   4.017  15.057  0.00  0.00    +0.000 A 
ATOM     21  C   UNL     1       5.268   3.455  14.053  0.00  0.00    +0.000 A 
ATOM     22  C   UNL     1       5.595   3.635  12.698  0.00  0.00    +0.000 A 
ATOM     23 CL   UNL     1       4.600   2.932  11.482  0.00  0.00    +0.000 Cl
ATOM     24  C   UNL     1       6.701   4.390  12.313  0.00  0.00    +0.000 A 
ATOM     25  C   UNL     1       7.491   4.968  13.296  0.00  0.00    +0.000 A 
ATOM     26 CL   UNL     1       8.844   5.934  12.855  0.00  0.00    +0.000 Cl
ATOM     27  C   UNL     1       7.183   4.782  14.647  0.00  0.00    +0.000 A 
ENDBRANCH  19  20
ENDBRANCH   5  19
TORSDOF 7
ENDMDL
