MODEL 1
REMARK VINA RESULT:      -8.2      0.000      0.000
REMARK  Name = 
REMARK  3 active torsions:
REMARK  status: ('A' for Active; 'I' for Inactive)
REMARK    1  A    between atoms: C_1  and  O_2
REMARK    2  A    between atoms: O_2  and  C_3
REMARK    3  A    between atoms: C_6  and  C_7
REMARK                            x       y       z     vdW  Elec       q    Type
REMARK                         _______ _______ _______ _____ _____    ______ ____
ROOT
ATOM      1  C   UNL     1       4.721   4.009  18.427  0.00  0.00    +0.000 C 
ATOM      2  N   UNL     1       5.234   2.820  19.052  0.00  0.00    +0.000 N 
ATOM      3  C   UNL     1       4.640   2.439  20.230  0.00  0.00    +0.000 C 
ATOM      4  O   UNL     1       5.182   1.709  21.044  0.00  0.00    +0.000 OA
ATOM      5  C   UNL     1       3.246   2.884  20.370  0.00  0.00    +0.000 A 
ATOM      6  C   UNL     1       2.507   2.599  21.519  0.00  0.00    +0.000 A 
ATOM      7  C   UNL     1       1.128   2.811  21.512  0.00  0.00    +0.000 A 
ATOM      8  C   UNL     1       0.498   3.279  20.354  0.00  0.00    +0.000 A 
ATOM      9  C   UNL     1       1.244   3.596  19.218  0.00  0.00    +0.000 A 
ATOM     10  C   UNL     1       2.629   3.438  19.243  0.00  0.00    +0.000 A 
ATOM     11  O   UNL     1       3.337   3.787  18.119  0.00  0.00    +0.000 OA
ATOM     12  H   UNL     1       5.319   2.036  18.416  0.00  0.00    +0.000 HD
ENDROOT
BRANCH   1  16
ATOM     13  C   UNL     1       7.051   5.027  14.904  0.00  0.00    +0.000 A 
ATOM     14  C   UNL     1       7.381   5.564  16.150  0.00  0.00    +0.000 A 
ATOM     15  C   UNL     1       6.641   5.237  17.289  0.00  0.00    +0.000 A 
ATOM     16  C   UNL     1       5.531   4.387  17.199  0.00  0.00    +0.000 A 
ATOM     17  C   UNL     1       5.226   3.829  15.944  0.00  0.00    +0.000 A 
ATOM     18  C   UNL     1       5.973   4.152  14.804  0.00  0.00    +0.000 A 
BRANCH  13  20
ATOM     19  C   UNL     1       7.544   4.913  12.587  0.00  0.00    +0.000 C 
ATOM     20  O   UNL     1       7.837   5.453  13.870  0.00  0.00    +0.000 OA
ENDBRANCH  13  20
ENDBRANCH   1  16
TORSDOF 2
ENDMDL
MODEL 2
REMARK VINA RESULT:      -8.2      0.303      1.112
REMARK  Name = 
REMARK  3 active torsions:
REMARK  status: ('A' for Active; 'I' for Inactive)
REMARK    1  A    between atoms: C_1  and  O_2
REMARK    2  A    between atoms: O_2  and  C_3
REMARK    3  A    between atoms: C_6  and  C_7
REMARK                            x       y       z     vdW  Elec       q    Type
REMARK                         _______ _______ _______ _____ _____    ______ ____
ROOT
ATOM      1  C   UNL     1       4.692   3.947  18.320  0.00  0.00    +0.000 C 
ATOM      2  N   UNL     1       5.217   2.773  18.965  0.00  0.00    +0.000 N 
ATOM      3  C   UNL     1       4.654   2.432  20.171  0.00  0.00    +0.000 C 
ATOM      4  O   UNL     1       5.216   1.723  20.991  0.00  0.00    +0.000 OA
ATOM      5  C   UNL     1       3.268   2.890  20.338  0.00  0.00    +0.000 A 
ATOM      6  C   UNL     1       2.561   2.644  21.517  0.00  0.00    +0.000 A 
ATOM      7  C   UNL     1       1.184   2.865  21.544  0.00  0.00    +0.000 A 
ATOM      8  C   UNL     1       0.523   3.302  20.390  0.00  0.00    +0.000 A 
ATOM      9  C   UNL     1       1.237   3.581  19.225  0.00  0.00    +0.000 A 
ATOM     10  C   UNL     1       2.622   3.414  19.214  0.00  0.00    +0.000 A 
ATOM     11  O   UNL     1       3.298   3.725  18.059  0.00  0.00    +0.000 OA
ATOM     12  H   UNL     1       5.278   1.971  18.351  0.00  0.00    +0.000 HD
ENDROOT
BRANCH   1  16
ATOM     13  C   UNL     1       6.919   4.969  14.733  0.00  0.00    +0.000 A 
ATOM     14  C   UNL     1       5.624   4.457  14.639  0.00  0.00    +0.000 A 
ATOM     15  C   UNL     1       4.898   4.132  15.788  0.00  0.00    +0.000 A 
ATOM     16  C   UNL     1       5.468   4.283  17.059  0.00  0.00    +0.000 A 
ATOM     17  C   UNL     1       6.763   4.827  17.142  0.00  0.00    +0.000 A 
ATOM     18  C   UNL     1       7.487   5.160  15.990  0.00  0.00    +0.000 A 
BRANCH  13  20
ATOM     19  C   UNL     1       7.147   4.381  12.446  0.00  0.00    +0.000 C 
ATOM     20  O   UNL     1       7.526   5.218  13.533  0.00  0.00    +0.000 OA
ENDBRANCH  13  20
ENDBRANCH   1  16
TORSDOF 2
ENDMDL
MODEL 3
REMARK VINA RESULT:      -7.5      1.760      7.003
REMARK  Name = 
REMARK  3 active torsions:
REMARK  status: ('A' for Active; 'I' for Inactive)
REMARK    1  A    between atoms: C_1  and  O_2
REMARK    2  A    between atoms: O_2  and  C_3
REMARK    3  A    between atoms: C_6  and  C_7
REMARK                            x       y       z     vdW  Elec       q    Type
REMARK                         _______ _______ _______ _____ _____    ______ ____
ROOT
ATOM      1  C   UNL     1       5.150   3.945  16.645  0.00  0.00    +0.000 C 
ATOM      2  N   UNL     1       5.679   5.269  16.837  0.00  0.00    +0.000 N 
ATOM      3  C   UNL     1       6.737   5.630  16.039  0.00  0.00    +0.000 C 
ATOM      4  O   UNL     1       7.510   6.531  16.325  0.00  0.00    +0.000 OA
ATOM      5  C   UNL     1       6.787   4.923  14.752  0.00  0.00    +0.000 A 
ATOM      6  C   UNL     1       7.813   5.159  13.836  0.00  0.00    +0.000 A 
ATOM      7  C   UNL     1       7.692   4.668  12.535  0.00  0.00    +0.000 A 
ATOM      8  C   UNL     1       6.540   3.971  12.156  0.00  0.00    +0.000 A 
ATOM      9  C   UNL     1       5.531   3.707  13.083  0.00  0.00    +0.000 A 
ATOM     10  C   UNL     1       5.677   4.149  14.397  0.00  0.00    +0.000 A 
ATOM     11  O   UNL     1       4.680   3.846  15.292  0.00  0.00    +0.000 OA
ATOM     12  H   UNL     1       4.966   5.988  16.846  0.00  0.00    +0.000 HD
ENDROOT
BRANCH   1  16
ATOM     13  C   UNL     1       2.016   3.088  19.528  0.00  0.00    +0.000 A 
ATOM     14  C   UNL     1       3.355   3.099  19.921  0.00  0.00    +0.000 A 
ATOM     15  C   UNL     1       4.369   3.380  19.003  0.00  0.00    +0.000 A 
ATOM     16  C   UNL     1       4.065   3.626  17.657  0.00  0.00    +0.000 A 
ATOM     17  C   UNL     1       2.710   3.641  17.278  0.00  0.00    +0.000 A 
ATOM     18  C   UNL     1       1.694   3.367  18.202  0.00  0.00    +0.000 A 
BRANCH  13  20
ATOM     19  C   UNL     1       1.666   2.632  21.830  0.00  0.00    +0.000 C 
ATOM     20  O   UNL     1       1.129   2.771  20.519  0.00  0.00    +0.000 OA
ENDBRANCH  13  20
ENDBRANCH   1  16
TORSDOF 2
ENDMDL
MODEL 4
REMARK VINA RESULT:      -7.4      1.782      7.085
REMARK  Name = 
REMARK  3 active torsions:
REMARK  status: ('A' for Active; 'I' for Inactive)
REMARK    1  A    between atoms: C_1  and  O_2
REMARK    2  A    between atoms: O_2  and  C_3
REMARK    3  A    between atoms: C_6  and  C_7
REMARK                            x       y       z     vdW  Elec       q    Type
REMARK                         _______ _______ _______ _____ _____    ______ ____
ROOT
ATOM      1  C   UNL     1       5.165   4.009  16.641  0.00  0.00    +0.000 C 
ATOM      2  N   UNL     1       5.711   5.331  16.792  0.00  0.00    +0.000 N 
ATOM      3  C   UNL     1       6.761   5.659  15.970  0.00  0.00    +0.000 C 
ATOM      4  O   UNL     1       7.549   6.558  16.222  0.00  0.00    +0.000 OA
ATOM      5  C   UNL     1       6.783   4.921  14.700  0.00  0.00    +0.000 A 
ATOM      6  C   UNL     1       7.798   5.122  13.763  0.00  0.00    +0.000 A 
ATOM      7  C   UNL     1       7.651   4.600  12.477  0.00  0.00    +0.000 A 
ATOM      8  C   UNL     1       6.485   3.909  12.132  0.00  0.00    +0.000 A 
ATOM      9  C   UNL     1       5.488   3.679  13.081  0.00  0.00    +0.000 A 
ATOM     10  C   UNL     1       5.659   4.151  14.382  0.00  0.00    +0.000 A 
ATOM     11  O   UNL     1       4.672   3.883  15.298  0.00  0.00    +0.000 OA
ATOM     12  H   UNL     1       5.008   6.058  16.795  0.00  0.00    +0.000 HD
ENDROOT
BRANCH   1  16
ATOM     13  C   UNL     1       2.126   3.150  19.624  0.00  0.00    +0.000 A 
ATOM     14  C   UNL     1       1.775   3.304  18.281  0.00  0.00    +0.000 A 
ATOM     15  C   UNL     1       2.747   3.574  17.314  0.00  0.00    +0.000 A 
ATOM     16  C   UNL     1       4.092   3.728  17.677  0.00  0.00    +0.000 A 
ATOM     17  C   UNL     1       4.437   3.541  19.029  0.00  0.00    +0.000 A 
ATOM     18  C   UNL     1       3.462   3.263  19.996  0.00  0.00    +0.000 A 
BRANCH  13  20
ATOM     19  C   UNL     1       1.403   2.555  21.803  0.00  0.00    +0.000 C 
ATOM     20  O   UNL     1       1.075   2.917  20.467  0.00  0.00    +0.000 OA
ENDBRANCH  13  20
ENDBRANCH   1  16
TORSDOF 2
ENDMDL
MODEL 5
REMARK VINA RESULT:      -7.2      4.022      6.966
REMARK  Name = 
REMARK  3 active torsions:
REMARK  status: ('A' for Active; 'I' for Inactive)
REMARK    1  A    between atoms: C_1  and  O_2
REMARK    2  A    between atoms: O_2  and  C_3
REMARK    3  A    between atoms: C_6  and  C_7
REMARK                            x       y       z     vdW  Elec       q    Type
REMARK                         _______ _______ _______ _____ _____    ______ ____
ROOT
ATOM      1  C   UNL     1       3.129   6.344  18.339  0.00  0.00    +0.000 C 
ATOM      2  N   UNL     1       3.977   5.632  19.256  0.00  0.00    +0.000 N 
ATOM      3  C   UNL     1       4.701   4.586  18.739  0.00  0.00    +0.000 C 
ATOM      4  O   UNL     1       5.152   3.682  19.426  0.00  0.00    +0.000 OA
ATOM      5  C   UNL     1       4.994   4.710  17.304  0.00  0.00    +0.000 A 
ATOM      6  C   UNL     1       5.702   3.719  16.621  0.00  0.00    +0.000 A 
ATOM      7  C   UNL     1       6.178   3.985  15.336  0.00  0.00    +0.000 A 
ATOM      8  C   UNL     1       5.967   5.242  14.759  0.00  0.00    +0.000 A 
ATOM      9  C   UNL     1       5.230   6.218  15.430  0.00  0.00    +0.000 A 
ATOM     10  C   UNL     1       4.705   5.934  16.690  0.00  0.00    +0.000 A 
ATOM     11  O   UNL     1       3.960   6.906  17.311  0.00  0.00    +0.000 OA
ATOM     12  H   UNL     1       4.563   6.239  19.816  0.00  0.00    +0.000 HD
ENDROOT
BRANCH   1  16
ATOM     13  C   UNL     1       0.803   9.405  20.361  0.00  0.00    +0.000 A 
ATOM     14  C   UNL     1       1.168   8.236  21.031  0.00  0.00    +0.000 A 
ATOM     15  C   UNL     1       1.922   7.249  20.391  0.00  0.00    +0.000 A 
ATOM     16  C   UNL     1       2.300   7.398  19.050  0.00  0.00    +0.000 A 
ATOM     17  C   UNL     1       1.951   8.593  18.394  0.00  0.00    +0.000 A 
ATOM     18  C   UNL     1       1.202   9.585  19.040  0.00  0.00    +0.000 A 
BRANCH  13  20
ATOM     19  C   UNL     1      -0.327   9.845  22.401  0.00  0.00    +0.000 C 
ATOM     20  O   UNL     1       0.042  10.273  21.095  0.00  0.00    +0.000 OA
ENDBRANCH  13  20
ENDBRANCH   1  16
TORSDOF 2
ENDMDL
MODEL 6
REMARK VINA RESULT:      -7.2      3.564      3.972
REMARK  Name = 
REMARK  3 active torsions:
REMARK  status: ('A' for Active; 'I' for Inactive)
REMARK    1  A    between atoms: C_1  and  O_2
REMARK    2  A    between atoms: O_2  and  C_3
REMARK    3  A    between atoms: C_6  and  C_7
REMARK                            x       y       z     vdW  Elec       q    Type
REMARK                         _______ _______ _______ _____ _____    ______ ____
ROOT
ATOM      1  C   UNL     1       3.739   6.397  18.132  0.00  0.00    +0.000 C 
ATOM      2  N   UNL     1       2.954   5.476  18.910  0.00  0.00    +0.000 N 
ATOM      3  C   UNL     1       2.303   5.994  20.003  0.00  0.00    +0.000 C 
ATOM      4  O   UNL     1       1.926   5.308  20.940  0.00  0.00    +0.000 OA
ATOM      5  C   UNL     1       1.987   7.425  19.891  0.00  0.00    +0.000 A 
ATOM      6  C   UNL     1       1.347   8.107  20.927  0.00  0.00    +0.000 A 
ATOM      7  C   UNL     1       0.840   9.386  20.689  0.00  0.00    +0.000 A 
ATOM      8  C   UNL     1       0.953   9.957  19.417  0.00  0.00    +0.000 A 
ATOM      9  C   UNL     1       1.624   9.287  18.394  0.00  0.00    +0.000 A 
ATOM     10  C   UNL     1       2.180   8.033  18.647  0.00  0.00    +0.000 A 
ATOM     11  O   UNL     1       2.860   7.413  17.627  0.00  0.00    +0.000 OA
ATOM     12  H   UNL     1       2.331   4.907  18.350  0.00  0.00    +0.000 HD
ENDROOT
BRANCH   1  16
ATOM     13  C   UNL     1       5.945   4.338  15.008  0.00  0.00    +0.000 A 
ATOM     14  C   UNL     1       5.834   5.729  14.996  0.00  0.00    +0.000 A 
ATOM     15  C   UNL     1       5.132   6.400  16.000  0.00  0.00    +0.000 A 
ATOM     16  C   UNL     1       4.496   5.687  17.025  0.00  0.00    +0.000 A 
ATOM     17  C   UNL     1       4.640   4.287  17.043  0.00  0.00    +0.000 A 
ATOM     18  C   UNL     1       5.351   3.616  16.040  0.00  0.00    +0.000 A 
BRANCH  13  20
ATOM     19  C   UNL     1       5.877   3.522  12.782  0.00  0.00    +0.000 C 
ATOM     20  O   UNL     1       6.634   3.808  13.952  0.00  0.00    +0.000 OA
ENDBRANCH  13  20
ENDBRANCH   1  16
TORSDOF 2
ENDMDL
MODEL 7
REMARK VINA RESULT:      -7.2      1.536      2.259
REMARK  Name = 
REMARK  3 active torsions:
REMARK  status: ('A' for Active; 'I' for Inactive)
REMARK    1  A    between atoms: C_1  and  O_2
REMARK    2  A    between atoms: O_2  and  C_3
REMARK    3  A    between atoms: C_6  and  C_7
REMARK                            x       y       z     vdW  Elec       q    Type
REMARK                         _______ _______ _______ _____ _____    ______ ____
ROOT
ATOM      1  C   UNL     1       4.031   4.758  17.767  0.00  0.00    +0.000 C 
ATOM      2  N   UNL     1       3.757   5.995  18.447  0.00  0.00    +0.000 N 
ATOM      3  C   UNL     1       2.731   5.981  19.360  0.00  0.00    +0.000 C 
ATOM      4  O   UNL     1       2.148   6.990  19.723  0.00  0.00    +0.000 OA
ATOM      5  C   UNL     1       2.476   4.662  19.955  0.00  0.00    +0.000 A 
ATOM      6  C   UNL     1       1.452   4.473  20.885  0.00  0.00    +0.000 A 
ATOM      7  C   UNL     1       1.402   3.282  21.612  0.00  0.00    +0.000 A 
ATOM      8  C   UNL     1       2.388   2.307  21.424  0.00  0.00    +0.000 A 
ATOM      9  C   UNL     1       3.390   2.484  20.470  0.00  0.00    +0.000 A 
ATOM     10  C   UNL     1       3.408   3.649  19.703  0.00  0.00    +0.000 A 
ATOM     11  O   UNL     1       4.391   3.779  18.753  0.00  0.00    +0.000 OA
ATOM     12  H   UNL     1       4.584   6.432  18.834  0.00  0.00    +0.000 HD
ENDROOT
BRANCH   1  16
ATOM     13  C   UNL     1       7.116   5.187  14.739  0.00  0.00    +0.000 A 
ATOM     14  C   UNL     1       7.180   5.924  15.922  0.00  0.00    +0.000 A 
ATOM     15  C   UNL     1       6.195   5.788  16.904  0.00  0.00    +0.000 A 
ATOM     16  C   UNL     1       5.105   4.930  16.708  0.00  0.00    +0.000 A 
ATOM     17  C   UNL     1       5.067   4.170  15.524  0.00  0.00    +0.000 A 
ATOM     18  C   UNL     1       6.059   4.303  14.543  0.00  0.00    +0.000 A 
BRANCH  13  20
ATOM     19  C   UNL     1       7.825   5.240  12.475  0.00  0.00    +0.000 C 
ATOM     20  O   UNL     1       8.126   5.438  13.852  0.00  0.00    +0.000 OA
ENDBRANCH  13  20
ENDBRANCH   1  16
TORSDOF 2
ENDMDL
MODEL 8
REMARK VINA RESULT:      -7.1      4.753      7.442
REMARK  Name = 
REMARK  3 active torsions:
REMARK  status: ('A' for Active; 'I' for Inactive)
REMARK    1  A    between atoms: C_1  and  O_2
REMARK    2  A    between atoms: O_2  and  C_3
REMARK    3  A    between atoms: C_6  and  C_7
REMARK                            x       y       z     vdW  Elec       q    Type
REMARK                         _______ _______ _______ _____ _____    ______ ____
ROOT
ATOM      1  C   UNL     1       2.362   7.014  19.089  0.00  0.00    +0.000 C 
ATOM      2  N   UNL     1       2.885   5.995  19.958  0.00  0.00    +0.000 N 
ATOM      3  C   UNL     1       3.402   4.876  19.351  0.00  0.00    +0.000 C 
ATOM      4  O   UNL     1       3.529   3.806  19.924  0.00  0.00    +0.000 OA
ATOM      5  C   UNL     1       3.905   5.110  17.990  0.00  0.00    +0.000 A 
ATOM      6  C   UNL     1       4.441   4.070  17.228  0.00  0.00    +0.000 A 
ATOM      7  C   UNL     1       5.134   4.373  16.055  0.00  0.00    +0.000 A 
ATOM      8  C   UNL     1       5.308   5.706  15.670  0.00  0.00    +0.000 A 
ATOM      9  C   UNL     1       4.741   6.741  16.415  0.00  0.00    +0.000 A 
ATOM     10  C   UNL     1       4.000   6.436  17.556  0.00  0.00    +0.000 A 
ATOM     11  O   UNL     1       3.432   7.476  18.251  0.00  0.00    +0.000 OA
ATOM     12  H   UNL     1       3.518   6.353  20.662  0.00  0.00    +0.000 HD
ENDROOT
BRANCH   1  16
ATOM     13  C   UNL     1       0.572  10.282  21.324  0.00  0.00    +0.000 A 
ATOM     14  C   UNL     1       0.948   9.104  21.972  0.00  0.00    +0.000 A 
ATOM     15  C   UNL     1       1.530   8.051  21.263  0.00  0.00    +0.000 A 
ATOM     16  C   UNL     1       1.720   8.142  19.877  0.00  0.00    +0.000 A 
ATOM     17  C   UNL     1       1.364   9.345  19.240  0.00  0.00    +0.000 A 
ATOM     18  C   UNL     1       0.787  10.403  19.954  0.00  0.00    +0.000 A 
BRANCH  13  20
ATOM     19  C   UNL     1      -1.007  10.749  23.031  0.00  0.00    +0.000 C 
ATOM     20  O   UNL     1      -0.012  11.219  22.130  0.00  0.00    +0.000 OA
ENDBRANCH  13  20
ENDBRANCH   1  16
TORSDOF 2
ENDMDL
MODEL 9
REMARK VINA RESULT:      -7.1      4.338      6.917
REMARK  Name = 
REMARK  3 active torsions:
REMARK  status: ('A' for Active; 'I' for Inactive)
REMARK    1  A    between atoms: C_1  and  O_2
REMARK    2  A    between atoms: O_2  and  C_3
REMARK    3  A    between atoms: C_6  and  C_7
REMARK                            x       y       z     vdW  Elec       q    Type
REMARK                         _______ _______ _______ _____ _____    ______ ____
ROOT
ATOM      1  C   UNL     1       2.998   6.574  18.256  0.00  0.00    +0.000 C 
ATOM      2  N   UNL     1       3.676   5.754  19.222  0.00  0.00    +0.000 N 
ATOM      3  C   UNL     1       4.311   4.634  18.741  0.00  0.00    +0.000 C 
ATOM      4  O   UNL     1       4.592   3.675  19.442  0.00  0.00    +0.000 OA
ATOM      5  C   UNL     1       4.734   4.741  17.338  0.00  0.00    +0.000 A 
ATOM      6  C   UNL     1       5.373   3.680  16.693  0.00  0.00    +0.000 A 
ATOM      7  C   UNL     1       5.982   3.903  15.457  0.00  0.00    +0.000 A 
ATOM      8  C   UNL     1       5.971   5.183  14.892  0.00  0.00    +0.000 A 
ATOM      9  C   UNL     1       5.302   6.232  15.523  0.00  0.00    +0.000 A 
ATOM     10  C   UNL     1       4.645   5.997  16.731  0.00  0.00    +0.000 A 
ATOM     11  O   UNL     1       3.972   7.045  17.311  0.00  0.00    +0.000 OA
ATOM     12  H   UNL     1       4.282   6.278  19.841  0.00  0.00    +0.000 HD
ENDROOT
BRANCH   1  16
ATOM     13  C   UNL     1       0.795   9.788  20.177  0.00  0.00    +0.000 A 
ATOM     14  C   UNL     1       1.141   9.876  18.828  0.00  0.00    +0.000 A 
ATOM     15  C   UNL     1       1.844   8.844  18.200  0.00  0.00    +0.000 A 
ATOM     16  C   UNL     1       2.245   7.712  18.921  0.00  0.00    +0.000 A 
ATOM     17  C   UNL     1       1.865   7.621  20.273  0.00  0.00    +0.000 A 
ATOM     18  C   UNL     1       1.153   8.652  20.899  0.00  0.00    +0.000 A 
BRANCH  13  20
ATOM     19  C   UNL     1      -0.288  11.849  19.722  0.00  0.00    +0.000 C 
ATOM     20  O   UNL     1       0.134  10.878  20.672  0.00  0.00    +0.000 OA
ENDBRANCH  13  20
ENDBRANCH   1  16
TORSDOF 2
ENDMDL
