MODEL 1
REMARK VINA RESULT:      -8.0      0.000      0.000
REMARK  Name = 
REMARK  5 active torsions:
REMARK  status: ('A' for Active; 'I' for Inactive)
REMARK    1  A    between atoms: C_1  and  N_2
REMARK    2  A    between atoms: C_4  and  C_5
REMARK    3  A    between atoms: C_12  and  C_13
REMARK    4  A    between atoms: C_16  and  C_17
REMARK    5  A    between atoms: N_19  and  C_20
REMARK                            x       y       z     vdW  Elec       q    Type
REMARK                         _______ _______ _______ _____ _____    ______ ____
ROOT
ATOM      1  C   UNL     1       3.836   6.047  18.464  0.00  0.00    +0.000 A 
ATOM      2  C   UNL     1       3.368   5.424  19.604  0.00  0.00    +0.000 A 
ATOM      3  C   UNL     1       2.387   6.197  20.289  0.00  0.00    +0.000 A 
ATOM      4  C   UNL     1       2.139   7.408  19.676  0.00  0.00    +0.000 A 
ATOM      5  S   UNL     1       3.100   7.590  18.274  0.00  0.00    +0.000 S 
ENDROOT
BRANCH   1  11
ATOM      6  C   UNL     1       6.870   5.489  19.023  0.00  0.00    +0.000 C 
ATOM      7  N   UNL     1       6.153   5.350  17.777  0.00  0.00    +0.000 N 
ATOM      8  N   UNL     1       6.844   4.938  16.699  0.00  0.00    +0.000 NA
ATOM      9  C   UNL     1       5.948   4.888  15.703  0.00  0.00    +0.000 A 
ATOM     10  C   UNL     1       4.664   5.253  16.190  0.00  0.00    +0.000 A 
ATOM     11  C   UNL     1       4.821   5.574  17.527  0.00  0.00    +0.000 A 
BRANCH   9  12
ATOM     12  C   UNL     1       6.336   4.525  14.334  0.00  0.00    +0.000 A 
ATOM     13  C   UNL     1       7.453   5.124  13.731  0.00  0.00    +0.000 A 
ATOM     14  C   UNL     1       7.809   4.819  12.414  0.00  0.00    +0.000 A 
ATOM     15  C   UNL     1       7.054   3.907  11.683  0.00  0.00    +0.000 A 
ATOM     16  C   UNL     1       5.947   3.296  12.268  0.00  0.00    +0.000 A 
ATOM     17  C   UNL     1       5.591   3.602  13.585  0.00  0.00    +0.000 A 
ENDBRANCH   9  12
ENDBRANCH   1  11
BRANCH   4  18
ATOM     18  C   UNL     1       1.194   8.421  20.137  0.00  0.00    +0.000 C 
ATOM     19  O   UNL     1       0.637   8.306  21.222  0.00  0.00    +0.000 OA
ATOM     20  N   UNL     1       0.940   9.444  19.240  0.00  0.00    +0.000 N 
ATOM     21  H   UNL     1       1.296   9.306  18.298  0.00  0.00    +0.000 HD
BRANCH  20  22
ATOM     22  C   UNL     1       0.073  10.548  19.423  0.00  0.00    +0.000 A 
ATOM     23  C   UNL     1       0.231  11.563  20.371  0.00  0.00    +0.000 A 
ATOM     24  F   UNL     1       1.320  11.675  21.138  0.00  0.00    +0.000 F 
ATOM     25  C   UNL     1      -0.734  12.557  20.461  0.00  0.00    +0.000 A 
ATOM     26  N   UNL     1      -1.830  12.629  19.669  0.00  0.00    +0.000 NA
ATOM     27  C   UNL     1      -1.947  11.663  18.730  0.00  0.00    +0.000 A 
ATOM     28  C   UNL     1      -1.031  10.633  18.574  0.00  0.00    +0.000 A 
ATOM     29  F   UNL     1      -1.220   9.710  17.619  0.00  0.00    +0.000 F 
ENDBRANCH  20  22
ENDBRANCH   4  18
TORSDOF 4
ENDMDL
MODEL 2
REMARK VINA RESULT:      -8.0      1.618      2.100
REMARK  Name = 
REMARK  5 active torsions:
REMARK  status: ('A' for Active; 'I' for Inactive)
REMARK    1  A    between atoms: C_1  and  N_2
REMARK    2  A    between atoms: C_4  and  C_5
REMARK    3  A    between atoms: C_12  and  C_13
REMARK    4  A    between atoms: C_16  and  C_17
REMARK    5  A    between atoms: N_19  and  C_20
REMARK                            x       y       z     vdW  Elec       q    Type
REMARK                         _______ _______ _______ _____ _____    ______ ____
ROOT
ATOM      1  C   UNL     1       3.616   6.486  18.330  0.00  0.00    +0.000 A 
ATOM      2  C   UNL     1       3.097   6.006  19.515  0.00  0.00    +0.000 A 
ATOM      3  C   UNL     1       2.137   6.887  20.091  0.00  0.00    +0.000 A 
ATOM      4  C   UNL     1       1.957   8.037  19.350  0.00  0.00    +0.000 A 
ATOM      5  S   UNL     1       2.954   8.030  17.962  0.00  0.00    +0.000 S 
ENDROOT
BRANCH   1  11
ATOM      6  C   UNL     1       6.428   5.374  19.159  0.00  0.00    +0.000 C 
ATOM      7  N   UNL     1       5.836   5.408  17.842  0.00  0.00    +0.000 N 
ATOM      8  N   UNL     1       6.557   4.916  16.819  0.00  0.00    +0.000 NA
ATOM      9  C   UNL     1       5.779   5.063  15.736  0.00  0.00    +0.000 A 
ATOM     10  C   UNL     1       4.534   5.635  16.111  0.00  0.00    +0.000 A 
ATOM     11  C   UNL     1       4.599   5.877  17.472  0.00  0.00    +0.000 A 
BRANCH   9  12
ATOM     12  C   UNL     1       6.243   4.684  14.396  0.00  0.00    +0.000 A 
ATOM     13  C   UNL     1       5.541   3.726  13.646  0.00  0.00    +0.000 A 
ATOM     14  C   UNL     1       5.995   3.326  12.386  0.00  0.00    +0.000 A 
ATOM     15  C   UNL     1       7.156   3.881  11.856  0.00  0.00    +0.000 A 
ATOM     16  C   UNL     1       7.860   4.840  12.581  0.00  0.00    +0.000 A 
ATOM     17  C   UNL     1       7.406   5.239  13.842  0.00  0.00    +0.000 A 
ENDBRANCH   9  12
ENDBRANCH   1  11
BRANCH   4  18
ATOM     18  C   UNL     1       1.048   9.131  19.679  0.00  0.00    +0.000 C 
ATOM     19  O   UNL     1       0.377   9.669  18.806  0.00  0.00    +0.000 OA
ATOM     20  N   UNL     1       1.066   9.537  21.002  0.00  0.00    +0.000 N 
ATOM     21  H   UNL     1       1.819   9.160  21.571  0.00  0.00    +0.000 HD
BRANCH  20  22
ATOM     22  C   UNL     1       0.295  10.567  21.593  0.00  0.00    +0.000 A 
ATOM     23  C   UNL     1       0.387  11.929  21.297  0.00  0.00    +0.000 A 
ATOM     24  F   UNL     1       1.141  12.406  20.300  0.00  0.00    +0.000 F 
ATOM     25  C   UNL     1      -0.407  12.827  21.998  0.00  0.00    +0.000 A 
ATOM     26  N   UNL     1      -1.297  12.470  22.955  0.00  0.00    +0.000 NA
ATOM     27  C   UNL     1      -1.403  11.145  23.200  0.00  0.00    +0.000 A 
ATOM     28  C   UNL     1      -0.648  10.183  22.548  0.00  0.00    +0.000 A 
ATOM     29  F   UNL     1      -0.811   8.886  22.850  0.00  0.00    +0.000 F 
ENDBRANCH  20  22
ENDBRANCH   4  18
TORSDOF 4
ENDMDL
MODEL 3
REMARK VINA RESULT:      -7.9      0.303      1.549
REMARK  Name = 
REMARK  5 active torsions:
REMARK  status: ('A' for Active; 'I' for Inactive)
REMARK    1  A    between atoms: C_1  and  N_2
REMARK    2  A    between atoms: C_4  and  C_5
REMARK    3  A    between atoms: C_12  and  C_13
REMARK    4  A    between atoms: C_16  and  C_17
REMARK    5  A    between atoms: N_19  and  C_20
REMARK                            x       y       z     vdW  Elec       q    Type
REMARK                         _______ _______ _______ _____ _____    ______ ____
ROOT
ATOM      1  C   UNL     1       3.742   6.131  18.547  0.00  0.00    +0.000 A 
ATOM      2  C   UNL     1       3.265   5.517  19.687  0.00  0.00    +0.000 A 
ATOM      3  C   UNL     1       2.271   6.291  20.353  0.00  0.00    +0.000 A 
ATOM      4  C   UNL     1       2.023   7.495  19.724  0.00  0.00    +0.000 A 
ATOM      5  S   UNL     1       3.000   7.668  18.332  0.00  0.00    +0.000 S 
ENDROOT
BRANCH   1  11
ATOM      6  C   UNL     1       6.759   5.542  19.163  0.00  0.00    +0.000 C 
ATOM      7  N   UNL     1       6.066   5.417  17.902  0.00  0.00    +0.000 N 
ATOM      8  N   UNL     1       6.775   5.006  16.836  0.00  0.00    +0.000 NA
ATOM      9  C   UNL     1       5.899   4.971  15.821  0.00  0.00    +0.000 A 
ATOM     10  C   UNL     1       4.610   5.345  16.285  0.00  0.00    +0.000 A 
ATOM     11  C   UNL     1       4.742   5.656  17.626  0.00  0.00    +0.000 A 
BRANCH   9  12
ATOM     12  C   UNL     1       6.311   4.614  14.458  0.00  0.00    +0.000 A 
ATOM     13  C   UNL     1       7.427   5.231  13.870  0.00  0.00    +0.000 A 
ATOM     14  C   UNL     1       7.805   4.931  12.557  0.00  0.00    +0.000 A 
ATOM     15  C   UNL     1       7.075   4.006  11.817  0.00  0.00    +0.000 A 
ATOM     16  C   UNL     1       5.971   3.377  12.388  0.00  0.00    +0.000 A 
ATOM     17  C   UNL     1       5.592   3.678  13.700  0.00  0.00    +0.000 A 
ENDBRANCH   9  12
ENDBRANCH   1  11
BRANCH   4  18
ATOM     18  C   UNL     1       1.066   8.506  20.163  0.00  0.00    +0.000 C 
ATOM     19  O   UNL     1       0.463   8.376  21.223  0.00  0.00    +0.000 OA
ATOM     20  N   UNL     1       0.856   9.546  19.275  0.00  0.00    +0.000 N 
ATOM     21  H   UNL     1       1.250   9.423  18.347  0.00  0.00    +0.000 HD
BRANCH  20  22
ATOM     22  C   UNL     1      -0.010  10.653  19.442  0.00  0.00    +0.000 A 
ATOM     23  C   UNL     1      -1.287  10.782  18.888  0.00  0.00    +0.000 A 
ATOM     24  F   UNL     1      -1.897   9.788  18.233  0.00  0.00    +0.000 F 
ATOM     25  C   UNL     1      -2.000  11.954  19.103  0.00  0.00    +0.000 A 
ATOM     26  N   UNL     1      -1.549  12.995  19.842  0.00  0.00    +0.000 NA
ATOM     27  C   UNL     1      -0.329  12.838  20.404  0.00  0.00    +0.000 A 
ATOM     28  C   UNL     1       0.449  11.703  20.238  0.00  0.00    +0.000 A 
ATOM     29  F   UNL     1       1.651  11.624  20.829  0.00  0.00    +0.000 F 
ENDBRANCH  20  22
ENDBRANCH   4  18
TORSDOF 4
ENDMDL
MODEL 4
REMARK VINA RESULT:      -7.9      3.263     10.483
REMARK  Name = 
REMARK  5 active torsions:
REMARK  status: ('A' for Active; 'I' for Inactive)
REMARK    1  A    between atoms: C_1  and  N_2
REMARK    2  A    between atoms: C_4  and  C_5
REMARK    3  A    between atoms: C_12  and  C_13
REMARK    4  A    between atoms: C_16  and  C_17
REMARK    5  A    between atoms: N_19  and  C_20
REMARK                            x       y       z     vdW  Elec       q    Type
REMARK                         _______ _______ _______ _____ _____    ______ ____
ROOT
ATOM      1  C   UNL     1       1.040   9.432  19.671  0.00  0.00    +0.000 A 
ATOM      2  C   UNL     1       1.276   9.804  18.363  0.00  0.00    +0.000 A 
ATOM      3  C   UNL     1       2.076   8.859  17.658  0.00  0.00    +0.000 A 
ATOM      4  C   UNL     1       2.459   7.793  18.446  0.00  0.00    +0.000 A 
ATOM      5  S   UNL     1       1.839   7.952  20.032  0.00  0.00    +0.000 S 
ENDROOT
BRANCH   1  11
ATOM      6  C   UNL     1       1.482   9.350  22.774  0.00  0.00    +0.000 C 
ATOM      7  N   UNL     1       0.473  10.072  22.036  0.00  0.00    +0.000 N 
ATOM      8  N   UNL     1      -0.410  10.807  22.738  0.00  0.00    +0.000 NA
ATOM      9  C   UNL     1      -1.211  11.367  21.820  0.00  0.00    +0.000 A 
ATOM     10  C   UNL     1      -0.791  10.987  20.517  0.00  0.00    +0.000 A 
ATOM     11  C   UNL     1       0.282  10.129  20.677  0.00  0.00    +0.000 A 
BRANCH   9  12
ATOM     12  C   UNL     1      -2.349  12.212  22.202  0.00  0.00    +0.000 A 
ATOM     13  C   UNL     1      -2.992  13.012  21.245  0.00  0.00    +0.000 A 
ATOM     14  C   UNL     1      -4.050  13.852  21.604  0.00  0.00    +0.000 A 
ATOM     15  C   UNL     1      -4.482  13.901  22.926  0.00  0.00    +0.000 A 
ATOM     16  C   UNL     1      -3.862  13.108  23.888  0.00  0.00    +0.000 A 
ATOM     17  C   UNL     1      -2.803  12.268  23.529  0.00  0.00    +0.000 A 
ENDBRANCH   9  12
ENDBRANCH   1  11
BRANCH   4  18
ATOM     18  C   UNL     1       3.282   6.666  18.016  0.00  0.00    +0.000 C 
ATOM     19  O   UNL     1       2.817   5.533  17.978  0.00  0.00    +0.000 OA
ATOM     20  N   UNL     1       4.602   6.972  17.736  0.00  0.00    +0.000 N 
ATOM     21  H   UNL     1       4.911   7.899  18.015  0.00  0.00    +0.000 HD
BRANCH  20  22
ATOM     22  C   UNL     1       5.615   6.082  17.304  0.00  0.00    +0.000 A 
ATOM     23  C   UNL     1       6.468   5.350  18.134  0.00  0.00    +0.000 A 
ATOM     24  F   UNL     1       6.327   5.308  19.463  0.00  0.00    +0.000 F 
ATOM     25  C   UNL     1       7.448   4.551  17.558  0.00  0.00    +0.000 A 
ATOM     26  N   UNL     1       7.629   4.412  16.223  0.00  0.00    +0.000 NA
ATOM     27  C   UNL     1       6.769   5.095  15.435  0.00  0.00    +0.000 A 
ATOM     28  C   UNL     1       5.765   5.915  15.927  0.00  0.00    +0.000 A 
ATOM     29  F   UNL     1       4.953   6.561  15.077  0.00  0.00    +0.000 F 
ENDBRANCH  20  22
ENDBRANCH   4  18
TORSDOF 4
ENDMDL
MODEL 5
REMARK VINA RESULT:      -7.9      3.010     10.055
REMARK  Name = 
REMARK  5 active torsions:
REMARK  status: ('A' for Active; 'I' for Inactive)
REMARK    1  A    between atoms: C_1  and  N_2
REMARK    2  A    between atoms: C_4  and  C_5
REMARK    3  A    between atoms: C_12  and  C_13
REMARK    4  A    between atoms: C_16  and  C_17
REMARK    5  A    between atoms: N_19  and  C_20
REMARK                            x       y       z     vdW  Elec       q    Type
REMARK                         _______ _______ _______ _____ _____    ______ ____
ROOT
ATOM      1  C   UNL     1       1.028   9.530  19.242  0.00  0.00    +0.000 A 
ATOM      2  C   UNL     1       1.120   8.718  20.355  0.00  0.00    +0.000 A 
ATOM      3  C   UNL     1       1.937   7.572  20.133  0.00  0.00    +0.000 A 
ATOM      4  C   UNL     1       2.435   7.514  18.847  0.00  0.00    +0.000 A 
ATOM      5  S   UNL     1       1.906   8.854  17.927  0.00  0.00    +0.000 S 
ENDROOT
BRANCH   1  11
ATOM      6  C   UNL     1      -1.536  10.015  17.504  0.00  0.00    +0.000 C 
ATOM      7  N   UNL     1      -0.815  10.968  18.313  0.00  0.00    +0.000 N 
ATOM      8  N   UNL     1      -1.268  12.234  18.342  0.00  0.00    +0.000 NA
ATOM      9  C   UNL     1      -0.433  12.889  19.162  0.00  0.00    +0.000 A 
ATOM     10  C   UNL     1       0.544  11.993  19.672  0.00  0.00    +0.000 A 
ATOM     11  C   UNL     1       0.298  10.762  19.092  0.00  0.00    +0.000 A 
BRANCH   9  12
ATOM     12  C   UNL     1      -0.570  14.330  19.413  0.00  0.00    +0.000 A 
ATOM     13  C   UNL     1      -1.264  14.790  20.543  0.00  0.00    +0.000 A 
ATOM     14  C   UNL     1      -1.438  16.159  20.771  0.00  0.00    +0.000 A 
ATOM     15  C   UNL     1      -0.916  17.086  19.874  0.00  0.00    +0.000 A 
ATOM     16  C   UNL     1      -0.217  16.647  18.752  0.00  0.00    +0.000 A 
ATOM     17  C   UNL     1      -0.043  15.278  18.523  0.00  0.00    +0.000 A 
ENDBRANCH   9  12
ENDBRANCH   1  11
BRANCH   4  18
ATOM     18  C   UNL     1       3.298   6.464  18.312  0.00  0.00    +0.000 C 
ATOM     19  O   UNL     1       2.879   5.320  18.179  0.00  0.00    +0.000 OA
ATOM     20  N   UNL     1       4.600   6.848  18.047  0.00  0.00    +0.000 N 
ATOM     21  H   UNL     1       4.875   7.759  18.403  0.00  0.00    +0.000 HD
BRANCH  20  22
ATOM     22  C   UNL     1       5.642   6.042  17.528  0.00  0.00    +0.000 A 
ATOM     23  C   UNL     1       6.561   5.309  18.284  0.00  0.00    +0.000 A 
ATOM     24  F   UNL     1       6.470   5.180  19.612  0.00  0.00    +0.000 F 
ATOM     25  C   UNL     1       7.561   4.601  17.629  0.00  0.00    +0.000 A 
ATOM     26  N   UNL     1       7.702   4.552  16.283  0.00  0.00    +0.000 NA
ATOM     27  C   UNL     1       6.780   5.233  15.566  0.00  0.00    +0.000 A 
ATOM     28  C   UNL     1       5.753   5.966  16.139  0.00  0.00    +0.000 A 
ATOM     29  F   UNL     1       4.878   6.618  15.357  0.00  0.00    +0.000 F 
ENDBRANCH  20  22
ENDBRANCH   4  18
TORSDOF 4
ENDMDL
MODEL 6
REMARK VINA RESULT:      -7.9      2.947     10.251
REMARK  Name = 
REMARK  5 active torsions:
REMARK  status: ('A' for Active; 'I' for Inactive)
REMARK    1  A    between atoms: C_1  and  N_2
REMARK    2  A    between atoms: C_4  and  C_5
REMARK    3  A    between atoms: C_12  and  C_13
REMARK    4  A    between atoms: C_16  and  C_17
REMARK    5  A    between atoms: N_19  and  C_20
REMARK                            x       y       z     vdW  Elec       q    Type
REMARK                         _______ _______ _______ _____ _____    ______ ____
ROOT
ATOM      1  C   UNL     1       0.941   9.251  19.408  0.00  0.00    +0.000 A 
ATOM      2  C   UNL     1       1.319   8.480  20.489  0.00  0.00    +0.000 A 
ATOM      3  C   UNL     1       2.185   7.410  20.124  0.00  0.00    +0.000 A 
ATOM      4  C   UNL     1       2.436   7.365  18.767  0.00  0.00    +0.000 A 
ATOM      5  S   UNL     1       1.617   8.626  17.954  0.00  0.00    +0.000 S 
ENDROOT
BRANCH   1  11
ATOM      6  C   UNL     1       1.767  12.219  18.830  0.00  0.00    +0.000 C 
ATOM      7  N   UNL     1       0.457  11.706  19.151  0.00  0.00    +0.000 N 
ATOM      8  N   UNL     1      -0.559  12.584  19.227  0.00  0.00    +0.000 NA
ATOM      9  C   UNL     1      -1.640  11.849  19.525  0.00  0.00    +0.000 A 
ATOM     10  C   UNL     1      -1.283  10.477  19.606  0.00  0.00    +0.000 A 
ATOM     11  C   UNL     1       0.081  10.406  19.389  0.00  0.00    +0.000 A 
BRANCH   9  12
ATOM     12  C   UNL     1      -2.955  12.465  19.745  0.00  0.00    +0.000 A 
ATOM     13  C   UNL     1      -3.109  13.490  20.692  0.00  0.00    +0.000 A 
ATOM     14  C   UNL     1      -4.363  14.056  20.941  0.00  0.00    +0.000 A 
ATOM     15  C   UNL     1      -5.480  13.608  20.243  0.00  0.00    +0.000 A 
ATOM     16  C   UNL     1      -5.344  12.598  19.293  0.00  0.00    +0.000 A 
ATOM     17  C   UNL     1      -4.090  12.031  19.044  0.00  0.00    +0.000 A 
ENDBRANCH   9  12
ENDBRANCH   1  11
BRANCH   4  18
ATOM     18  C   UNL     1       3.279   6.387  18.086  0.00  0.00    +0.000 C 
ATOM     19  O   UNL     1       2.826   5.298  17.752  0.00  0.00    +0.000 OA
ATOM     20  N   UNL     1       4.602   6.758  17.924  0.00  0.00    +0.000 N 
ATOM     21  H   UNL     1       4.896   7.585  18.436  0.00  0.00    +0.000 HD
BRANCH  20  22
ATOM     22  C   UNL     1       5.632   6.010  17.305  0.00  0.00    +0.000 A 
ATOM     23  C   UNL     1       5.786   5.813  15.931  0.00  0.00    +0.000 A 
ATOM     24  F   UNL     1       5.034   6.439  15.019  0.00  0.00    +0.000 F 
ATOM     25  C   UNL     1       6.824   5.010  15.476  0.00  0.00    +0.000 A 
ATOM     26  N   UNL     1       7.729   4.406  16.283  0.00  0.00    +0.000 NA
ATOM     27  C   UNL     1       7.590   4.640  17.608  0.00  0.00    +0.000 A 
ATOM     28  C   UNL     1       6.582   5.426  18.145  0.00  0.00    +0.000 A 
ATOM     29  F   UNL     1       6.511   5.608  19.472  0.00  0.00    +0.000 F 
ENDBRANCH  20  22
ENDBRANCH   4  18
TORSDOF 4
ENDMDL
MODEL 7
REMARK VINA RESULT:      -7.9      3.290     10.576
REMARK  Name = 
REMARK  5 active torsions:
REMARK  status: ('A' for Active; 'I' for Inactive)
REMARK    1  A    between atoms: C_1  and  N_2
REMARK    2  A    between atoms: C_4  and  C_5
REMARK    3  A    between atoms: C_12  and  C_13
REMARK    4  A    between atoms: C_16  and  C_17
REMARK    5  A    between atoms: N_19  and  C_20
REMARK                            x       y       z     vdW  Elec       q    Type
REMARK                         _______ _______ _______ _____ _____    ______ ____
ROOT
ATOM      1  C   UNL     1       1.055   9.375  19.731  0.00  0.00    +0.000 A 
ATOM      2  C   UNL     1       1.299   9.787  18.437  0.00  0.00    +0.000 A 
ATOM      3  C   UNL     1       2.098   8.861  17.707  0.00  0.00    +0.000 A 
ATOM      4  C   UNL     1       2.473   7.768  18.463  0.00  0.00    +0.000 A 
ATOM      5  S   UNL     1       1.846   7.881  20.050  0.00  0.00    +0.000 S 
ENDROOT
BRANCH   1  11
ATOM      6  C   UNL     1       1.520   9.244  22.829  0.00  0.00    +0.000 C 
ATOM      7  N   UNL     1       0.496   9.966  22.112  0.00  0.00    +0.000 N 
ATOM      8  N   UNL     1      -0.391  10.676  22.832  0.00  0.00    +0.000 NA
ATOM      9  C   UNL     1      -1.206  11.242  21.930  0.00  0.00    +0.000 A 
ATOM     10  C   UNL     1      -0.791  10.891  20.618  0.00  0.00    +0.000 A 
ATOM     11  C   UNL     1       0.295  10.044  20.755  0.00  0.00    +0.000 A 
BRANCH   9  12
ATOM     12  C   UNL     1      -2.353  12.065  22.335  0.00  0.00    +0.000 A 
ATOM     13  C   UNL     1      -2.728  12.142  23.686  0.00  0.00    +0.000 A 
ATOM     14  C   UNL     1      -3.843  12.888  24.080  0.00  0.00    +0.000 A 
ATOM     15  C   UNL     1      -4.595  13.571  23.129  0.00  0.00    +0.000 A 
ATOM     16  C   UNL     1      -4.231  13.514  21.786  0.00  0.00    +0.000 A 
ATOM     17  C   UNL     1      -3.117  12.767  21.391  0.00  0.00    +0.000 A 
ENDBRANCH   9  12
ENDBRANCH   1  11
BRANCH   4  18
ATOM     18  C   UNL     1       3.293   6.652  18.003  0.00  0.00    +0.000 C 
ATOM     19  O   UNL     1       2.845   5.511  17.993  0.00  0.00    +0.000 OA
ATOM     20  N   UNL     1       4.594   6.977  17.660  0.00  0.00    +0.000 N 
ATOM     21  H   UNL     1       4.901   7.910  17.919  0.00  0.00    +0.000 HD
BRANCH  20  22
ATOM     22  C   UNL     1       5.599   6.099  17.187  0.00  0.00    +0.000 A 
ATOM     23  C   UNL     1       5.800   5.730  15.854  0.00  0.00    +0.000 A 
ATOM     24  F   UNL     1       5.131   6.285  14.839  0.00  0.00    +0.000 F 
ATOM     25  C   UNL     1       6.803   4.818  15.551  0.00  0.00    +0.000 A 
ATOM     26  N   UNL     1       7.631   4.263  16.469  0.00  0.00    +0.000 NA
ATOM     27  C   UNL     1       7.449   4.663  17.748  0.00  0.00    +0.000 A 
ATOM     28  C   UNL     1       6.472   5.566  18.136  0.00  0.00    +0.000 A 
ATOM     29  F   UNL     1       6.355   5.911  19.428  0.00  0.00    +0.000 F 
ENDBRANCH  20  22
ENDBRANCH   4  18
TORSDOF 4
ENDMDL
MODEL 8
REMARK VINA RESULT:      -7.9      3.276      9.853
REMARK  Name = 
REMARK  5 active torsions:
REMARK  status: ('A' for Active; 'I' for Inactive)
REMARK    1  A    between atoms: C_1  and  N_2
REMARK    2  A    between atoms: C_4  and  C_5
REMARK    3  A    between atoms: C_12  and  C_13
REMARK    4  A    between atoms: C_16  and  C_17
REMARK    5  A    between atoms: N_19  and  C_20
REMARK                            x       y       z     vdW  Elec       q    Type
REMARK                         _______ _______ _______ _____ _____    ______ ____
ROOT
ATOM      1  C   UNL     1       1.264   9.802  19.100  0.00  0.00    +0.000 A 
ATOM      2  C   UNL     1       1.113   8.909  20.142  0.00  0.00    +0.000 A 
ATOM      3  C   UNL     1       1.832   7.697  19.935  0.00  0.00    +0.000 A 
ATOM      4  C   UNL     1       2.500   7.673  18.727  0.00  0.00    +0.000 A 
ATOM      5  S   UNL     1       2.247   9.125  17.862  0.00  0.00    +0.000 S 
ENDROOT
BRANCH   1  11
ATOM      6  C   UNL     1      -1.683  10.513  18.301  0.00  0.00    +0.000 C 
ATOM      7  N   UNL     1      -0.596  11.417  18.590  0.00  0.00    +0.000 N 
ATOM      8  N   UNL     1      -0.841  12.737  18.510  0.00  0.00    +0.000 NA
ATOM      9  C   UNL     1       0.317  13.332  18.831  0.00  0.00    +0.000 A 
ATOM     10  C   UNL     1       1.293  12.349  19.145  0.00  0.00    +0.000 A 
ATOM     11  C   UNL     1       0.693  11.116  18.958  0.00  0.00    +0.000 A 
BRANCH   9  12
ATOM     12  C   UNL     1       0.467  14.792  18.806  0.00  0.00    +0.000 A 
ATOM     13  C   UNL     1       1.744  15.373  18.747  0.00  0.00    +0.000 A 
ATOM     14  C   UNL     1       1.903  16.762  18.765  0.00  0.00    +0.000 A 
ATOM     15  C   UNL     1       0.787  17.589  18.838  0.00  0.00    +0.000 A 
ATOM     16  C   UNL     1      -0.488  17.031  18.887  0.00  0.00    +0.000 A 
ATOM     17  C   UNL     1      -0.647  15.642  18.870  0.00  0.00    +0.000 A 
ENDBRANCH   9  12
ENDBRANCH   1  11
BRANCH   4  18
ATOM     18  C   UNL     1       3.318   6.572  18.226  0.00  0.00    +0.000 C 
ATOM     19  O   UNL     1       2.859   5.439  18.148  0.00  0.00    +0.000 OA
ATOM     20  N   UNL     1       4.629   6.900  17.926  0.00  0.00    +0.000 N 
ATOM     21  H   UNL     1       4.940   7.815  18.238  0.00  0.00    +0.000 HD
BRANCH  20  22
ATOM     22  C   UNL     1       5.635   6.037  17.428  0.00  0.00    +0.000 A 
ATOM     23  C   UNL     1       6.526   5.289  18.201  0.00  0.00    +0.000 A 
ATOM     24  F   UNL     1       6.434   5.201  19.533  0.00  0.00    +0.000 F 
ATOM     25  C   UNL     1       7.493   4.522  17.564  0.00  0.00    +0.000 A 
ATOM     26  N   UNL     1       7.626   4.429  16.220  0.00  0.00    +0.000 NA
ATOM     27  C   UNL     1       6.731   5.127  15.486  0.00  0.00    +0.000 A 
ATOM     28  C   UNL     1       5.737   5.918  16.041  0.00  0.00    +0.000 A 
ATOM     29  F   UNL     1       4.887   6.582  15.244  0.00  0.00    +0.000 F 
ENDBRANCH  20  22
ENDBRANCH   4  18
TORSDOF 4
ENDMDL
MODEL 9
REMARK VINA RESULT:      -7.8      2.983     10.155
REMARK  Name = 
REMARK  5 active torsions:
REMARK  status: ('A' for Active; 'I' for Inactive)
REMARK    1  A    between atoms: C_1  and  N_2
REMARK    2  A    between atoms: C_4  and  C_5
REMARK    3  A    between atoms: C_12  and  C_13
REMARK    4  A    between atoms: C_16  and  C_17
REMARK    5  A    between atoms: N_19  and  C_20
REMARK                            x       y       z     vdW  Elec       q    Type
REMARK                         _______ _______ _______ _____ _____    ______ ____
ROOT
ATOM      1  C   UNL     1       1.127   9.513  19.370  0.00  0.00    +0.000 A 
ATOM      2  C   UNL     1       1.183   8.611  20.413  0.00  0.00    +0.000 A 
ATOM      3  C   UNL     1       1.965   7.461  20.104  0.00  0.00    +0.000 A 
ATOM      4  C   UNL     1       2.474   7.493  18.821  0.00  0.00    +0.000 A 
ATOM      5  S   UNL     1       1.996   8.919  18.010  0.00  0.00    +0.000 S 
ENDROOT
BRANCH   1  11
ATOM      6  C   UNL     1      -1.606  10.124  17.959  0.00  0.00    +0.000 C 
ATOM      7  N   UNL     1      -0.751  11.037  18.680  0.00  0.00    +0.000 N 
ATOM      8  N   UNL     1      -1.143  12.321  18.771  0.00  0.00    +0.000 NA
ATOM      9  C   UNL     1      -0.187  12.932  19.486  0.00  0.00    +0.000 A 
ATOM     10  C   UNL     1       0.805  11.991  19.869  0.00  0.00    +0.000 A 
ATOM     11  C   UNL     1       0.438  10.777  19.316  0.00  0.00    +0.000 A 
BRANCH   9  12
ATOM     12  C   UNL     1      -0.231  14.374  19.759  0.00  0.00    +0.000 A 
ATOM     13  C   UNL     1      -0.312  14.844  21.079  0.00  0.00    +0.000 A 
ATOM     14  C   UNL     1      -0.396  16.213  21.351  0.00  0.00    +0.000 A 
ATOM     15  C   UNL     1      -0.397  17.131  20.305  0.00  0.00    +0.000 A 
ATOM     16  C   UNL     1      -0.309  16.684  18.990  0.00  0.00    +0.000 A 
ATOM     17  C   UNL     1      -0.225  15.314  18.718  0.00  0.00    +0.000 A 
ENDBRANCH   9  12
ENDBRANCH   1  11
BRANCH   4  18
ATOM     18  C   UNL     1       3.308   6.463  18.207  0.00  0.00    +0.000 C 
ATOM     19  O   UNL     1       2.872   5.331  18.030  0.00  0.00    +0.000 OA
ATOM     20  N   UNL     1       4.606   6.847  17.922  0.00  0.00    +0.000 N 
ATOM     21  H   UNL     1       4.902   7.736  18.315  0.00  0.00    +0.000 HD
BRANCH  20  22
ATOM     22  C   UNL     1       5.623   6.057  17.332  0.00  0.00    +0.000 A 
ATOM     23  C   UNL     1       5.778   5.813  15.965  0.00  0.00    +0.000 A 
ATOM     24  F   UNL     1       5.041   6.424  15.031  0.00  0.00    +0.000 F 
ATOM     25  C   UNL     1       6.800   4.974  15.542  0.00  0.00    +0.000 A 
ATOM     26  N   UNL     1       7.689   4.379  16.372  0.00  0.00    +0.000 NA
ATOM     27  C   UNL     1       7.551   4.658  17.687  0.00  0.00    +0.000 A 
ATOM     28  C   UNL     1       6.558   5.482  18.194  0.00  0.00    +0.000 A 
ATOM     29  F   UNL     1       6.486   5.708  19.514  0.00  0.00    +0.000 F 
ENDBRANCH  20  22
ENDBRANCH   4  18
TORSDOF 4
ENDMDL
