MODEL 1
REMARK VINA RESULT:      -7.4      0.000      0.000
REMARK  Name = 
REMARK  8 active torsions:
REMARK  status: ('A' for Active; 'I' for Inactive)
REMARK    1  A    between atoms: N_2  and  C_4
REMARK    2  A    between atoms: N_9  and  C_10
REMARK    3  A    between atoms: C_10  and  C_11
REMARK    4  A    between atoms: C_17  and  O_18
REMARK    5  A    between atoms: O_18  and  C_19
REMARK    6  A    between atoms: C_19  and  C_20
REMARK    7  A    between atoms: C_20  and  C_21
REMARK    8  A    between atoms: C_21  and  O_22
REMARK                            x       y       z     vdW  Elec       q    Type
REMARK                         _______ _______ _______ _____ _____    ______ ____
ROOT
ATOM      1  C   UNL     1       0.551   9.617  21.250  0.00  0.00    +0.000 A 
ATOM      2  C   UNL     1       0.551  10.420  20.065  0.00  0.00    +0.000 A 
ATOM      3  C   UNL     1       1.147  10.003  18.855  0.00  0.00    +0.000 A 
ATOM      4  C   UNL     1       1.736   8.727  18.908  0.00  0.00    +0.000 A 
ATOM      5  N   UNL     1       2.356   8.048  17.943  0.00  0.00    +0.000 NA
ATOM      6  N   UNL     1       2.805   6.913  18.534  0.00  0.00    +0.000 N 
ATOM      7  C   UNL     1       2.336   6.738  19.831  0.00  0.00    +0.000 A 
ATOM      8  C   UNL     1       1.717   7.940  20.118  0.00  0.00    +0.000 A 
ATOM      9  C   UNL     1       1.147   8.335  21.332  0.00  0.00    +0.000 A 
ENDROOT
BRANCH   1  11
ATOM     10  O   UNL     1       0.302   9.749  23.561  0.00  0.00    +0.000 OA
ATOM     11  N   UNL     1      -0.112  10.140  22.460  0.00  0.00    +0.000 N 
ATOM     12  O   UNL     1      -1.039  10.948  22.303  0.00  0.00    +0.000 OA
ENDBRANCH   1  11
BRANCH   6  13
ATOM     13  C   UNL     1       3.589   5.951  17.751  0.00  0.00    +0.000 C 
BRANCH  13  14
ATOM     14  C   UNL     1       5.086   6.053  17.975  0.00  0.00    +0.000 A 
ATOM     15  C   UNL     1       5.710   5.349  19.016  0.00  0.00    +0.000 A 
ATOM     16  C   UNL     1       7.082   5.494  19.251  0.00  0.00    +0.000 A 
ATOM     17  C   UNL     1       7.845   6.344  18.452  0.00  0.00    +0.000 A 
ATOM     18  C   UNL     1       7.241   7.045  17.411  0.00  0.00    +0.000 A 
ATOM     19  C   UNL     1       5.871   6.900  17.174  0.00  0.00    +0.000 A 
ENDBRANCH  13  14
ENDBRANCH   6  13
BRANCH   7  20
ATOM     20  O   UNL     1       2.542   5.581  20.478  0.00  0.00    +0.000 OA
BRANCH  20  21
ATOM     21  C   UNL     1       1.474   4.628  20.427  0.00  0.00    +0.000 C 
BRANCH  21  22
ATOM     22  C   UNL     1       1.721   3.482  21.392  0.00  0.00    +0.000 C 
BRANCH  22  23
ATOM     23  C   UNL     1       2.939   2.668  20.990  0.00  0.00    +0.000 C 
BRANCH  23  24
ATOM     24  O   UNL     1       3.275   2.948  19.639  0.00  0.00    +0.000 OA
ATOM     25  H   UNL     1       4.226   2.772  19.532  0.00  0.00    +0.000 HD
ENDBRANCH  23  24
ENDBRANCH  22  23
ENDBRANCH  21  22
ENDBRANCH  20  21
ENDBRANCH   7  20
TORSDOF 8
ENDMDL
MODEL 2
REMARK VINA RESULT:      -7.2      0.364      1.225
REMARK  Name = 
REMARK  8 active torsions:
REMARK  status: ('A' for Active; 'I' for Inactive)
REMARK    1  A    between atoms: N_2  and  C_4
REMARK    2  A    between atoms: N_9  and  C_10
REMARK    3  A    between atoms: C_10  and  C_11
REMARK    4  A    between atoms: C_17  and  O_18
REMARK    5  A    between atoms: O_18  and  C_19
REMARK    6  A    between atoms: C_19  and  C_20
REMARK    7  A    between atoms: C_20  and  C_21
REMARK    8  A    between atoms: C_21  and  O_22
REMARK                            x       y       z     vdW  Elec       q    Type
REMARK                         _______ _______ _______ _____ _____    ______ ____
ROOT
ATOM      1  C   UNL     1       0.490   9.650  21.293  0.00  0.00    +0.000 A 
ATOM      2  C   UNL     1       0.539  10.473  20.122  0.00  0.00    +0.000 A 
ATOM      3  C   UNL     1       1.155  10.060  18.920  0.00  0.00    +0.000 A 
ATOM      4  C   UNL     1       1.710   8.770  18.965  0.00  0.00    +0.000 A 
ATOM      5  N   UNL     1       2.336   8.091  18.004  0.00  0.00    +0.000 NA
ATOM      6  N   UNL     1       2.742   6.935  18.586  0.00  0.00    +0.000 N 
ATOM      7  C   UNL     1       2.236   6.750  19.868  0.00  0.00    +0.000 A 
ATOM      8  C   UNL     1       1.641   7.963  20.161  0.00  0.00    +0.000 A 
ATOM      9  C   UNL     1       1.051   8.353  21.367  0.00  0.00    +0.000 A 
ENDROOT
BRANCH   1  11
ATOM     10  O   UNL     1      -1.141  10.947  22.329  0.00  0.00    +0.000 OA
ATOM     11  N   UNL     1      -0.190  10.169  22.495  0.00  0.00    +0.000 N 
ATOM     12  O   UNL     1       0.225   9.790  23.600  0.00  0.00    +0.000 OA
ENDBRANCH   1  11
BRANCH   6  13
ATOM     13  C   UNL     1       3.520   5.966  17.806  0.00  0.00    +0.000 C 
BRANCH  13  14
ATOM     14  C   UNL     1       5.019   6.073  18.017  0.00  0.00    +0.000 A 
ATOM     15  C   UNL     1       5.823   6.806  17.131  0.00  0.00    +0.000 A 
ATOM     16  C   UNL     1       7.211   6.852  17.300  0.00  0.00    +0.000 A 
ATOM     17  C   UNL     1       7.813   6.166  18.354  0.00  0.00    +0.000 A 
ATOM     18  C   UNL     1       7.027   5.439  19.246  0.00  0.00    +0.000 A 
ATOM     19  C   UNL     1       5.641   5.393  19.080  0.00  0.00    +0.000 A 
ENDBRANCH  13  14
ENDBRANCH   6  13
BRANCH   7  20
ATOM     20  O   UNL     1       2.398   5.578  20.500  0.00  0.00    +0.000 OA
BRANCH  20  21
ATOM     21  C   UNL     1       1.245   4.731  20.566  0.00  0.00    +0.000 C 
BRANCH  21  22
ATOM     22  C   UNL     1       1.644   3.288  20.819  0.00  0.00    +0.000 C 
BRANCH  22  23
ATOM     23  C   UNL     1       2.554   2.761  19.723  0.00  0.00    +0.000 C 
BRANCH  23  24
ATOM     24  O   UNL     1       3.902   2.787  20.169  0.00  0.00    +0.000 OA
ATOM     25  H   UNL     1       4.437   3.179  19.457  0.00  0.00    +0.000 HD
ENDBRANCH  23  24
ENDBRANCH  22  23
ENDBRANCH  21  22
ENDBRANCH  20  21
ENDBRANCH   7  20
TORSDOF 8
ENDMDL
MODEL 3
REMARK VINA RESULT:      -7.1      3.096      6.861
REMARK  Name = 
REMARK  8 active torsions:
REMARK  status: ('A' for Active; 'I' for Inactive)
REMARK    1  A    between atoms: N_2  and  C_4
REMARK    2  A    between atoms: N_9  and  C_10
REMARK    3  A    between atoms: C_10  and  C_11
REMARK    4  A    between atoms: C_17  and  O_18
REMARK    5  A    between atoms: O_18  and  C_19
REMARK    6  A    between atoms: C_19  and  C_20
REMARK    7  A    between atoms: C_20  and  C_21
REMARK    8  A    between atoms: C_21  and  O_22
REMARK                            x       y       z     vdW  Elec       q    Type
REMARK                         _______ _______ _______ _____ _____    ______ ____
ROOT
ATOM      1  C   UNL     1       6.455   5.113  15.583  0.00  0.00    +0.000 A 
ATOM      2  C   UNL     1       7.308   5.794  16.510  0.00  0.00    +0.000 A 
ATOM      3  C   UNL     1       6.879   6.193  17.795  0.00  0.00    +0.000 A 
ATOM      4  C   UNL     1       5.546   5.860  18.092  0.00  0.00    +0.000 A 
ATOM      5  N   UNL     1       4.855   6.077  19.211  0.00  0.00    +0.000 NA
ATOM      6  N   UNL     1       3.600   5.636  18.950  0.00  0.00    +0.000 N 
ATOM      7  C   UNL     1       3.488   4.958  17.742  0.00  0.00    +0.000 A 
ATOM      8  C   UNL     1       4.713   5.169  17.135  0.00  0.00    +0.000 A 
ATOM      9  C   UNL     1       5.107   4.776  15.853  0.00  0.00    +0.000 A 
ENDROOT
BRANCH   1  11
ATOM     10  O   UNL     1       6.482   3.768  13.684  0.00  0.00    +0.000 OA
ATOM     11  N   UNL     1       7.005   4.727  14.269  0.00  0.00    +0.000 N 
ATOM     12  O   UNL     1       7.952   5.392  13.824  0.00  0.00    +0.000 OA
ENDBRANCH   1  11
BRANCH   6  13
ATOM     13  C   UNL     1       2.556   5.778  19.971  0.00  0.00    +0.000 C 
BRANCH  13  14
ATOM     14  C   UNL     1       1.945   7.165  20.033  0.00  0.00    +0.000 A 
ATOM     15  C   UNL     1       1.269   7.606  21.182  0.00  0.00    +0.000 A 
ATOM     16  C   UNL     1       0.659   8.865  21.210  0.00  0.00    +0.000 A 
ATOM     17  C   UNL     1       0.716   9.698  20.094  0.00  0.00    +0.000 A 
ATOM     18  C   UNL     1       1.388   9.277  18.949  0.00  0.00    +0.000 A 
ATOM     19  C   UNL     1       1.999   8.020  18.919  0.00  0.00    +0.000 A 
ENDBRANCH  13  14
ENDBRANCH   6  13
BRANCH   7  20
ATOM     20  O   UNL     1       2.358   4.306  17.429  0.00  0.00    +0.000 OA
BRANCH  20  21
ATOM     21  C   UNL     1       2.438   2.876  17.410  0.00  0.00    +0.000 C 
BRANCH  21  22
ATOM     22  C   UNL     1       2.069   2.293  18.763  0.00  0.00    +0.000 C 
BRANCH  22  23
ATOM     23  C   UNL     1       0.658   2.681  19.170  0.00  0.00    +0.000 C 
BRANCH  23  24
ATOM     24  O   UNL     1       0.612   2.910  20.571  0.00  0.00    +0.000 OA
ATOM     25  H   UNL     1       1.451   3.335  20.825  0.00  0.00    +0.000 HD
ENDBRANCH  23  24
ENDBRANCH  22  23
ENDBRANCH  21  22
ENDBRANCH  20  21
ENDBRANCH   7  20
TORSDOF 8
ENDMDL
MODEL 4
REMARK VINA RESULT:      -7.0      3.127      6.867
REMARK  Name = 
REMARK  8 active torsions:
REMARK  status: ('A' for Active; 'I' for Inactive)
REMARK    1  A    between atoms: N_2  and  C_4
REMARK    2  A    between atoms: N_9  and  C_10
REMARK    3  A    between atoms: C_10  and  C_11
REMARK    4  A    between atoms: C_17  and  O_18
REMARK    5  A    between atoms: O_18  and  C_19
REMARK    6  A    between atoms: C_19  and  C_20
REMARK    7  A    between atoms: C_20  and  C_21
REMARK    8  A    between atoms: C_21  and  O_22
REMARK                            x       y       z     vdW  Elec       q    Type
REMARK                         _______ _______ _______ _____ _____    ______ ____
ROOT
ATOM      1  C   UNL     1       6.368   5.056  15.744  0.00  0.00    +0.000 A 
ATOM      2  C   UNL     1       7.284   5.519  16.742  0.00  0.00    +0.000 A 
ATOM      3  C   UNL     1       6.882   5.872  18.049  0.00  0.00    +0.000 A 
ATOM      4  C   UNL     1       5.505   5.722  18.292  0.00  0.00    +0.000 A 
ATOM      5  N   UNL     1       4.821   5.949  19.414  0.00  0.00    +0.000 NA
ATOM      6  N   UNL     1       3.523   5.729  19.093  0.00  0.00    +0.000 N 
ATOM      7  C   UNL     1       3.347   5.178  17.829  0.00  0.00    +0.000 A 
ATOM      8  C   UNL     1       4.607   5.249  17.265  0.00  0.00    +0.000 A 
ATOM      9  C   UNL     1       4.977   4.908  15.961  0.00  0.00    +0.000 A 
ENDROOT
BRANCH   1  11
ATOM     10  O   UNL     1       7.841   5.364  13.969  0.00  0.00    +0.000 OA
ATOM     11  N   UNL     1       6.893   4.701  14.412  0.00  0.00    +0.000 N 
ATOM     12  O   UNL     1       6.359   3.752  13.818  0.00  0.00    +0.000 OA
ENDBRANCH   1  11
BRANCH   6  13
ATOM     13  C   UNL     1       2.481   5.943  20.105  0.00  0.00    +0.000 C 
BRANCH  13  14
ATOM     14  C   UNL     1       1.851   7.322  20.051  0.00  0.00    +0.000 A 
ATOM     15  C   UNL     1       1.943   8.114  18.896  0.00  0.00    +0.000 A 
ATOM     16  C   UNL     1       1.409   9.407  18.876  0.00  0.00    +0.000 A 
ATOM     17  C   UNL     1       0.778   9.925  20.006  0.00  0.00    +0.000 A 
ATOM     18  C   UNL     1       0.674   9.149  21.158  0.00  0.00    +0.000 A 
ATOM     19  C   UNL     1       1.205   7.856  21.180  0.00  0.00    +0.000 A 
ENDBRANCH  13  14
ENDBRANCH   6  13
BRANCH   7  20
ATOM     20  O   UNL     1       2.141   4.735  17.442  0.00  0.00    +0.000 OA
BRANCH  20  21
ATOM     21  C   UNL     1       1.709   3.496  18.015  0.00  0.00    +0.000 C 
BRANCH  21  22
ATOM     22  C   UNL     1       2.606   2.351  17.577  0.00  0.00    +0.000 C 
BRANCH  22  23
ATOM     23  C   UNL     1       3.239   1.652  18.768  0.00  0.00    +0.000 C 
BRANCH  23  24
ATOM     24  O   UNL     1       4.549   2.157  18.977  0.00  0.00    +0.000 OA
ATOM     25  H   UNL     1       4.543   2.647  19.818  0.00  0.00    +0.000 HD
ENDBRANCH  23  24
ENDBRANCH  22  23
ENDBRANCH  21  22
ENDBRANCH  20  21
ENDBRANCH   7  20
TORSDOF 8
ENDMDL
MODEL 5
REMARK VINA RESULT:      -7.0      3.362      6.998
REMARK  Name = 
REMARK  8 active torsions:
REMARK  status: ('A' for Active; 'I' for Inactive)
REMARK    1  A    between atoms: N_2  and  C_4
REMARK    2  A    between atoms: N_9  and  C_10
REMARK    3  A    between atoms: C_10  and  C_11
REMARK    4  A    between atoms: C_17  and  O_18
REMARK    5  A    between atoms: O_18  and  C_19
REMARK    6  A    between atoms: C_19  and  C_20
REMARK    7  A    between atoms: C_20  and  C_21
REMARK    8  A    between atoms: C_21  and  O_22
REMARK                            x       y       z     vdW  Elec       q    Type
REMARK                         _______ _______ _______ _____ _____    ______ ____
ROOT
ATOM      1  C   UNL     1       6.265   4.739  14.991  0.00  0.00    +0.000 A 
ATOM      2  C   UNL     1       7.270   5.341  15.814  0.00  0.00    +0.000 A 
ATOM      3  C   UNL     1       7.022   5.771  17.136  0.00  0.00    +0.000 A 
ATOM      4  C   UNL     1       5.706   5.553  17.580  0.00  0.00    +0.000 A 
ATOM      5  N   UNL     1       5.165   5.825  18.768  0.00  0.00    +0.000 NA
ATOM      6  N   UNL     1       3.855   5.494  18.650  0.00  0.00    +0.000 N 
ATOM      7  C   UNL     1       3.553   4.832  17.466  0.00  0.00    +0.000 A 
ATOM      8  C   UNL     1       4.717   4.939  16.726  0.00  0.00    +0.000 A 
ATOM      9  C   UNL     1       4.931   4.518  15.411  0.00  0.00    +0.000 A 
ENDROOT
BRANCH   1  11
ATOM     10  O   UNL     1       5.967   3.401  13.110  0.00  0.00    +0.000 OA
ATOM     11  N   UNL     1       6.631   4.311  13.627  0.00  0.00    +0.000 N 
ATOM     12  O   UNL     1       7.576   4.895  13.075  0.00  0.00    +0.000 OA
ENDBRANCH   1  11
BRANCH   6  13
ATOM     13  C   UNL     1       2.947   5.722  19.779  0.00  0.00    +0.000 C 
BRANCH  13  14
ATOM     14  C   UNL     1       2.267   7.079  19.755  0.00  0.00    +0.000 A 
ATOM     15  C   UNL     1       1.583   7.564  20.880  0.00  0.00    +0.000 A 
ATOM     16  C   UNL     1       0.911   8.790  20.830  0.00  0.00    +0.000 A 
ATOM     17  C   UNL     1       0.914   9.545  19.658  0.00  0.00    +0.000 A 
ATOM     18  C   UNL     1       1.594   9.080  18.536  0.00  0.00    +0.000 A 
ATOM     19  C   UNL     1       2.267   7.856  18.583  0.00  0.00    +0.000 A 
ENDBRANCH  13  14
ENDBRANCH   6  13
BRANCH   7  20
ATOM     20  O   UNL     1       2.343   4.281  17.284  0.00  0.00    +0.000 OA
BRANCH  20  21
ATOM     21  C   UNL     1       2.128   3.010  17.908  0.00  0.00    +0.000 C 
BRANCH  21  22
ATOM     22  C   UNL     1       3.412   2.201  17.953  0.00  0.00    +0.000 C 
BRANCH  22  23
ATOM     23  C   UNL     1       3.899   2.007  19.379  0.00  0.00    +0.000 C 
BRANCH  23  24
ATOM     24  O   UNL     1       5.179   2.604  19.531  0.00  0.00    +0.000 OA
ATOM     25  H   UNL     1       5.159   3.133  20.347  0.00  0.00    +0.000 HD
ENDBRANCH  23  24
ENDBRANCH  22  23
ENDBRANCH  21  22
ENDBRANCH  20  21
ENDBRANCH   7  20
TORSDOF 8
ENDMDL
MODEL 6
REMARK VINA RESULT:      -7.0      3.337      7.171
REMARK  Name = 
REMARK  8 active torsions:
REMARK  status: ('A' for Active; 'I' for Inactive)
REMARK    1  A    between atoms: N_2  and  C_4
REMARK    2  A    between atoms: N_9  and  C_10
REMARK    3  A    between atoms: C_10  and  C_11
REMARK    4  A    between atoms: C_17  and  O_18
REMARK    5  A    between atoms: O_18  and  C_19
REMARK    6  A    between atoms: C_19  and  C_20
REMARK    7  A    between atoms: C_20  and  C_21
REMARK    8  A    between atoms: C_21  and  O_22
REMARK                            x       y       z     vdW  Elec       q    Type
REMARK                         _______ _______ _______ _____ _____    ______ ____
ROOT
ATOM      1  C   UNL     1       6.277   4.601  14.658  0.00  0.00    +0.000 A 
ATOM      2  C   UNL     1       7.244   5.405  15.343  0.00  0.00    +0.000 A 
ATOM      3  C   UNL     1       7.040   5.905  16.648  0.00  0.00    +0.000 A 
ATOM      4  C   UNL     1       5.809   5.542  17.222  0.00  0.00    +0.000 A 
ATOM      5  N   UNL     1       5.328   5.835  18.431  0.00  0.00    +0.000 NA
ATOM      6  N   UNL     1       4.076   5.315  18.454  0.00  0.00    +0.000 N 
ATOM      7  C   UNL     1       3.782   4.520  17.352  0.00  0.00    +0.000 A 
ATOM      8  C   UNL     1       4.857   4.727  16.506  0.00  0.00    +0.000 A 
ATOM      9  C   UNL     1       5.028   4.232  15.210  0.00  0.00    +0.000 A 
ENDROOT
BRANCH   1  11
ATOM     10  O   UNL     1       7.525   4.666  12.694  0.00  0.00    +0.000 OA
ATOM     11  N   UNL     1       6.594   4.116  13.301  0.00  0.00    +0.000 N 
ATOM     12  O   UNL     1       5.917   3.180  12.852  0.00  0.00    +0.000 OA
ENDBRANCH   1  11
BRANCH   6  13
ATOM     13  C   UNL     1       3.235   5.506  19.641  0.00  0.00    +0.000 C 
BRANCH  13  14
ATOM     14  C   UNL     1       2.445   6.802  19.629  0.00  0.00    +0.000 A 
ATOM     15  C   UNL     1       2.431   7.629  18.495  0.00  0.00    +0.000 A 
ATOM     16  C   UNL     1       1.747   8.849  18.512  0.00  0.00    +0.000 A 
ATOM     17  C   UNL     1       1.070   9.259  19.660  0.00  0.00    +0.000 A 
ATOM     18  C   UNL     1       1.070   8.446  20.791  0.00  0.00    +0.000 A 
ATOM     19  C   UNL     1       1.751   7.226  20.775  0.00  0.00    +0.000 A 
ENDBRANCH  13  14
ENDBRANCH   6  13
BRANCH   7  20
ATOM     20  O   UNL     1       2.657   3.792  17.319  0.00  0.00    +0.000 OA
BRANCH  20  21
ATOM     21  C   UNL     1       2.794   2.402  17.636  0.00  0.00    +0.000 C 
BRANCH  21  22
ATOM     22  C   UNL     1       1.947   2.033  18.842  0.00  0.00    +0.000 C 
BRANCH  22  23
ATOM     23  C   UNL     1       0.710   2.909  18.943  0.00  0.00    +0.000 C 
BRANCH  23  24
ATOM     24  O   UNL     1       0.564   3.374  20.277  0.00  0.00    +0.000 OA
ATOM     25  H   UNL     1      -0.378   3.582  20.411  0.00  0.00    +0.000 HD
ENDBRANCH  23  24
ENDBRANCH  22  23
ENDBRANCH  21  22
ENDBRANCH  20  21
ENDBRANCH   7  20
TORSDOF 8
ENDMDL
MODEL 7
REMARK VINA RESULT:      -7.0      1.920      2.206
REMARK  Name = 
REMARK  8 active torsions:
REMARK  status: ('A' for Active; 'I' for Inactive)
REMARK    1  A    between atoms: N_2  and  C_4
REMARK    2  A    between atoms: N_9  and  C_10
REMARK    3  A    between atoms: C_10  and  C_11
REMARK    4  A    between atoms: C_17  and  O_18
REMARK    5  A    between atoms: O_18  and  C_19
REMARK    6  A    between atoms: C_19  and  C_20
REMARK    7  A    between atoms: C_20  and  C_21
REMARK    8  A    between atoms: C_21  and  O_22
REMARK                            x       y       z     vdW  Elec       q    Type
REMARK                         _______ _______ _______ _____ _____    ______ ____
ROOT
ATOM      1  C   UNL     1       1.119   9.029  19.894  0.00  0.00    +0.000 A 
ATOM      2  C   UNL     1       1.619   9.468  18.627  0.00  0.00    +0.000 A 
ATOM      3  C   UNL     1       2.464   8.674  17.819  0.00  0.00    +0.000 A 
ATOM      4  C   UNL     1       2.766   7.413  18.359  0.00  0.00    +0.000 A 
ATOM      5  N   UNL     1       3.511   6.435  17.843  0.00  0.00    +0.000 NA
ATOM      6  N   UNL     1       3.547   5.470  18.796  0.00  0.00    +0.000 N 
ATOM      7  C   UNL     1       2.688   5.708  19.862  0.00  0.00    +0.000 A 
ATOM      8  C   UNL     1       2.242   6.998  19.639  0.00  0.00    +0.000 A 
ATOM      9  C   UNL     1       1.418   7.768  20.465  0.00  0.00    +0.000 A 
ENDROOT
BRANCH   1  11
ATOM     10  O   UNL     1      -0.174   9.542  21.760  0.00  0.00    +0.000 OA
ATOM     11  N   UNL     1       0.232   9.929  20.655  0.00  0.00    +0.000 N 
ATOM     12  O   UNL     1      -0.048  11.025  20.146  0.00  0.00    +0.000 OA
ENDBRANCH   1  11
BRANCH   6  13
ATOM     13  C   UNL     1       4.339   4.256  18.566  0.00  0.00    +0.000 C 
BRANCH  13  14
ATOM     14  C   UNL     1       5.263   4.345  17.366  0.00  0.00    +0.000 A 
ATOM     15  C   UNL     1       6.609   4.714  17.517  0.00  0.00    +0.000 A 
ATOM     16  C   UNL     1       7.439   4.849  16.399  0.00  0.00    +0.000 A 
ATOM     17  C   UNL     1       6.936   4.620  15.119  0.00  0.00    +0.000 A 
ATOM     18  C   UNL     1       5.604   4.248  14.954  0.00  0.00    +0.000 A 
ATOM     19  C   UNL     1       4.774   4.110  16.070  0.00  0.00    +0.000 A 
ENDBRANCH  13  14
ENDBRANCH   6  13
BRANCH   7  20
ATOM     20  O   UNL     1       2.476   4.762  20.789  0.00  0.00    +0.000 OA
BRANCH  20  21
ATOM     21  C   UNL     1       1.258   4.019  20.667  0.00  0.00    +0.000 C 
BRANCH  21  22
ATOM     22  C   UNL     1       1.541   2.554  20.380  0.00  0.00    +0.000 C 
BRANCH  22  23
ATOM     23  C   UNL     1       1.228   2.199  18.937  0.00  0.00    +0.000 C 
BRANCH  23  24
ATOM     24  O   UNL     1       0.910   3.379  18.213  0.00  0.00    +0.000 OA
ATOM     25  H   UNL     1       0.258   3.137  17.533  0.00  0.00    +0.000 HD
ENDBRANCH  23  24
ENDBRANCH  22  23
ENDBRANCH  21  22
ENDBRANCH  20  21
ENDBRANCH   7  20
TORSDOF 8
ENDMDL
MODEL 8
REMARK VINA RESULT:      -7.0      1.166      1.391
REMARK  Name = 
REMARK  8 active torsions:
REMARK  status: ('A' for Active; 'I' for Inactive)
REMARK    1  A    between atoms: N_2  and  C_4
REMARK    2  A    between atoms: N_9  and  C_10
REMARK    3  A    between atoms: C_10  and  C_11
REMARK    4  A    between atoms: C_17  and  O_18
REMARK    5  A    between atoms: O_18  and  C_19
REMARK    6  A    between atoms: C_19  and  C_20
REMARK    7  A    between atoms: C_20  and  C_21
REMARK    8  A    between atoms: C_21  and  O_22
REMARK                            x       y       z     vdW  Elec       q    Type
REMARK                         _______ _______ _______ _____ _____    ______ ____
ROOT
ATOM      1  C   UNL     1       0.924   9.296  20.880  0.00  0.00    +0.000 A 
ATOM      2  C   UNL     1       1.082  10.035  19.663  0.00  0.00    +0.000 A 
ATOM      3  C   UNL     1       1.647   9.478  18.495  0.00  0.00    +0.000 A 
ATOM      4  C   UNL     1       2.037   8.134  18.623  0.00  0.00    +0.000 A 
ATOM      5  N   UNL     1       2.578   7.326  17.711  0.00  0.00    +0.000 NA
ATOM      6  N   UNL     1       2.833   6.166  18.366  0.00  0.00    +0.000 N 
ATOM      7  C   UNL     1       2.302   6.122  19.649  0.00  0.00    +0.000 A 
ATOM      8  C   UNL     1       1.861   7.415  19.863  0.00  0.00    +0.000 A 
ATOM      9  C   UNL     1       1.318   7.946  21.037  0.00  0.00    +0.000 A 
ENDROOT
BRANCH   1  11
ATOM     10  O   UNL     1      -0.245   9.257  22.892  0.00  0.00    +0.000 OA
ATOM     11  N   UNL     1       0.308   9.967  22.040  0.00  0.00    +0.000 N 
ATOM     12  O   UNL     1       0.389  11.203  22.099  0.00  0.00    +0.000 OA
ENDBRANCH   1  11
BRANCH   6  13
ATOM     13  C   UNL     1       3.488   5.062  17.654  0.00  0.00    +0.000 C 
BRANCH  13  14
ATOM     14  C   UNL     1       5.000   5.068  17.773  0.00  0.00    +0.000 A 
ATOM     15  C   UNL     1       5.810   4.631  16.714  0.00  0.00    +0.000 A 
ATOM     16  C   UNL     1       7.202   4.586  16.854  0.00  0.00    +0.000 A 
ATOM     17  C   UNL     1       7.801   4.976  18.051  0.00  0.00    +0.000 A 
ATOM     18  C   UNL     1       7.010   5.418  19.109  0.00  0.00    +0.000 A 
ATOM     19  C   UNL     1       5.620   5.465  18.971  0.00  0.00    +0.000 A 
ENDBRANCH  13  14
ENDBRANCH   6  13
BRANCH   7  20
ATOM     20  O   UNL     1       2.312   4.979  20.351  0.00  0.00    +0.000 OA
BRANCH  20  21
ATOM     21  C   UNL     1       1.041   4.349  20.552  0.00  0.00    +0.000 C 
BRANCH  21  22
ATOM     22  C   UNL     1       0.883   3.141  19.645  0.00  0.00    +0.000 C 
BRANCH  22  23
ATOM     23  C   UNL     1       2.118   2.256  19.676  0.00  0.00    +0.000 C 
BRANCH  23  24
ATOM     24  O   UNL     1       2.301   1.649  18.405  0.00  0.00    +0.000 OA
ATOM     25  H   UNL     1       2.501   0.708  18.558  0.00  0.00    +0.000 HD
ENDBRANCH  23  24
ENDBRANCH  22  23
ENDBRANCH  21  22
ENDBRANCH  20  21
ENDBRANCH   7  20
TORSDOF 8
ENDMDL
MODEL 9
REMARK VINA RESULT:      -6.9      1.829      2.125
REMARK  Name = 
REMARK  8 active torsions:
REMARK  status: ('A' for Active; 'I' for Inactive)
REMARK    1  A    between atoms: N_2  and  C_4
REMARK    2  A    between atoms: N_9  and  C_10
REMARK    3  A    between atoms: C_10  and  C_11
REMARK    4  A    between atoms: C_17  and  O_18
REMARK    5  A    between atoms: O_18  and  C_19
REMARK    6  A    between atoms: C_19  and  C_20
REMARK    7  A    between atoms: C_20  and  C_21
REMARK    8  A    between atoms: C_21  and  O_22
REMARK                            x       y       z     vdW  Elec       q    Type
REMARK                         _______ _______ _______ _____ _____    ______ ____
ROOT
ATOM      1  C   UNL     1       1.051   9.201  19.935  0.00  0.00    +0.000 A 
ATOM      2  C   UNL     1       1.521   9.649  18.659  0.00  0.00    +0.000 A 
ATOM      3  C   UNL     1       2.340   8.858  17.823  0.00  0.00    +0.000 A 
ATOM      4  C   UNL     1       2.650   7.590  18.345  0.00  0.00    +0.000 A 
ATOM      5  N   UNL     1       3.377   6.613  17.801  0.00  0.00    +0.000 NA
ATOM      6  N   UNL     1       3.433   5.641  18.745  0.00  0.00    +0.000 N 
ATOM      7  C   UNL     1       2.603   5.874  19.835  0.00  0.00    +0.000 A 
ATOM      8  C   UNL     1       2.158   7.167  19.634  0.00  0.00    +0.000 A 
ATOM      9  C   UNL     1       1.359   7.935  20.487  0.00  0.00    +0.000 A 
ENDROOT
BRANCH   1  11
ATOM     10  O   UNL     1      -0.060   9.778  21.897  0.00  0.00    +0.000 OA
ATOM     11  N   UNL     1       0.189  10.099  20.726  0.00  0.00    +0.000 N 
ATOM     12  O   UNL     1      -0.229  11.128  20.174  0.00  0.00    +0.000 OA
ENDBRANCH   1  11
BRANCH   6  13
ATOM     13  C   UNL     1       4.213   4.425  18.485  0.00  0.00    +0.000 C 
BRANCH  13  14
ATOM     14  C   UNL     1       5.169   4.549  17.313  0.00  0.00    +0.000 A 
ATOM     15  C   UNL     1       4.801   4.111  16.032  0.00  0.00    +0.000 A 
ATOM     16  C   UNL     1       5.709   4.177  14.969  0.00  0.00    +0.000 A 
ATOM     17  C   UNL     1       6.994   4.679  15.173  0.00  0.00    +0.000 A 
ATOM     18  C   UNL     1       7.371   5.123  16.438  0.00  0.00    +0.000 A 
ATOM     19  C   UNL     1       6.465   5.060  17.500  0.00  0.00    +0.000 A 
ENDBRANCH  13  14
ENDBRANCH   6  13
BRANCH   7  20
ATOM     20  O   UNL     1       2.411   4.921  20.759  0.00  0.00    +0.000 OA
BRANCH  20  21
ATOM     21  C   UNL     1       1.200   4.164  20.645  0.00  0.00    +0.000 C 
BRANCH  21  22
ATOM     22  C   UNL     1       1.494   2.676  20.570  0.00  0.00    +0.000 C 
BRANCH  22  23
ATOM     23  C   UNL     1       1.454   2.173  19.137  0.00  0.00    +0.000 C 
BRANCH  23  24
ATOM     24  O   UNL     1       0.955   3.195  18.286  0.00  0.00    +0.000 OA
ATOM     25  H   UNL     1       0.561   2.761  17.509  0.00  0.00    +0.000 HD
ENDBRANCH  23  24
ENDBRANCH  22  23
ENDBRANCH  21  22
ENDBRANCH  20  21
ENDBRANCH   7  20
TORSDOF 8
ENDMDL
