MODEL 1
REMARK VINA RESULT:      -8.6      0.000      0.000
REMARK  Name = 
REMARK  5 active torsions:
REMARK  status: ('A' for Active; 'I' for Inactive)
REMARK    1  A    between atoms: C_1  and  C_2
REMARK    2  A    between atoms: C_2  and  C_3
REMARK    3  A    between atoms: C_12  and  C_14
REMARK    4  A    between atoms: C_14  and  S_15
REMARK    5  A    between atoms: S_15  and  C_16
REMARK                            x       y       z     vdW  Elec       q    Type
REMARK                         _______ _______ _______ _____ _____    ______ ____
ROOT
ATOM      1  C   UNL     1      -0.767   9.782  22.746  0.00  0.00    +0.000 C 
ATOM      2  C   UNL     1       0.122   9.847  21.490  0.00  0.00    +0.000 C 
ATOM      3  C   UNL     1       1.148  10.982  21.701  0.00  0.00    +0.000 C 
ATOM      4  C   UNL     1      -0.764  10.146  20.266  0.00  0.00    +0.000 C 
ATOM      5  C   UNL     1       0.022  10.115  18.974  0.00  0.00    +0.000 C 
ATOM      6  O   UNL     1      -0.255  10.831  18.016  0.00  0.00    +0.000 OA
ATOM      7  C   UNL     1       1.105   9.128  18.866  0.00  0.00    +0.000 A 
ATOM      8  C   UNL     1       1.799   8.937  17.695  0.00  0.00    +0.000 A 
ATOM      9  N   UNL     1       2.762   8.001  17.548  0.00  0.00    +0.000 NA
ATOM     10  C   UNL     1       3.001   7.212  18.609  0.00  0.00    +0.000 A 
ATOM     11  N   UNL     1       3.915   6.198  18.372  0.00  0.00    +0.000 N 
ATOM     12  C   UNL     1       4.052   5.051  19.119  0.00  0.00    +0.000 C 
ATOM     13  O   UNL     1       3.399   4.758  20.121  0.00  0.00    +0.000 OA
ATOM     14  N   UNL     1       2.416   7.370  19.806  0.00  0.00    +0.000 NA
ATOM     15  C   UNL     1       1.479   8.339  19.931  0.00  0.00    +0.000 A 
ATOM     16  C   UNL     1       0.827   8.485  21.284  0.00  0.00    +0.000 C 
ATOM     17  H   UNL     1       4.250   6.188  17.414  0.00  0.00    +0.000 HD
ENDROOT
BRANCH  12  18
ATOM     18  C   UNL     1       5.125   4.110  18.590  0.00  0.00    +0.000 C 
BRANCH  18  19
ATOM     19  S   UNL     1       6.615   4.981  18.042  0.00  0.00    +0.000 S 
BRANCH  19  20
ATOM     20  C   UNL     1       6.544   4.811  16.314  0.00  0.00    +0.000 A 
ATOM     21  N   UNL     1       5.681   4.034  15.682  0.00  0.00    +0.000 NA
ATOM     22  C   UNL     1       6.100   4.084  14.372  0.00  0.00    +0.000 A 
ATOM     23  C   UNL     1       5.653   3.401  13.234  0.00  0.00    +0.000 A 
ATOM     24  C   UNL     1       6.320   3.632  12.021  0.00  0.00    +0.000 A 
ATOM     25  C   UNL     1       7.388   4.535  11.940  0.00  0.00    +0.000 A 
ATOM     26  C   UNL     1       7.837   5.236  13.068  0.00  0.00    +0.000 A 
ATOM     27  C   UNL     1       7.166   4.959  14.256  0.00  0.00    +0.000 A 
ATOM     28  O   UNL     1       7.440   5.448  15.495  0.00  0.00    +0.000 OA
ENDBRANCH  19  20
ENDBRANCH  18  19
ENDBRANCH  12  18
TORSDOF 3
ENDMDL
MODEL 2
REMARK VINA RESULT:      -8.5      3.256      9.161
REMARK  Name = 
REMARK  5 active torsions:
REMARK  status: ('A' for Active; 'I' for Inactive)
REMARK    1  A    between atoms: C_1  and  C_2
REMARK    2  A    between atoms: C_2  and  C_3
REMARK    3  A    between atoms: C_12  and  C_14
REMARK    4  A    between atoms: C_14  and  S_15
REMARK    5  A    between atoms: S_15  and  C_16
REMARK                            x       y       z     vdW  Elec       q    Type
REMARK                         _______ _______ _______ _____ _____    ______ ____
ROOT
ATOM      1  C   UNL     1       5.904   5.325  15.396  0.00  0.00    +0.000 C 
ATOM      2  C   UNL     1       5.293   5.054  16.783  0.00  0.00    +0.000 C 
ATOM      3  C   UNL     1       6.457   4.911  17.788  0.00  0.00    +0.000 C 
ATOM      4  C   UNL     1       4.474   3.751  16.722  0.00  0.00    +0.000 C 
ATOM      5  C   UNL     1       3.748   3.474  18.020  0.00  0.00    +0.000 C 
ATOM      6  O   UNL     1       3.537   2.336  18.428  0.00  0.00    +0.000 OA
ATOM      7  C   UNL     1       3.224   4.630  18.760  0.00  0.00    +0.000 A 
ATOM      8  C   UNL     1       2.449   4.481  19.886  0.00  0.00    +0.000 A 
ATOM      9  N   UNL     1       1.908   5.521  20.557  0.00  0.00    +0.000 NA
ATOM     10  C   UNL     1       2.130   6.745  20.050  0.00  0.00    +0.000 A 
ATOM     11  N   UNL     1       1.462   7.766  20.707  0.00  0.00    +0.000 N 
ATOM     12  C   UNL     1       1.199   9.013  20.192  0.00  0.00    +0.000 C 
ATOM     13  O   UNL     1       1.530   9.422  19.079  0.00  0.00    +0.000 OA
ATOM     14  N   UNL     1       2.924   6.985  18.995  0.00  0.00    +0.000 NA
ATOM     15  C   UNL     1       3.479   5.925  18.364  0.00  0.00    +0.000 A 
ATOM     16  C   UNL     1       4.357   6.223  17.173  0.00  0.00    +0.000 C 
ATOM     17  H   UNL     1       0.879   7.427  21.466  0.00  0.00    +0.000 HD
ENDROOT
BRANCH  12  18
ATOM     18  C   UNL     1       0.418   9.907  21.147  0.00  0.00    +0.000 C 
BRANCH  18  19
ATOM     19  S   UNL     1       0.394  11.641  20.624  0.00  0.00    +0.000 S 
BRANCH  19  20
ATOM     20  C   UNL     1      -0.979  11.699  19.560  0.00  0.00    +0.000 A 
ATOM     21  N   UNL     1      -2.199  12.038  19.943  0.00  0.00    +0.000 NA
ATOM     22  C   UNL     1      -2.969  11.781  18.832  0.00  0.00    +0.000 A 
ATOM     23  C   UNL     1      -4.354  11.848  18.635  0.00  0.00    +0.000 A 
ATOM     24  C   UNL     1      -4.861  11.475  17.380  0.00  0.00    +0.000 A 
ATOM     25  C   UNL     1      -4.010  11.069  16.345  0.00  0.00    +0.000 A 
ATOM     26  C   UNL     1      -2.621  11.012  16.523  0.00  0.00    +0.000 A 
ATOM     27  C   UNL     1      -2.161  11.363  17.789  0.00  0.00    +0.000 A 
ATOM     28  O   UNL     1      -0.879  11.333  18.242  0.00  0.00    +0.000 OA
ENDBRANCH  19  20
ENDBRANCH  18  19
ENDBRANCH  12  18
TORSDOF 3
ENDMDL
MODEL 3
REMARK VINA RESULT:      -8.4      4.080      8.559
REMARK  Name = 
REMARK  5 active torsions:
REMARK  status: ('A' for Active; 'I' for Inactive)
REMARK    1  A    between atoms: C_1  and  C_2
REMARK    2  A    between atoms: C_2  and  C_3
REMARK    3  A    between atoms: C_12  and  C_14
REMARK    4  A    between atoms: C_14  and  S_15
REMARK    5  A    between atoms: S_15  and  C_16
REMARK                            x       y       z     vdW  Elec       q    Type
REMARK                         _______ _______ _______ _____ _____    ______ ____
ROOT
ATOM      1  C   UNL     1       2.690   2.452  21.042  0.00  0.00    +0.000 C 
ATOM      2  C   UNL     1       2.428   3.620  20.072  0.00  0.00    +0.000 C 
ATOM      3  C   UNL     1       1.243   3.219  19.167  0.00  0.00    +0.000 C 
ATOM      4  C   UNL     1       3.692   3.860  19.226  0.00  0.00    +0.000 C 
ATOM      5  C   UNL     1       3.552   5.067  18.325  0.00  0.00    +0.000 C 
ATOM      6  O   UNL     1       4.093   5.136  17.225  0.00  0.00    +0.000 OA
ATOM      7  C   UNL     1       2.794   6.213  18.844  0.00  0.00    +0.000 A 
ATOM      8  C   UNL     1       2.709   7.400  18.156  0.00  0.00    +0.000 A 
ATOM      9  N   UNL     1       2.066   8.489  18.631  0.00  0.00    +0.000 NA
ATOM     10  C   UNL     1       1.526   8.381  19.856  0.00  0.00    +0.000 A 
ATOM     11  N   UNL     1       0.978   9.557  20.344  0.00  0.00    +0.000 N 
ATOM     12  C   UNL     1       0.720   9.833  21.667  0.00  0.00    +0.000 C 
ATOM     13  O   UNL     1       0.919   9.075  22.617  0.00  0.00    +0.000 OA
ATOM     14  N   UNL     1       1.508   7.245  20.569  0.00  0.00    +0.000 NA
ATOM     15  C   UNL     1       2.132   6.161  20.051  0.00  0.00    +0.000 A 
ATOM     16  C   UNL     1       2.108   4.901  20.880  0.00  0.00    +0.000 C 
ATOM     17  H   UNL     1       1.092  10.337  19.705  0.00  0.00    +0.000 HD
ENDROOT
BRANCH  12  18
ATOM     18  C   UNL     1       0.144  11.225  21.891  0.00  0.00    +0.000 C 
BRANCH  18  19
ATOM     19  S   UNL     1       0.489  12.358  20.521  0.00  0.00    +0.000 S 
BRANCH  19  20
ATOM     20  C   UNL     1      -0.760  11.966  19.378  0.00  0.00    +0.000 A 
ATOM     21  N   UNL     1      -1.992  12.442  19.435  0.00  0.00    +0.000 NA
ATOM     22  C   UNL     1      -2.655  11.742  18.454  0.00  0.00    +0.000 A 
ATOM     23  C   UNL     1      -4.006  11.727  18.085  0.00  0.00    +0.000 A 
ATOM     24  C   UNL     1      -4.400  10.857  17.055  0.00  0.00    +0.000 A 
ATOM     25  C   UNL     1      -3.468  10.044  16.396  0.00  0.00    +0.000 A 
ATOM     26  C   UNL     1      -2.111  10.060  16.745  0.00  0.00    +0.000 A 
ATOM     27  C   UNL     1      -1.767  10.914  17.789  0.00  0.00    +0.000 A 
ATOM     28  O   UNL     1      -0.543  11.072  18.361  0.00  0.00    +0.000 OA
ENDBRANCH  19  20
ENDBRANCH  18  19
ENDBRANCH  12  18
TORSDOF 3
ENDMDL
MODEL 4
REMARK VINA RESULT:      -8.4      3.821      8.702
REMARK  Name = 
REMARK  5 active torsions:
REMARK  status: ('A' for Active; 'I' for Inactive)
REMARK    1  A    between atoms: C_1  and  C_2
REMARK    2  A    between atoms: C_2  and  C_3
REMARK    3  A    between atoms: C_12  and  C_14
REMARK    4  A    between atoms: C_14  and  S_15
REMARK    5  A    between atoms: S_15  and  C_16
REMARK                            x       y       z     vdW  Elec       q    Type
REMARK                         _______ _______ _______ _____ _____    ______ ____
ROOT
ATOM      1  C   UNL     1       3.672   2.617  20.132  0.00  0.00    +0.000 C 
ATOM      2  C   UNL     1       3.245   3.824  19.276  0.00  0.00    +0.000 C 
ATOM      3  C   UNL     1       2.109   3.355  18.340  0.00  0.00    +0.000 C 
ATOM      4  C   UNL     1       4.454   4.306  18.453  0.00  0.00    +0.000 C 
ATOM      5  C   UNL     1       4.144   5.561  17.668  0.00  0.00    +0.000 C 
ATOM      6  O   UNL     1       4.656   5.801  16.579  0.00  0.00    +0.000 OA
ATOM      7  C   UNL     1       3.250   6.545  18.294  0.00  0.00    +0.000 A 
ATOM      8  C   UNL     1       3.000   7.768  17.719  0.00  0.00    +0.000 A 
ATOM      9  N   UNL     1       2.227   8.715  18.294  0.00  0.00    +0.000 NA
ATOM     10  C   UNL     1       1.723   8.424  19.506  0.00  0.00    +0.000 A 
ATOM     11  N   UNL     1       1.033   9.467  20.102  0.00  0.00    +0.000 N 
ATOM     12  C   UNL     1       0.760   9.585  21.445  0.00  0.00    +0.000 C 
ATOM     13  O   UNL     1       1.069   8.776  22.320  0.00  0.00    +0.000 OA
ATOM     14  N   UNL     1       1.864   7.235  20.110  0.00  0.00    +0.000 NA
ATOM     15  C   UNL     1       2.617   6.295  19.492  0.00  0.00    +0.000 A 
ATOM     16  C   UNL     1       2.771   4.972  20.201  0.00  0.00    +0.000 C 
ATOM     17  H   UNL     1       1.034  10.311  19.538  0.00  0.00    +0.000 HD
ENDROOT
BRANCH  12  18
ATOM     18  C   UNL     1       0.010  10.861  21.799  0.00  0.00    +0.000 C 
BRANCH  18  19
ATOM     19  S   UNL     1       0.135  12.130  20.513  0.00  0.00    +0.000 S 
BRANCH  19  20
ATOM     20  C   UNL     1      -1.095  11.650  19.382  0.00  0.00    +0.000 A 
ATOM     21  N   UNL     1      -0.864  10.928  18.300  0.00  0.00    +0.000 NA
ATOM     22  C   UNL     1      -2.070  10.942  17.637  0.00  0.00    +0.000 A 
ATOM     23  C   UNL     1      -2.441  10.434  16.386  0.00  0.00    +0.000 A 
ATOM     24  C   UNL     1      -3.760  10.647  15.952  0.00  0.00    +0.000 A 
ATOM     25  C   UNL     1      -4.686  11.327  16.753  0.00  0.00    +0.000 A 
ATOM     26  C   UNL     1      -4.333  11.828  18.013  0.00  0.00    +0.000 A 
ATOM     27  C   UNL     1      -3.011  11.620  18.394  0.00  0.00    +0.000 A 
ATOM     28  O   UNL     1      -2.397  12.055  19.528  0.00  0.00    +0.000 OA
ENDBRANCH  19  20
ENDBRANCH  18  19
ENDBRANCH  12  18
TORSDOF 3
ENDMDL
MODEL 5
REMARK VINA RESULT:      -8.3      3.410      8.687
REMARK  Name = 
REMARK  5 active torsions:
REMARK  status: ('A' for Active; 'I' for Inactive)
REMARK    1  A    between atoms: C_1  and  C_2
REMARK    2  A    between atoms: C_2  and  C_3
REMARK    3  A    between atoms: C_12  and  C_14
REMARK    4  A    between atoms: C_14  and  S_15
REMARK    5  A    between atoms: S_15  and  C_16
REMARK                            x       y       z     vdW  Elec       q    Type
REMARK                         _______ _______ _______ _____ _____    ______ ____
ROOT
ATOM      1  C   UNL     1       3.939   2.210  19.038  0.00  0.00    +0.000 C 
ATOM      2  C   UNL     1       3.580   3.525  18.321  0.00  0.00    +0.000 C 
ATOM      3  C   UNL     1       2.512   3.199  17.254  0.00  0.00    +0.000 C 
ATOM      4  C   UNL     1       4.847   4.093  17.656  0.00  0.00    +0.000 C 
ATOM      5  C   UNL     1       4.600   5.445  17.024  0.00  0.00    +0.000 C 
ATOM      6  O   UNL     1       5.189   5.819  16.014  0.00  0.00    +0.000 OA
ATOM      7  C   UNL     1       3.669   6.350  17.710  0.00  0.00    +0.000 A 
ATOM      8  C   UNL     1       3.467   7.643  17.285  0.00  0.00    +0.000 A 
ATOM      9  N   UNL     1       2.659   8.516  17.925  0.00  0.00    +0.000 NA
ATOM     10  C   UNL     1       2.069   8.076  19.049  0.00  0.00    +0.000 A 
ATOM     11  N   UNL     1       1.343   9.042  19.729  0.00  0.00    +0.000 N 
ATOM     12  C   UNL     1       0.976   8.985  21.053  0.00  0.00    +0.000 C 
ATOM     13  O   UNL     1       1.218   8.064  21.833  0.00  0.00    +0.000 OA
ATOM     14  N   UNL     1       2.161   6.816  19.500  0.00  0.00    +0.000 NA
ATOM     15  C   UNL     1       2.951   5.954  18.817  0.00  0.00    +0.000 A 
ATOM     16  C   UNL     1       3.048   4.547  19.354  0.00  0.00    +0.000 C 
ATOM     17  H   UNL     1       1.388   9.952  19.283  0.00  0.00    +0.000 HD
ENDROOT
BRANCH  12  18
ATOM     18  C   UNL     1       0.208  10.215  21.519  0.00  0.00    +0.000 C 
BRANCH  18  19
ATOM     19  S   UNL     1       0.498  11.663  20.472  0.00  0.00    +0.000 S 
BRANCH  19  20
ATOM     20  C   UNL     1      -0.814  11.581  19.335  0.00  0.00    +0.000 A 
ATOM     21  N   UNL     1      -2.018  12.080  19.557  0.00  0.00    +0.000 NA
ATOM     22  C   UNL     1      -2.754  11.639  18.482  0.00  0.00    +0.000 A 
ATOM     23  C   UNL     1      -4.118  11.757  18.187  0.00  0.00    +0.000 A 
ATOM     24  C   UNL     1      -4.595  11.152  17.013  0.00  0.00    +0.000 A 
ATOM     25  C   UNL     1      -3.731  10.470  16.146  0.00  0.00    +0.000 A 
ATOM     26  C   UNL     1      -2.362  10.357  16.420  0.00  0.00    +0.000 A 
ATOM     27  C   UNL     1      -1.935  10.946  17.607  0.00  0.00    +0.000 A 
ATOM     28  O   UNL     1      -0.682  10.927  18.137  0.00  0.00    +0.000 OA
ENDBRANCH  19  20
ENDBRANCH  18  19
ENDBRANCH  12  18
TORSDOF 3
ENDMDL
MODEL 6
REMARK VINA RESULT:      -8.2      3.276      9.220
REMARK  Name = 
REMARK  5 active torsions:
REMARK  status: ('A' for Active; 'I' for Inactive)
REMARK    1  A    between atoms: C_1  and  C_2
REMARK    2  A    between atoms: C_2  and  C_3
REMARK    3  A    between atoms: C_12  and  C_14
REMARK    4  A    between atoms: C_14  and  S_15
REMARK    5  A    between atoms: S_15  and  C_16
REMARK                            x       y       z     vdW  Elec       q    Type
REMARK                         _______ _______ _______ _____ _____    ______ ____
ROOT
ATOM      1  C   UNL     1       5.515   5.021  15.575  0.00  0.00    +0.000 C 
ATOM      2  C   UNL     1       4.960   4.839  17.000  0.00  0.00    +0.000 C 
ATOM      3  C   UNL     1       6.164   4.713  17.959  0.00  0.00    +0.000 C 
ATOM      4  C   UNL     1       4.105   3.559  17.043  0.00  0.00    +0.000 C 
ATOM      5  C   UNL     1       3.431   3.369  18.384  0.00  0.00    +0.000 C 
ATOM      6  O   UNL     1       3.208   2.260  18.859  0.00  0.00    +0.000 OA
ATOM      7  C   UNL     1       2.972   4.576  19.085  0.00  0.00    +0.000 A 
ATOM      8  C   UNL     1       2.244   4.507  20.249  0.00  0.00    +0.000 A 
ATOM      9  N   UNL     1       1.762   5.595  20.889  0.00  0.00    +0.000 NA
ATOM     10  C   UNL     1       1.994   6.785  20.309  0.00  0.00    +0.000 A 
ATOM     11  N   UNL     1       1.384   7.857  20.941  0.00  0.00    +0.000 N 
ATOM     12  C   UNL     1       1.131   9.084  20.374  0.00  0.00    +0.000 C 
ATOM     13  O   UNL     1       1.422   9.425  19.227  0.00  0.00    +0.000 OA
ATOM     14  N   UNL     1       2.746   6.948  19.210  0.00  0.00    +0.000 NA
ATOM     15  C   UNL     1       3.244   5.841  18.611  0.00  0.00    +0.000 A 
ATOM     16  C   UNL     1       4.074   6.053  17.369  0.00  0.00    +0.000 C 
ATOM     17  H   UNL     1       0.826   7.575  21.741  0.00  0.00    +0.000 HD
ENDROOT
BRANCH  12  18
ATOM     18  C   UNL     1       0.419  10.047  21.313  0.00  0.00    +0.000 C 
BRANCH  18  19
ATOM     19  S   UNL     1       0.202  11.696  20.596  0.00  0.00    +0.000 S 
BRANCH  19  20
ATOM     20  C   UNL     1      -1.167  11.480  19.548  0.00  0.00    +0.000 A 
ATOM     21  N   UNL     1      -1.102  10.923  18.351  0.00  0.00    +0.000 NA
ATOM     22  C   UNL     1      -2.362  11.119  17.834  0.00  0.00    +0.000 A 
ATOM     23  C   UNL     1      -2.894  10.838  16.569  0.00  0.00    +0.000 A 
ATOM     24  C   UNL     1      -4.227  11.201  16.318  0.00  0.00    +0.000 A 
ATOM     25  C   UNL     1      -5.013  11.805  17.308  0.00  0.00    +0.000 A 
ATOM     26  C   UNL     1      -4.499  12.078  18.582  0.00  0.00    +0.000 A 
ATOM     27  C   UNL     1      -3.167  11.728  18.781  0.00  0.00    +0.000 A 
ATOM     28  O   UNL     1      -2.412  11.940  19.893  0.00  0.00    +0.000 OA
ENDBRANCH  19  20
ENDBRANCH  18  19
ENDBRANCH  12  18
TORSDOF 3
ENDMDL
MODEL 7
REMARK VINA RESULT:      -8.2      3.965      9.222
REMARK  Name = 
REMARK  5 active torsions:
REMARK  status: ('A' for Active; 'I' for Inactive)
REMARK    1  A    between atoms: C_1  and  C_2
REMARK    2  A    between atoms: C_2  and  C_3
REMARK    3  A    between atoms: C_12  and  C_14
REMARK    4  A    between atoms: C_14  and  S_15
REMARK    5  A    between atoms: S_15  and  C_16
REMARK                            x       y       z     vdW  Elec       q    Type
REMARK                         _______ _______ _______ _____ _____    ______ ____
ROOT
ATOM      1  C   UNL     1       1.263   2.472  21.668  0.00  0.00    +0.000 C 
ATOM      2  C   UNL     1       1.864   3.173  20.436  0.00  0.00    +0.000 C 
ATOM      3  C   UNL     1       1.208   2.558  19.180  0.00  0.00    +0.000 C 
ATOM      4  C   UNL     1       3.386   2.934  20.417  0.00  0.00    +0.000 C 
ATOM      5  C   UNL     1       4.066   3.686  19.295  0.00  0.00    +0.000 C 
ATOM      6  O   UNL     1       5.064   3.257  18.723  0.00  0.00    +0.000 OA
ATOM      7  C   UNL     1       3.533   5.010  18.949  0.00  0.00    +0.000 A 
ATOM      8  C   UNL     1       4.150   5.824  18.029  0.00  0.00    +0.000 A 
ATOM      9  N   UNL     1       3.715   7.068  17.729  0.00  0.00    +0.000 NA
ATOM     10  C   UNL     1       2.646   7.511  18.411  0.00  0.00    +0.000 A 
ATOM     11  N   UNL     1       2.309   8.830  18.150  0.00  0.00    +0.000 N 
ATOM     12  C   UNL     1       1.540   9.636  18.956  0.00  0.00    +0.000 C 
ATOM     13  O   UNL     1       1.018   9.307  20.022  0.00  0.00    +0.000 OA
ATOM     14  N   UNL     1       1.948   6.763  19.278  0.00  0.00    +0.000 NA
ATOM     15  C   UNL     1       2.388   5.508  19.532  0.00  0.00    +0.000 A 
ATOM     16  C   UNL     1       1.592   4.694  20.521  0.00  0.00    +0.000 C 
ATOM     17  H   UNL     1       2.945   9.275  17.495  0.00  0.00    +0.000 HD
ENDROOT
BRANCH  12  18
ATOM     18  C   UNL     1       1.372  11.048  18.413  0.00  0.00    +0.000 C 
BRANCH  18  19
ATOM     19  S   UNL     1       0.438  12.124  19.531  0.00  0.00    +0.000 S 
BRANCH  19  20
ATOM     20  C   UNL     1      -1.206  11.857  19.034  0.00  0.00    +0.000 A 
ATOM     21  N   UNL     1      -1.552  11.362  17.858  0.00  0.00    +0.000 NA
ATOM     22  C   UNL     1      -2.922  11.489  17.845  0.00  0.00    +0.000 A 
ATOM     23  C   UNL     1      -3.863  11.229  16.841  0.00  0.00    +0.000 A 
ATOM     24  C   UNL     1      -5.213  11.504  17.113  0.00  0.00    +0.000 A 
ATOM     25  C   UNL     1      -5.615  12.002  18.359  0.00  0.00    +0.000 A 
ATOM     26  C   UNL     1      -4.687  12.253  19.378  0.00  0.00    +0.000 A 
ATOM     27  C   UNL     1      -3.357  11.993  19.059  0.00  0.00    +0.000 A 
ATOM     28  O   UNL     1      -2.261  12.208  19.836  0.00  0.00    +0.000 OA
ENDBRANCH  19  20
ENDBRANCH  18  19
ENDBRANCH  12  18
TORSDOF 3
ENDMDL
MODEL 8
REMARK VINA RESULT:      -8.2      3.486     10.650
REMARK  Name = 
REMARK  5 active torsions:
REMARK  status: ('A' for Active; 'I' for Inactive)
REMARK    1  A    between atoms: C_1  and  C_2
REMARK    2  A    between atoms: C_2  and  C_3
REMARK    3  A    between atoms: C_12  and  C_14
REMARK    4  A    between atoms: C_14  and  S_15
REMARK    5  A    between atoms: S_15  and  C_16
REMARK                            x       y       z     vdW  Elec       q    Type
REMARK                         _______ _______ _______ _____ _____    ______ ____
ROOT
ATOM      1  C   UNL     1       5.996   5.191  15.368  0.00  0.00    +0.000 C 
ATOM      2  C   UNL     1       5.432   4.883  16.767  0.00  0.00    +0.000 C 
ATOM      3  C   UNL     1       6.625   4.800  17.745  0.00  0.00    +0.000 C 
ATOM      4  C   UNL     1       4.684   3.538  16.719  0.00  0.00    +0.000 C 
ATOM      5  C   UNL     1       4.004   3.218  18.032  0.00  0.00    +0.000 C 
ATOM      6  O   UNL     1       3.863   2.069  18.440  0.00  0.00    +0.000 OA
ATOM      7  C   UNL     1       3.436   4.342  18.789  0.00  0.00    +0.000 A 
ATOM      8  C   UNL     1       2.695   4.147  19.931  0.00  0.00    +0.000 A 
ATOM      9  N   UNL     1       2.114   5.155  20.619  0.00  0.00    +0.000 NA
ATOM     10  C   UNL     1       2.258   6.391  20.112  0.00  0.00    +0.000 A 
ATOM     11  N   UNL     1       1.551   7.372  20.789  0.00  0.00    +0.000 N 
ATOM     12  C   UNL     1       1.209   8.605  20.285  0.00  0.00    +0.000 C 
ATOM     13  O   UNL     1       1.492   9.034  19.167  0.00  0.00    +0.000 OA
ATOM     14  N   UNL     1       3.014   6.677  19.041  0.00  0.00    +0.000 NA
ATOM     15  C   UNL     1       3.611   5.650  18.392  0.00  0.00    +0.000 A 
ATOM     16  C   UNL     1       4.444   5.999  17.184  0.00  0.00    +0.000 C 
ATOM     17  H   UNL     1       1.004   7.000  21.559  0.00  0.00    +0.000 HD
ENDROOT
BRANCH  12  18
ATOM     18  C   UNL     1       0.404   9.453  21.261  0.00  0.00    +0.000 C 
BRANCH  18  19
ATOM     19  S   UNL     1       0.658  11.230  21.023  0.00  0.00    +0.000 S 
BRANCH  19  20
ATOM     20  C   UNL     1      -0.462  11.930  22.154  0.00  0.00    +0.000 A 
ATOM     21  N   UNL     1      -1.560  11.328  22.577  0.00  0.00    +0.000 NA
ATOM     22  C   UNL     1      -2.203  12.303  23.305  0.00  0.00    +0.000 A 
ATOM     23  C   UNL     1      -3.456  12.312  23.929  0.00  0.00    +0.000 A 
ATOM     24  C   UNL     1      -3.866  13.492  24.571  0.00  0.00    +0.000 A 
ATOM     25  C   UNL     1      -3.039  14.622  24.609  0.00  0.00    +0.000 A 
ATOM     26  C   UNL     1      -1.776  14.622  24.002  0.00  0.00    +0.000 A 
ATOM     27  C   UNL     1      -1.420  13.443  23.353  0.00  0.00    +0.000 A 
ATOM     28  O   UNL     1      -0.289  13.201  22.637  0.00  0.00    +0.000 OA
ENDBRANCH  19  20
ENDBRANCH  18  19
ENDBRANCH  12  18
TORSDOF 3
ENDMDL
MODEL 9
REMARK VINA RESULT:      -8.1      3.516     10.682
REMARK  Name = 
REMARK  5 active torsions:
REMARK  status: ('A' for Active; 'I' for Inactive)
REMARK    1  A    between atoms: C_1  and  C_2
REMARK    2  A    between atoms: C_2  and  C_3
REMARK    3  A    between atoms: C_12  and  C_14
REMARK    4  A    between atoms: C_14  and  S_15
REMARK    5  A    between atoms: S_15  and  C_16
REMARK                            x       y       z     vdW  Elec       q    Type
REMARK                         _______ _______ _______ _____ _____    ______ ____
ROOT
ATOM      1  C   UNL     1       5.671   5.246  15.196  0.00  0.00    +0.000 C 
ATOM      2  C   UNL     1       5.170   4.976  16.626  0.00  0.00    +0.000 C 
ATOM      3  C   UNL     1       6.408   4.867  17.543  0.00  0.00    +0.000 C 
ATOM      4  C   UNL     1       4.377   3.656  16.637  0.00  0.00    +0.000 C 
ATOM      5  C   UNL     1       3.755   3.376  17.988  0.00  0.00    +0.000 C 
ATOM      6  O   UNL     1       3.599   2.238  18.419  0.00  0.00    +0.000 OA
ATOM      7  C   UNL     1       3.263   4.528  18.755  0.00  0.00    +0.000 A 
ATOM      8  C   UNL     1       2.576   4.374  19.936  0.00  0.00    +0.000 A 
ATOM      9  N   UNL     1       2.065   5.409  20.638  0.00  0.00    +0.000 NA
ATOM     10  C   UNL     1       2.223   6.632  20.105  0.00  0.00    +0.000 A 
ATOM     11  N   UNL     1       1.584   7.645  20.802  0.00  0.00    +0.000 N 
ATOM     12  C   UNL     1       1.256   8.882  20.298  0.00  0.00    +0.000 C 
ATOM     13  O   UNL     1       1.495   9.287  19.160  0.00  0.00    +0.000 OA
ATOM     14  N   UNL     1       2.931   6.879  18.993  0.00  0.00    +0.000 NA
ATOM     15  C   UNL     1       3.461   5.824  18.330  0.00  0.00    +0.000 A 
ATOM     16  C   UNL     1       4.240   6.129  17.076  0.00  0.00    +0.000 C 
ATOM     17  H   UNL     1       1.065   7.303  21.605  0.00  0.00    +0.000 HD
ENDROOT
BRANCH  12  18
ATOM     18  C   UNL     1       0.530   9.769  21.300  0.00  0.00    +0.000 C 
BRANCH  18  19
ATOM     19  S   UNL     1       0.848  11.532  21.039  0.00  0.00    +0.000 S 
BRANCH  19  20
ATOM     20  C   UNL     1      -0.405  12.290  21.975  0.00  0.00    +0.000 A 
ATOM     21  N   UNL     1      -0.263  13.443  22.607  0.00  0.00    +0.000 NA
ATOM     22  C   UNL     1      -1.425  13.558  23.335  0.00  0.00    +0.000 A 
ATOM     23  C   UNL     1      -1.833  14.512  24.275  0.00  0.00    +0.000 A 
ATOM     24  C   UNL     1      -3.080  14.335  24.896  0.00  0.00    +0.000 A 
ATOM     25  C   UNL     1      -3.905  13.250  24.573  0.00  0.00    +0.000 A 
ATOM     26  C   UNL     1      -3.515  12.296  23.624  0.00  0.00    +0.000 A 
ATOM     27  C   UNL     1      -2.262  12.492  23.051  0.00  0.00    +0.000 A 
ATOM     28  O   UNL     1      -1.623  11.688  22.159  0.00  0.00    +0.000 OA
ENDBRANCH  19  20
ENDBRANCH  18  19
ENDBRANCH  12  18
TORSDOF 3
ENDMDL
