MODEL 1
REMARK VINA RESULT:      -8.5      0.000      0.000
REMARK  Name = 
REMARK  8 active torsions:
REMARK  status: ('A' for Active; 'I' for Inactive)
REMARK    1  A    between atoms: C_1  and  C_2
REMARK    2  A    between atoms: C_2  and  C_3
REMARK    3  A    between atoms: C_3  and  C_4
REMARK    4  A    between atoms: C_4  and  C_5
REMARK    5  A    between atoms: C_5  and  N_6
REMARK    6  A    between atoms: C_8  and  C_9
REMARK    7  A    between atoms: N_11  and  C_12
REMARK    8  A    between atoms: C_22  and  C_23
REMARK                            x       y       z     vdW  Elec       q    Type
REMARK                         _______ _______ _______ _____ _____    ______ ____
ROOT
ATOM      1  N   UNL     1       2.215   5.834  20.421  0.00  0.00    +0.000 N 
ATOM      2  C   UNL     1       1.544   6.967  20.866  0.00  0.00    +0.000 A 
ATOM      3  C   UNL     1       1.485   8.144  20.215  0.00  0.00    +0.000 A 
ATOM      4  C   UNL     1       2.177   8.247  18.901  0.00  0.00    +0.000 A 
ATOM      5  O   UNL     1       2.158   9.248  18.190  0.00  0.00    +0.000 OA
ATOM      6  N   UNL     1       2.907   7.095  18.541  0.00  0.00    +0.000 N 
ATOM      7  N   UNL     1       3.682   7.026  17.424  0.00  0.00    +0.000 NA
ATOM      8  C   UNL     1       4.271   5.818  17.477  0.00  0.00    +0.000 A 
ATOM      9  C   UNL     1       3.871   5.123  18.649  0.00  0.00    +0.000 A 
ATOM     10  C   UNL     1       2.964   5.930  19.284  0.00  0.00    +0.000 A 
ENDROOT
BRANCH   8  11
ATOM     11  C   UNL     1       5.240   5.388  16.456  0.00  0.00    +0.000 A 
ATOM     12  C   UNL     1       4.779   4.587  15.393  0.00  0.00    +0.000 A 
ATOM     13  C   UNL     1       5.631   4.172  14.364  0.00  0.00    +0.000 A 
ATOM     14  C   UNL     1       6.968   4.551  14.372  0.00  0.00    +0.000 A 
ATOM     15  C   UNL     1       7.453   5.331  15.421  0.00  0.00    +0.000 A 
ATOM     16  C   UNL     1       6.604   5.740  16.461  0.00  0.00    +0.000 A 
ATOM     17 CL   UNL     1       7.365   6.647  17.728  0.00  0.00    +0.000 Cl
ENDBRANCH   8  11
BRANCH   3  18
ATOM     18  C   UNL     1       0.777   9.265  20.894  0.00  0.00    +0.000 C 
ATOM     19  O   UNL     1       0.858   9.429  22.108  0.00  0.00    +0.000 OA
ATOM     20  N   UNL     1       0.074  10.112  20.076  0.00  0.00    +0.000 N 
ATOM     21  H   UNL     1       0.129   9.958  19.069  0.00  0.00    +0.000 HD
BRANCH  20  22
ATOM     22  C   UNL     1      -0.435  11.397  20.547  0.00  0.00    +0.000 C 
ATOM     23  C   UNL     1       0.609  12.506  20.362  0.00  0.00    +0.000 C 
ATOM     24  C   UNL     1       0.892  12.765  18.884  0.00  0.00    +0.000 C 
ATOM     25  C   UNL     1      -0.384  13.119  18.125  0.00  0.00    +0.000 C 
ATOM     26  C   UNL     1      -1.512  12.113  18.349  0.00  0.00    +0.000 C 
ATOM     27  C   UNL     1      -1.732  11.777  19.824  0.00  0.00    +0.000 C 
ENDBRANCH  20  22
ENDBRANCH   3  18
BRANCH   1  28
ATOM     28  C   UNL     1       2.194   4.572  21.181  0.00  0.00    +0.000 C 
BRANCH  28  29
ATOM     29  C   UNL     1       1.063   3.657  20.695  0.00  0.00    +0.000 C 
BRANCH  29  30
ATOM     30  C   UNL     1       1.629   2.396  20.042  0.00  0.00    +0.000 C 
BRANCH  30  32
ATOM     31  C   UNL     1       2.473   2.180  17.688  0.00  0.00    +0.000 C 
ATOM     32  C   UNL     1       1.244   2.309  18.567  0.00  0.00    +0.000 C 
ENDBRANCH  30  32
ENDBRANCH  29  30
ENDBRANCH  28  29
ENDBRANCH   1  28
TORSDOF 7
ENDMDL
MODEL 2
REMARK VINA RESULT:      -8.1      0.882      1.082
REMARK  Name = 
REMARK  8 active torsions:
REMARK  status: ('A' for Active; 'I' for Inactive)
REMARK    1  A    between atoms: C_1  and  C_2
REMARK    2  A    between atoms: C_2  and  C_3
REMARK    3  A    between atoms: C_3  and  C_4
REMARK    4  A    between atoms: C_4  and  C_5
REMARK    5  A    between atoms: C_5  and  N_6
REMARK    6  A    between atoms: C_8  and  C_9
REMARK    7  A    between atoms: N_11  and  C_12
REMARK    8  A    between atoms: C_22  and  C_23
REMARK                            x       y       z     vdW  Elec       q    Type
REMARK                         _______ _______ _______ _____ _____    ______ ____
ROOT
ATOM      1  N   UNL     1       2.117   6.371  20.181  0.00  0.00    +0.000 N 
ATOM      2  C   UNL     1       1.442   7.547  20.488  0.00  0.00    +0.000 A 
ATOM      3  C   UNL     1       1.415   8.653  19.721  0.00  0.00    +0.000 A 
ATOM      4  C   UNL     1       2.149   8.619  18.426  0.00  0.00    +0.000 A 
ATOM      5  O   UNL     1       2.162   9.543  17.618  0.00  0.00    +0.000 OA
ATOM      6  N   UNL     1       2.879   7.432  18.207  0.00  0.00    +0.000 N 
ATOM      7  N   UNL     1       3.688   7.246  17.128  0.00  0.00    +0.000 NA
ATOM      8  C   UNL     1       4.264   6.045  17.321  0.00  0.00    +0.000 A 
ATOM      9  C   UNL     1       3.820   5.474  18.544  0.00  0.00    +0.000 A 
ATOM     10  C   UNL     1       2.902   6.347  19.065  0.00  0.00    +0.000 A 
ENDROOT
BRANCH   8  11
ATOM     11  C   UNL     1       5.260   5.508  16.380  0.00  0.00    +0.000 A 
ATOM     12  C   UNL     1       4.816   4.651  15.354  0.00  0.00    +0.000 A 
ATOM     13  C   UNL     1       5.697   4.134  14.399  0.00  0.00    +0.000 A 
ATOM     14  C   UNL     1       7.046   4.463  14.445  0.00  0.00    +0.000 A 
ATOM     15  C   UNL     1       7.514   5.297  15.459  0.00  0.00    +0.000 A 
ATOM     16  C   UNL     1       6.636   5.810  16.427  0.00  0.00    +0.000 A 
ATOM     17 CL   UNL     1       7.374   6.776  17.663  0.00  0.00    +0.000 Cl
ENDBRANCH   8  11
BRANCH   3  18
ATOM     18  C   UNL     1       0.697   9.841  20.260  0.00  0.00    +0.000 C 
ATOM     19  O   UNL     1      -0.273   9.718  21.003  0.00  0.00    +0.000 OA
ATOM     20  N   UNL     1       1.213  11.063  19.910  0.00  0.00    +0.000 N 
ATOM     21  H   UNL     1       2.073  11.078  19.361  0.00  0.00    +0.000 HD
BRANCH  20  22
ATOM     22  C   UNL     1       0.799  12.297  20.572  0.00  0.00    +0.000 C 
ATOM     23  C   UNL     1       1.990  13.244  20.768  0.00  0.00    +0.000 C 
ATOM     24  C   UNL     1       2.539  13.734  19.430  0.00  0.00    +0.000 C 
ATOM     25  C   UNL     1       1.458  14.422  18.601  0.00  0.00    +0.000 C 
ATOM     26  C   UNL     1       0.191  13.580  18.453  0.00  0.00    +0.000 C 
ATOM     27  C   UNL     1      -0.305  13.005  19.780  0.00  0.00    +0.000 C 
ENDBRANCH  20  22
ENDBRANCH   3  18
BRANCH   1  28
ATOM     28  C   UNL     1       2.059   5.192  21.063  0.00  0.00    +0.000 C 
BRANCH  28  29
ATOM     29  C   UNL     1       1.005   4.192  20.575  0.00  0.00    +0.000 C 
BRANCH  29  30
ATOM     30  C   UNL     1       1.463   2.755  20.824  0.00  0.00    +0.000 C 
BRANCH  30  32
ATOM     31  C   UNL     1       1.418   2.763  18.314  0.00  0.00    +0.000 C 
ATOM     32  C   UNL     1       2.007   2.111  19.551  0.00  0.00    +0.000 C 
ENDBRANCH  30  32
ENDBRANCH  29  30
ENDBRANCH  28  29
ENDBRANCH   1  28
TORSDOF 7
ENDMDL
MODEL 3
REMARK VINA RESULT:      -7.5      0.813      1.200
REMARK  Name = 
REMARK  8 active torsions:
REMARK  status: ('A' for Active; 'I' for Inactive)
REMARK    1  A    between atoms: C_1  and  C_2
REMARK    2  A    between atoms: C_2  and  C_3
REMARK    3  A    between atoms: C_3  and  C_4
REMARK    4  A    between atoms: C_4  and  C_5
REMARK    5  A    between atoms: C_5  and  N_6
REMARK    6  A    between atoms: C_8  and  C_9
REMARK    7  A    between atoms: N_11  and  C_12
REMARK    8  A    between atoms: C_22  and  C_23
REMARK                            x       y       z     vdW  Elec       q    Type
REMARK                         _______ _______ _______ _____ _____    ______ ____
ROOT
ATOM      1  N   UNL     1       2.111   6.471  20.110  0.00  0.00    +0.000 N 
ATOM      2  C   UNL     1       1.443   7.661  20.379  0.00  0.00    +0.000 A 
ATOM      3  C   UNL     1       1.431   8.745  19.582  0.00  0.00    +0.000 A 
ATOM      4  C   UNL     1       2.176   8.671  18.295  0.00  0.00    +0.000 A 
ATOM      5  O   UNL     1       2.204   9.572  17.463  0.00  0.00    +0.000 OA
ATOM      6  N   UNL     1       2.900   7.473  18.116  0.00  0.00    +0.000 N 
ATOM      7  N   UNL     1       3.716   7.251  17.050  0.00  0.00    +0.000 NA
ATOM      8  C   UNL     1       4.281   6.052  17.281  0.00  0.00    +0.000 A 
ATOM      9  C   UNL     1       3.822   5.518  18.514  0.00  0.00    +0.000 A 
ATOM     10  C   UNL     1       2.906   6.411  19.003  0.00  0.00    +0.000 A 
ENDROOT
BRANCH   8  11
ATOM     11  C   UNL     1       5.282   5.482  16.364  0.00  0.00    +0.000 A 
ATOM     12  C   UNL     1       4.833   4.651  15.319  0.00  0.00    +0.000 A 
ATOM     13  C   UNL     1       5.720   4.105  14.385  0.00  0.00    +0.000 A 
ATOM     14  C   UNL     1       7.079   4.379  14.472  0.00  0.00    +0.000 A 
ATOM     15  C   UNL     1       7.551   5.187  15.506  0.00  0.00    +0.000 A 
ATOM     16  C   UNL     1       6.666   5.728  16.452  0.00  0.00    +0.000 A 
ATOM     17 CL   UNL     1       7.407   6.655  17.717  0.00  0.00    +0.000 Cl
ENDBRANCH   8  11
BRANCH   3  18
ATOM     18  C   UNL     1       0.718   9.953  20.082  0.00  0.00    +0.000 C 
ATOM     19  O   UNL     1       1.066  10.518  21.116  0.00  0.00    +0.000 OA
ATOM     20  N   UNL     1      -0.312  10.408  19.298  0.00  0.00    +0.000 N 
ATOM     21  H   UNL     1      -0.481   9.935  18.412  0.00  0.00    +0.000 HD
BRANCH  20  22
ATOM     22  C   UNL     1      -0.919  11.721  19.504  0.00  0.00    +0.000 C 
ATOM     23  C   UNL     1      -0.892  12.549  18.213  0.00  0.00    +0.000 C 
ATOM     24  C   UNL     1      -1.769  11.925  17.130  0.00  0.00    +0.000 C 
ATOM     25  C   UNL     1      -3.208  11.754  17.609  0.00  0.00    +0.000 C 
ATOM     26  C   UNL     1      -3.311  11.030  18.950  0.00  0.00    +0.000 C 
ATOM     27  C   UNL     1      -2.360  11.590  20.009  0.00  0.00    +0.000 C 
ENDBRANCH  20  22
ENDBRANCH   3  18
BRANCH   1  28
ATOM     28  C   UNL     1       2.036   5.317  21.024  0.00  0.00    +0.000 C 
BRANCH  28  29
ATOM     29  C   UNL     1       0.994   4.302  20.541  0.00  0.00    +0.000 C 
BRANCH  29  30
ATOM     30  C   UNL     1       1.661   2.983  20.151  0.00  0.00    +0.000 C 
BRANCH  30  32
ATOM     31  C   UNL     1       2.312   2.281  17.830  0.00  0.00    +0.000 C 
ATOM     32  C   UNL     1       1.162   2.481  18.798  0.00  0.00    +0.000 C 
ENDBRANCH  30  32
ENDBRANCH  29  30
ENDBRANCH  28  29
ENDBRANCH   1  28
TORSDOF 7
ENDMDL
MODEL 4
REMARK VINA RESULT:      -7.4      2.735      5.169
REMARK  Name = 
REMARK  8 active torsions:
REMARK  status: ('A' for Active; 'I' for Inactive)
REMARK    1  A    between atoms: C_1  and  C_2
REMARK    2  A    between atoms: C_2  and  C_3
REMARK    3  A    between atoms: C_3  and  C_4
REMARK    4  A    between atoms: C_4  and  C_5
REMARK    5  A    between atoms: C_5  and  N_6
REMARK    6  A    between atoms: C_8  and  C_9
REMARK    7  A    between atoms: N_11  and  C_12
REMARK    8  A    between atoms: C_22  and  C_23
REMARK                            x       y       z     vdW  Elec       q    Type
REMARK                         _______ _______ _______ _____ _____    ______ ____
ROOT
ATOM      1  N   UNL     1      -0.143  10.179  18.873  0.00  0.00    +0.000 N 
ATOM      2  C   UNL     1      -0.595  10.608  20.116  0.00  0.00    +0.000 A 
ATOM      3  C   UNL     1      -0.103  10.209  21.303  0.00  0.00    +0.000 A 
ATOM      4  C   UNL     1       1.030   9.243  21.298  0.00  0.00    +0.000 A 
ATOM      5  O   UNL     1       1.595   8.839  22.311  0.00  0.00    +0.000 OA
ATOM      6  N   UNL     1       1.390   8.782  20.014  0.00  0.00    +0.000 N 
ATOM      7  N   UNL     1       2.338   7.828  19.806  0.00  0.00    +0.000 NA
ATOM      8  C   UNL     1       2.330   7.606  18.479  0.00  0.00    +0.000 A 
ATOM      9  C   UNL     1       1.357   8.423  17.846  0.00  0.00    +0.000 A 
ATOM     10  C   UNL     1       0.807   9.201  18.831  0.00  0.00    +0.000 A 
ENDROOT
BRANCH   8  11
ATOM     11  C   UNL     1       3.194   6.585  17.864  0.00  0.00    +0.000 A 
ATOM     12  C   UNL     1       4.336   7.014  17.159  0.00  0.00    +0.000 A 
ATOM     13  C   UNL     1       5.226   6.102  16.581  0.00  0.00    +0.000 A 
ATOM     14  C   UNL     1       4.996   4.737  16.697  0.00  0.00    +0.000 A 
ATOM     15  C   UNL     1       3.865   4.287  17.376  0.00  0.00    +0.000 A 
ATOM     16  C   UNL     1       2.963   5.198  17.948  0.00  0.00    +0.000 A 
ATOM     17 CL   UNL     1       1.570   4.492  18.701  0.00  0.00    +0.000 Cl
ENDBRANCH   8  11
BRANCH   3  18
ATOM     18  C   UNL     1      -0.773  10.726  22.529  0.00  0.00    +0.000 C 
ATOM     19  O   UNL     1      -0.654  10.156  23.611  0.00  0.00    +0.000 OA
ATOM     20  N   UNL     1      -1.488  11.887  22.376  0.00  0.00    +0.000 N 
ATOM     21  H   UNL     1      -1.466  12.344  21.465  0.00  0.00    +0.000 HD
BRANCH  20  22
ATOM     22  C   UNL     1      -1.965  12.658  23.521  0.00  0.00    +0.000 C 
ATOM     23  C   UNL     1      -1.728  14.160  23.310  0.00  0.00    +0.000 C 
ATOM     24  C   UNL     1      -2.565  14.700  22.153  0.00  0.00    +0.000 C 
ATOM     25  C   UNL     1      -4.053  14.432  22.369  0.00  0.00    +0.000 C 
ATOM     26  C   UNL     1      -4.356  12.970  22.693  0.00  0.00    +0.000 C 
ATOM     27  C   UNL     1      -3.451  12.397  23.784  0.00  0.00    +0.000 C 
ENDBRANCH  20  22
ENDBRANCH   3  18
BRANCH   1  28
ATOM     28  C   UNL     1      -0.715  10.700  17.618  0.00  0.00    +0.000 C 
BRANCH  28  29
ATOM     29  C   UNL     1      -1.853   9.802  17.119  0.00  0.00    +0.000 C 
BRANCH  29  30
ATOM     30  C   UNL     1      -3.187  10.549  17.153  0.00  0.00    +0.000 C 
BRANCH  30  32
ATOM     31  C   UNL     1      -3.064  10.113  14.684  0.00  0.00    +0.000 C 
ATOM     32  C   UNL     1      -3.589  11.038  15.764  0.00  0.00    +0.000 C 
ENDBRANCH  30  32
ENDBRANCH  29  30
ENDBRANCH  28  29
ENDBRANCH   1  28
TORSDOF 7
ENDMDL
MODEL 5
REMARK VINA RESULT:      -7.4      3.839      9.764
REMARK  Name = 
REMARK  8 active torsions:
REMARK  status: ('A' for Active; 'I' for Inactive)
REMARK    1  A    between atoms: C_1  and  C_2
REMARK    2  A    between atoms: C_2  and  C_3
REMARK    3  A    between atoms: C_3  and  C_4
REMARK    4  A    between atoms: C_4  and  C_5
REMARK    5  A    between atoms: C_5  and  N_6
REMARK    6  A    between atoms: C_8  and  C_9
REMARK    7  A    between atoms: N_11  and  C_12
REMARK    8  A    between atoms: C_22  and  C_23
REMARK                            x       y       z     vdW  Elec       q    Type
REMARK                         _______ _______ _______ _____ _____    ______ ____
ROOT
ATOM      1  N   UNL     1      -1.038  11.001  19.078  0.00  0.00    +0.000 N 
ATOM      2  C   UNL     1      -0.089  10.024  18.796  0.00  0.00    +0.000 A 
ATOM      3  C   UNL     1       0.804   9.530  19.673  0.00  0.00    +0.000 A 
ATOM      4  C   UNL     1       0.773  10.052  21.067  0.00  0.00    +0.000 A 
ATOM      5  O   UNL     1       1.502   9.651  21.969  0.00  0.00    +0.000 OA
ATOM      6  N   UNL     1      -0.153  11.097  21.271  0.00  0.00    +0.000 N 
ATOM      7  N   UNL     1      -0.268  11.769  22.450  0.00  0.00    +0.000 NA
ATOM      8  C   UNL     1      -1.182  12.729  22.222  0.00  0.00    +0.000 A 
ATOM      9  C   UNL     1      -1.640  12.668  20.879  0.00  0.00    +0.000 A 
ATOM     10  C   UNL     1      -1.014  11.592  20.307  0.00  0.00    +0.000 A 
ENDROOT
BRANCH   8  11
ATOM     11  C   UNL     1      -1.543  13.710  23.258  0.00  0.00    +0.000 A 
ATOM     12  C   UNL     1      -0.688  14.812  23.461  0.00  0.00    +0.000 A 
ATOM     13  C   UNL     1      -0.985  15.806  24.399  0.00  0.00    +0.000 A 
ATOM     14  C   UNL     1      -2.147  15.724  25.157  0.00  0.00    +0.000 A 
ATOM     15  C   UNL     1      -3.002  14.636  24.985  0.00  0.00    +0.000 A 
ATOM     16  C   UNL     1      -2.703  13.630  24.053  0.00  0.00    +0.000 A 
ATOM     17 CL   UNL     1      -3.824  12.308  24.002  0.00  0.00    +0.000 Cl
ENDBRANCH   8  11
BRANCH   3  18
ATOM     18  C   UNL     1       1.791   8.540  19.159  0.00  0.00    +0.000 C 
ATOM     19  O   UNL     1       2.623   8.850  18.310  0.00  0.00    +0.000 OA
ATOM     20  N   UNL     1       1.733   7.290  19.720  0.00  0.00    +0.000 N 
ATOM     21  H   UNL     1       1.071   7.138  20.480  0.00  0.00    +0.000 HD
BRANCH  20  22
ATOM     22  C   UNL     1       2.794   6.305  19.527  0.00  0.00    +0.000 C 
ATOM     23  C   UNL     1       2.676   5.160  20.542  0.00  0.00    +0.000 C 
ATOM     24  C   UNL     1       1.402   4.348  20.321  0.00  0.00    +0.000 C 
ATOM     25  C   UNL     1       1.334   3.794  18.900  0.00  0.00    +0.000 C 
ATOM     26  C   UNL     1       1.554   4.862  17.830  0.00  0.00    +0.000 C 
ATOM     27  C   UNL     1       2.774   5.742  18.102  0.00  0.00    +0.000 C 
ENDBRANCH  20  22
ENDBRANCH   3  18
BRANCH   1  28
ATOM     28  C   UNL     1      -2.007  11.455  18.065  0.00  0.00    +0.000 C 
BRANCH  28  29
ATOM     29  C   UNL     1      -3.064  10.378  17.793  0.00  0.00    +0.000 C 
BRANCH  29  30
ATOM     30  C   UNL     1      -3.838  10.689  16.512  0.00  0.00    +0.000 C 
BRANCH  30  32
ATOM     31  C   UNL     1      -3.485   9.984  14.129  0.00  0.00    +0.000 C 
ATOM     32  C   UNL     1      -2.911  10.756  15.300  0.00  0.00    +0.000 C 
ENDBRANCH  30  32
ENDBRANCH  29  30
ENDBRANCH  28  29
ENDBRANCH   1  28
TORSDOF 7
ENDMDL
MODEL 6
REMARK VINA RESULT:      -7.4      3.577      9.571
REMARK  Name = 
REMARK  8 active torsions:
REMARK  status: ('A' for Active; 'I' for Inactive)
REMARK    1  A    between atoms: C_1  and  C_2
REMARK    2  A    between atoms: C_2  and  C_3
REMARK    3  A    between atoms: C_3  and  C_4
REMARK    4  A    between atoms: C_4  and  C_5
REMARK    5  A    between atoms: C_5  and  N_6
REMARK    6  A    between atoms: C_8  and  C_9
REMARK    7  A    between atoms: N_11  and  C_12
REMARK    8  A    between atoms: C_22  and  C_23
REMARK                            x       y       z     vdW  Elec       q    Type
REMARK                         _______ _______ _______ _____ _____    ______ ____
ROOT
ATOM      1  N   UNL     1      -0.917  10.880  18.650  0.00  0.00    +0.000 N 
ATOM      2  C   UNL     1       0.060   9.923  18.397  0.00  0.00    +0.000 A 
ATOM      3  C   UNL     1       0.820   9.322  19.331  0.00  0.00    +0.000 A 
ATOM      4  C   UNL     1       0.594   9.689  20.755  0.00  0.00    +0.000 A 
ATOM      5  O   UNL     1       1.189   9.179  21.701  0.00  0.00    +0.000 OA
ATOM      6  N   UNL     1      -0.349  10.721  20.942  0.00  0.00    +0.000 N 
ATOM      7  N   UNL     1      -0.628  11.261  22.160  0.00  0.00    +0.000 NA
ATOM      8  C   UNL     1      -1.500  12.256  21.915  0.00  0.00    +0.000 A 
ATOM      9  C   UNL     1      -1.764  12.350  20.522  0.00  0.00    +0.000 A 
ATOM     10  C   UNL     1      -1.065  11.333  19.928  0.00  0.00    +0.000 A 
ENDROOT
BRANCH   8  11
ATOM     11  C   UNL     1      -2.001  13.125  22.992  0.00  0.00    +0.000 A 
ATOM     12  C   UNL     1      -3.196  12.758  23.643  0.00  0.00    +0.000 A 
ATOM     13  C   UNL     1      -3.714  13.512  24.702  0.00  0.00    +0.000 A 
ATOM     14  C   UNL     1      -3.047  14.650  25.138  0.00  0.00    +0.000 A 
ATOM     15  C   UNL     1      -1.871  15.042  24.501  0.00  0.00    +0.000 A 
ATOM     16  C   UNL     1      -1.353  14.296  23.430  0.00  0.00    +0.000 A 
ATOM     17 CL   UNL     1       0.077  14.945  22.695  0.00  0.00    +0.000 Cl
ENDBRANCH   8  11
BRANCH   3  18
ATOM     18  C   UNL     1       1.868   8.377  18.853  0.00  0.00    +0.000 C 
ATOM     19  O   UNL     1       2.742   8.736  18.068  0.00  0.00    +0.000 OA
ATOM     20  N   UNL     1       1.815   7.109  19.374  0.00  0.00    +0.000 N 
ATOM     21  H   UNL     1       1.111   6.916  20.086  0.00  0.00    +0.000 HD
BRANCH  20  22
ATOM     22  C   UNL     1       2.917   6.163  19.222  0.00  0.00    +0.000 C 
ATOM     23  C   UNL     1       2.898   5.110  20.339  0.00  0.00    +0.000 C 
ATOM     24  C   UNL     1       1.660   4.221  20.246  0.00  0.00    +0.000 C 
ATOM     25  C   UNL     1       1.564   3.539  18.884  0.00  0.00    +0.000 C 
ATOM     26  C   UNL     1       1.685   4.515  17.715  0.00  0.00    +0.000 C 
ATOM     27  C   UNL     1       2.868   5.473  17.855  0.00  0.00    +0.000 C 
ENDBRANCH  20  22
ENDBRANCH   3  18
BRANCH   1  28
ATOM     28  C   UNL     1      -1.733  11.459  17.568  0.00  0.00    +0.000 C 
BRANCH  28  29
ATOM     29  C   UNL     1      -3.038  10.675  17.384  0.00  0.00    +0.000 C 
BRANCH  29  30
ATOM     30  C   UNL     1      -2.906   9.661  16.248  0.00  0.00    +0.000 C 
BRANCH  30  32
ATOM     31  C   UNL     1      -3.989   9.966  14.004  0.00  0.00    +0.000 C 
ATOM     32  C   UNL     1      -2.820  10.352  14.889  0.00  0.00    +0.000 C 
ENDBRANCH  30  32
ENDBRANCH  29  30
ENDBRANCH  28  29
ENDBRANCH   1  28
TORSDOF 7
ENDMDL
MODEL 7
REMARK VINA RESULT:      -7.2      1.233      1.493
REMARK  Name = 
REMARK  8 active torsions:
REMARK  status: ('A' for Active; 'I' for Inactive)
REMARK    1  A    between atoms: C_1  and  C_2
REMARK    2  A    between atoms: C_2  and  C_3
REMARK    3  A    between atoms: C_3  and  C_4
REMARK    4  A    between atoms: C_4  and  C_5
REMARK    5  A    between atoms: C_5  and  N_6
REMARK    6  A    between atoms: C_8  and  C_9
REMARK    7  A    between atoms: N_11  and  C_12
REMARK    8  A    between atoms: C_22  and  C_23
REMARK                            x       y       z     vdW  Elec       q    Type
REMARK                         _______ _______ _______ _____ _____    ______ ____
ROOT
ATOM      1  N   UNL     1       1.922   6.139  20.503  0.00  0.00    +0.000 N 
ATOM      2  C   UNL     1       1.347   7.329  20.936  0.00  0.00    +0.000 A 
ATOM      3  C   UNL     1       1.372   8.495  20.264  0.00  0.00    +0.000 A 
ATOM      4  C   UNL     1       2.053   8.522  18.941  0.00  0.00    +0.000 A 
ATOM      5  O   UNL     1       2.103   9.509  18.213  0.00  0.00    +0.000 OA
ATOM      6  N   UNL     1       2.687   7.310  18.594  0.00  0.00    +0.000 N 
ATOM      7  N   UNL     1       3.439   7.161  17.469  0.00  0.00    +0.000 NA
ATOM      8  C   UNL     1       3.933   5.912  17.537  0.00  0.00    +0.000 A 
ATOM      9  C   UNL     1       3.494   5.270  18.726  0.00  0.00    +0.000 A 
ATOM     10  C   UNL     1       2.662   6.157  19.357  0.00  0.00    +0.000 A 
ENDROOT
BRANCH   8  11
ATOM     11  C   UNL     1       4.852   5.390  16.513  0.00  0.00    +0.000 A 
ATOM     12  C   UNL     1       5.622   6.310  15.775  0.00  0.00    +0.000 A 
ATOM     13  C   UNL     1       6.546   5.888  14.813  0.00  0.00    +0.000 A 
ATOM     14  C   UNL     1       6.724   4.532  14.568  0.00  0.00    +0.000 A 
ATOM     15  C   UNL     1       5.965   3.601  15.274  0.00  0.00    +0.000 A 
ATOM     16  C   UNL     1       5.028   4.020  16.233  0.00  0.00    +0.000 A 
ATOM     17 CL   UNL     1       4.111   2.752  16.980  0.00  0.00    +0.000 Cl
ENDBRANCH   8  11
BRANCH   3  18
ATOM     18  C   UNL     1       0.763   9.680  20.931  0.00  0.00    +0.000 C 
ATOM     19  O   UNL     1       1.117  10.034  22.052  0.00  0.00    +0.000 OA
ATOM     20  N   UNL     1      -0.177  10.362  20.199  0.00  0.00    +0.000 N 
ATOM     21  H   UNL     1      -0.352  10.055  19.243  0.00  0.00    +0.000 HD
BRANCH  20  22
ATOM     22  C   UNL     1      -0.656  11.683  20.595  0.00  0.00    +0.000 C 
ATOM     23  C   UNL     1       0.435  12.745  20.404  0.00  0.00    +0.000 C 
ATOM     24  C   UNL     1       0.784  12.928  18.929  0.00  0.00    +0.000 C 
ATOM     25  C   UNL     1      -0.448  13.294  18.106  0.00  0.00    +0.000 C 
ATOM     26  C   UNL     1      -1.621  12.340  18.328  0.00  0.00    +0.000 C 
ATOM     27  C   UNL     1      -1.909  12.077  19.806  0.00  0.00    +0.000 C 
ENDBRANCH  20  22
ENDBRANCH   3  18
BRANCH   1  28
ATOM     28  C   UNL     1       1.812   4.896  21.286  0.00  0.00    +0.000 C 
BRANCH  28  29
ATOM     29  C   UNL     1       0.948   3.861  20.555  0.00  0.00    +0.000 C 
BRANCH  29  30
ATOM     30  C   UNL     1       1.689   2.530  20.427  0.00  0.00    +0.000 C 
BRANCH  30  32
ATOM     31  C   UNL     1       4.169   2.144  20.466  0.00  0.00    +0.000 C 
ATOM     32  C   UNL     1       2.949   2.505  21.290  0.00  0.00    +0.000 C 
ENDBRANCH  30  32
ENDBRANCH  29  30
ENDBRANCH  28  29
ENDBRANCH   1  28
TORSDOF 7
ENDMDL
MODEL 8
REMARK VINA RESULT:      -7.2      2.811      5.641
REMARK  Name = 
REMARK  8 active torsions:
REMARK  status: ('A' for Active; 'I' for Inactive)
REMARK    1  A    between atoms: C_1  and  C_2
REMARK    2  A    between atoms: C_2  and  C_3
REMARK    3  A    between atoms: C_3  and  C_4
REMARK    4  A    between atoms: C_4  and  C_5
REMARK    5  A    between atoms: C_5  and  N_6
REMARK    6  A    between atoms: C_8  and  C_9
REMARK    7  A    between atoms: N_11  and  C_12
REMARK    8  A    between atoms: C_22  and  C_23
REMARK                            x       y       z     vdW  Elec       q    Type
REMARK                         _______ _______ _______ _____ _____    ______ ____
ROOT
ATOM      1  N   UNL     1       0.302   9.362  20.911  0.00  0.00    +0.000 N 
ATOM      2  C   UNL     1       0.280  10.624  20.327  0.00  0.00    +0.000 A 
ATOM      3  C   UNL     1       0.916  10.969  19.193  0.00  0.00    +0.000 A 
ATOM      4  C   UNL     1       1.697   9.916  18.486  0.00  0.00    +0.000 A 
ATOM      5  O   UNL     1       2.282  10.092  17.421  0.00  0.00    +0.000 OA
ATOM      6  N   UNL     1       1.749   8.682  19.166  0.00  0.00    +0.000 N 
ATOM      7  N   UNL     1       2.487   7.624  18.730  0.00  0.00    +0.000 NA
ATOM      8  C   UNL     1       2.347   6.681  19.679  0.00  0.00    +0.000 A 
ATOM      9  C   UNL     1       1.519   7.155  20.730  0.00  0.00    +0.000 A 
ATOM     10  C   UNL     1       1.107   8.408  20.361  0.00  0.00    +0.000 A 
ENDROOT
BRANCH   8  11
ATOM     11  C   UNL     1       3.050   5.391  19.592  0.00  0.00    +0.000 A 
ATOM     12  C   UNL     1       4.412   5.395  19.230  0.00  0.00    +0.000 A 
ATOM     13  C   UNL     1       5.157   4.213  19.165  0.00  0.00    +0.000 A 
ATOM     14  C   UNL     1       4.558   2.996  19.464  0.00  0.00    +0.000 A 
ATOM     15  C   UNL     1       3.208   2.962  19.811  0.00  0.00    +0.000 A 
ATOM     16  C   UNL     1       2.453   4.144  19.867  0.00  0.00    +0.000 A 
ATOM     17 CL   UNL     1       0.774   3.937  20.245  0.00  0.00    +0.000 Cl
ENDBRANCH   8  11
BRANCH   3  18
ATOM     18  C   UNL     1       0.833  12.394  18.769  0.00  0.00    +0.000 C 
ATOM     19  O   UNL     1      -0.249  12.933  18.549  0.00  0.00    +0.000 OA
ATOM     20  N   UNL     1       2.027  13.064  18.682  0.00  0.00    +0.000 N 
ATOM     21  H   UNL     1       2.872  12.570  18.964  0.00  0.00    +0.000 HD
BRANCH  20  22
ATOM     22  C   UNL     1       2.091  14.518  18.552  0.00  0.00    +0.000 C 
ATOM     23  C   UNL     1       2.250  15.187  19.923  0.00  0.00    +0.000 C 
ATOM     24  C   UNL     1       3.591  14.836  20.563  0.00  0.00    +0.000 C 
ATOM     25  C   UNL     1       4.759  15.218  19.657  0.00  0.00    +0.000 C 
ATOM     26  C   UNL     1       4.616  14.676  18.236  0.00  0.00    +0.000 C 
ATOM     27  C   UNL     1       3.238  14.940  17.628  0.00  0.00    +0.000 C 
ENDBRANCH  20  22
ENDBRANCH   3  18
BRANCH   1  28
ATOM     28  C   UNL     1      -0.460   9.062  22.137  0.00  0.00    +0.000 C 
BRANCH  28  29
ATOM     29  C   UNL     1      -0.330  10.200  23.156  0.00  0.00    +0.000 C 
BRANCH  29  30
ATOM     30  C   UNL     1      -1.588  11.067  23.163  0.00  0.00    +0.000 C 
BRANCH  30  32
ATOM     31  C   UNL     1      -2.058  13.170  21.874  0.00  0.00    +0.000 C 
ATOM     32  C   UNL     1      -1.250  12.547  22.996  0.00  0.00    +0.000 C 
ENDBRANCH  30  32
ENDBRANCH  29  30
ENDBRANCH  28  29
ENDBRANCH   1  28
TORSDOF 7
ENDMDL
MODEL 9
REMARK VINA RESULT:      -7.2      3.463      9.670
REMARK  Name = 
REMARK  8 active torsions:
REMARK  status: ('A' for Active; 'I' for Inactive)
REMARK    1  A    between atoms: C_1  and  C_2
REMARK    2  A    between atoms: C_2  and  C_3
REMARK    3  A    between atoms: C_3  and  C_4
REMARK    4  A    between atoms: C_4  and  C_5
REMARK    5  A    between atoms: C_5  and  N_6
REMARK    6  A    between atoms: C_8  and  C_9
REMARK    7  A    between atoms: N_11  and  C_12
REMARK    8  A    between atoms: C_22  and  C_23
REMARK                            x       y       z     vdW  Elec       q    Type
REMARK                         _______ _______ _______ _____ _____    ______ ____
ROOT
ATOM      1  N   UNL     1      -0.999  10.936  18.405  0.00  0.00    +0.000 N 
ATOM      2  C   UNL     1      -0.003  10.014  18.102  0.00  0.00    +0.000 A 
ATOM      3  C   UNL     1       0.791   9.401  18.999  0.00  0.00    +0.000 A 
ATOM      4  C   UNL     1       0.584   9.715  20.440  0.00  0.00    +0.000 A 
ATOM      5  O   UNL     1       1.210   9.189  21.355  0.00  0.00    +0.000 OA
ATOM      6  N   UNL     1      -0.381  10.716  20.680  0.00  0.00    +0.000 N 
ATOM      7  N   UNL     1      -0.648  11.208  21.920  0.00  0.00    +0.000 NA
ATOM      8  C   UNL     1      -1.549  12.188  21.726  0.00  0.00    +0.000 A 
ATOM      9  C   UNL     1      -1.844  12.321  20.343  0.00  0.00    +0.000 A 
ATOM     10  C   UNL     1      -1.132  11.343  19.701  0.00  0.00    +0.000 A 
ENDROOT
BRANCH   8  11
ATOM     11  C   UNL     1      -2.050  13.007  22.841  0.00  0.00    +0.000 A 
ATOM     12  C   UNL     1      -3.251  12.619  23.468  0.00  0.00    +0.000 A 
ATOM     13  C   UNL     1      -3.769  13.324  24.559  0.00  0.00    +0.000 A 
ATOM     14  C   UNL     1      -3.096  14.434  25.053  0.00  0.00    +0.000 A 
ATOM     15  C   UNL     1      -1.914  14.848  24.442  0.00  0.00    +0.000 A 
ATOM     16  C   UNL     1      -1.396  14.151  23.339  0.00  0.00    +0.000 A 
ATOM     17 CL   UNL     1       0.043  14.824  22.644  0.00  0.00    +0.000 Cl
ENDBRANCH   8  11
BRANCH   3  18
ATOM     18  C   UNL     1       1.851   8.500  18.469  0.00  0.00    +0.000 C 
ATOM     19  O   UNL     1       2.624   8.872  17.590  0.00  0.00    +0.000 OA
ATOM     20  N   UNL     1       1.931   7.261  19.052  0.00  0.00    +0.000 N 
ATOM     21  H   UNL     1       1.309   7.061  19.835  0.00  0.00    +0.000 HD
BRANCH  20  22
ATOM     22  C   UNL     1       3.075   6.378  18.841  0.00  0.00    +0.000 C 
ATOM     23  C   UNL     1       3.335   5.507  20.077  0.00  0.00    +0.000 C 
ATOM     24  C   UNL     1       2.185   4.533  20.325  0.00  0.00    +0.000 C 
ATOM     25  C   UNL     1       1.932   3.648  19.107  0.00  0.00    +0.000 C 
ATOM     26  C   UNL     1       1.771   4.443  17.813  0.00  0.00    +0.000 C 
ATOM     27  C   UNL     1       2.868   5.489  17.611  0.00  0.00    +0.000 C 
ENDBRANCH  20  22
ENDBRANCH   3  18
BRANCH   1  28
ATOM     28  C   UNL     1      -1.850  11.530  17.359  0.00  0.00    +0.000 C 
BRANCH  28  29
ATOM     29  C   UNL     1      -2.542  10.441  16.531  0.00  0.00    +0.000 C 
BRANCH  29  30
ATOM     30  C   UNL     1      -3.998  10.816  16.250  0.00  0.00    +0.000 C 
BRANCH  30  32
ATOM     31  C   UNL     1      -5.704  10.988  18.084  0.00  0.00    +0.000 C 
ATOM     32  C   UNL     1      -4.574  11.694  17.360  0.00  0.00    +0.000 C 
ENDBRANCH  30  32
ENDBRANCH  29  30
ENDBRANCH  28  29
ENDBRANCH   1  28
TORSDOF 7
ENDMDL
