MODEL 1
REMARK VINA RESULT:      -8.4      0.000      0.000
REMARK  Name = 
REMARK  3 active torsions:
REMARK  status: ('A' for Active; 'I' for Inactive)
REMARK    1  A    between atoms: C_1  and  C_2
REMARK    2  A    between atoms: C_11  and  O_12
REMARK    3  A    between atoms: C_13  and  C_14
REMARK                            x       y       z     vdW  Elec       q    Type
REMARK                         _______ _______ _______ _____ _____    ______ ____
ROOT
ATOM      1  C   UNL     1       3.118   1.672  18.930  0.00  0.00    +0.000 C 
ATOM      2  C   UNL     1       3.622   2.721  19.938  0.00  0.00    +0.000 C 
ATOM      3  C   UNL     1       2.789   2.651  21.222  0.00  0.00    +0.000 C 
ATOM      4  C   UNL     1       1.810   3.772  21.484  0.00  0.00    +0.000 C 
ATOM      5  C   UNL     1       2.048   5.033  20.719  0.00  0.00    +0.000 A 
ATOM      6  C   UNL     1       1.265   6.145  21.084  0.00  0.00    +0.000 A 
ATOM      7  C   UNL     1       1.418   7.344  20.421  0.00  0.00    +0.000 A 
ATOM      8  F   UNL     1       0.668   8.396  20.772  0.00  0.00    +0.000 F 
ATOM      9  C   UNL     1       2.335   7.471  19.394  0.00  0.00    +0.000 A 
ATOM     10  C   UNL     1       3.141   6.381  19.008  0.00  0.00    +0.000 A 
ATOM     11  C   UNL     1       4.124   6.483  17.912  0.00  0.00    +0.000 A 
ATOM     12  C   UNL     1       4.894   5.434  17.562  0.00  0.00    +0.000 A 
ATOM     13  C   UNL     1       4.808   4.170  18.352  0.00  0.00    +0.000 A 
ATOM     14  O   UNL     1       5.631   3.275  18.135  0.00  0.00    +0.000 OA
ATOM     15  N   UNL     1       3.798   4.044  19.312  0.00  0.00    +0.000 N 
ATOM     16  C   UNL     1       2.980   5.144  19.677  0.00  0.00    +0.000 A 
ENDROOT
BRANCH  12  17
ATOM     17  C   UNL     1       5.813   5.561  16.362  0.00  0.00    +0.000 C 
ATOM     18  O   UNL     1       6.641   6.465  16.302  0.00  0.00    +0.000 OA
ATOM     19  N   UNL     1       5.598   4.632  15.361  0.00  0.00    +0.000 N 
ATOM     20  C   UNL     1       6.327   4.585  14.160  0.00  0.00    +0.000 A 
ATOM     21  C   UNL     1       5.976   3.641  13.187  0.00  0.00    +0.000 A 
ATOM     22  N   UNL     1       6.601   3.534  11.988  0.00  0.00    +0.000 NA
ATOM     23  C   UNL     1       7.612   4.414  11.788  0.00  0.00    +0.000 A 
ATOM     24  C   UNL     1       7.975   5.341  12.745  0.00  0.00    +0.000 A 
ATOM     25  N   UNL     1       7.349   5.430  13.930  0.00  0.00    +0.000 NA
ATOM     26  H   UNL     1       4.816   3.995  15.465  0.00  0.00    +0.000 HD
ENDBRANCH  12  17
BRANCH  11  27
ATOM     27  O   UNL     1       4.265   7.703  17.274  0.00  0.00    +0.000 OA
ATOM     28  H   UNL     1       4.078   7.673  16.329  0.00  0.00    +0.000 HD
ENDBRANCH  11  27
TORSDOF 2
ENDMDL
MODEL 2
REMARK VINA RESULT:      -8.4      3.316      5.750
REMARK  Name = 
REMARK  3 active torsions:
REMARK  status: ('A' for Active; 'I' for Inactive)
REMARK    1  A    between atoms: C_1  and  C_2
REMARK    2  A    between atoms: C_11  and  O_12
REMARK    3  A    between atoms: C_13  and  C_14
REMARK                            x       y       z     vdW  Elec       q    Type
REMARK                         _______ _______ _______ _____ _____    ______ ____
ROOT
ATOM      1  C   UNL     1       2.580  12.108  18.031  0.00  0.00    +0.000 C 
ATOM      2  C   UNL     1       1.204  11.493  18.347  0.00  0.00    +0.000 C 
ATOM      3  C   UNL     1       0.310  12.538  19.024  0.00  0.00    +0.000 C 
ATOM      4  C   UNL     1       0.035  12.373  20.500  0.00  0.00    +0.000 C 
ATOM      5  C   UNL     1       0.284  11.010  21.059  0.00  0.00    +0.000 A 
ATOM      6  C   UNL     1      -0.141  10.787  22.382  0.00  0.00    +0.000 A 
ATOM      7  C   UNL     1       0.060   9.558  22.975  0.00  0.00    +0.000 A 
ATOM      8  F   UNL     1      -0.345   9.356  24.235  0.00  0.00    +0.000 F 
ATOM      9  C   UNL     1       0.678   8.534  22.281  0.00  0.00    +0.000 A 
ATOM     10  C   UNL     1       1.108   8.719  20.953  0.00  0.00    +0.000 A 
ATOM     11  C   UNL     1       1.777   7.647  20.189  0.00  0.00    +0.000 A 
ATOM     12  C   UNL     1       2.173   7.838  18.915  0.00  0.00    +0.000 A 
ATOM     13  C   UNL     1       1.857   9.130  18.238  0.00  0.00    +0.000 A 
ATOM     14  O   UNL     1       2.072   9.236  17.026  0.00  0.00    +0.000 OA
ATOM     15  N   UNL     1       1.327  10.177  19.001  0.00  0.00    +0.000 N 
ATOM     16  C   UNL     1       0.916   9.982  20.344  0.00  0.00    +0.000 A 
ENDROOT
BRANCH  12  17
ATOM     17  C   UNL     1       2.948   6.740  18.212  0.00  0.00    +0.000 C 
ATOM     18  O   UNL     1       2.469   5.616  18.091  0.00  0.00    +0.000 OA
ATOM     19  N   UNL     1       4.214   7.098  17.789  0.00  0.00    +0.000 N 
ATOM     20  C   UNL     1       5.101   6.226  17.133  0.00  0.00    +0.000 A 
ATOM     21  C   UNL     1       6.387   6.679  16.810  0.00  0.00    +0.000 A 
ATOM     22  N   UNL     1       7.321   5.907  16.202  0.00  0.00    +0.000 NA
ATOM     23  C   UNL     1       6.923   4.645  15.914  0.00  0.00    +0.000 A 
ATOM     24  C   UNL     1       5.654   4.191  16.215  0.00  0.00    +0.000 A 
ATOM     25  N   UNL     1       4.739   4.970  16.814  0.00  0.00    +0.000 NA
ATOM     26  H   UNL     1       4.554   8.021  18.036  0.00  0.00    +0.000 HD
ENDBRANCH  12  17
BRANCH  11  27
ATOM     27  O   UNL     1       1.952   6.420  20.805  0.00  0.00    +0.000 OA
ATOM     28  H   UNL     1       1.130   5.938  20.952  0.00  0.00    +0.000 HD
ENDBRANCH  11  27
TORSDOF 2
ENDMDL
MODEL 3
REMARK VINA RESULT:      -8.0      3.921      7.221
REMARK  Name = 
REMARK  3 active torsions:
REMARK  status: ('A' for Active; 'I' for Inactive)
REMARK    1  A    between atoms: C_1  and  C_2
REMARK    2  A    between atoms: C_11  and  O_12
REMARK    3  A    between atoms: C_13  and  C_14
REMARK                            x       y       z     vdW  Elec       q    Type
REMARK                         _______ _______ _______ _____ _____    ______ ____
ROOT
ATOM      1  C   UNL     1       2.666   2.858  21.229  0.00  0.00    +0.000 C 
ATOM      2  C   UNL     1       2.177   3.017  19.777  0.00  0.00    +0.000 C 
ATOM      3  C   UNL     1       2.617   1.808  18.944  0.00  0.00    +0.000 C 
ATOM      4  C   UNL     1       3.728   2.016  17.942  0.00  0.00    +0.000 C 
ATOM      5  C   UNL     1       3.989   3.432  17.546  0.00  0.00    +0.000 A 
ATOM      6  C   UNL     1       4.887   3.631  16.480  0.00  0.00    +0.000 A 
ATOM      7  C   UNL     1       5.188   4.909  16.059  0.00  0.00    +0.000 A 
ATOM      8  F   UNL     1       6.044   5.089  15.046  0.00  0.00    +0.000 F 
ATOM      9  C   UNL     1       4.615   6.007  16.675  0.00  0.00    +0.000 A 
ATOM     10  C   UNL     1       3.706   5.846  17.739  0.00  0.00    +0.000 A 
ATOM     11  C   UNL     1       3.084   6.998  18.420  0.00  0.00    +0.000 A 
ATOM     12  C   UNL     1       2.209   6.825  19.430  0.00  0.00    +0.000 A 
ATOM     13  C   UNL     1       1.799   5.441  19.811  0.00  0.00    +0.000 A 
ATOM     14  O   UNL     1       0.875   5.295  20.619  0.00  0.00    +0.000 OA
ATOM     15  N   UNL     1       2.475   4.357  19.240  0.00  0.00    +0.000 N 
ATOM     16  C   UNL     1       3.403   4.536  18.183  0.00  0.00    +0.000 A 
ENDROOT
BRANCH  12  17
ATOM     17  C   UNL     1       1.680   8.042  20.163  0.00  0.00    +0.000 C 
ATOM     18  O   UNL     1       1.780   8.130  21.383  0.00  0.00    +0.000 OA
ATOM     19  N   UNL     1       1.051   8.979  19.363  0.00  0.00    +0.000 N 
ATOM     20  C   UNL     1       0.477  10.168  19.844  0.00  0.00    +0.000 A 
ATOM     21  C   UNL     1      -0.195  11.011  18.950  0.00  0.00    +0.000 A 
ATOM     22  N   UNL     1      -0.802  12.165  19.321  0.00  0.00    +0.000 NA
ATOM     23  C   UNL     1      -0.712  12.462  20.640  0.00  0.00    +0.000 A 
ATOM     24  C   UNL     1      -0.041  11.646  21.529  0.00  0.00    +0.000 A 
ATOM     25  N   UNL     1       0.559  10.508  21.144  0.00  0.00    +0.000 NA
ATOM     26  H   UNL     1       0.927   8.757  18.381  0.00  0.00    +0.000 HD
ENDBRANCH  12  17
BRANCH  11  27
ATOM     27  O   UNL     1       3.394   8.268  17.967  0.00  0.00    +0.000 OA
ATOM     28  H   UNL     1       3.449   8.336  17.007  0.00  0.00    +0.000 HD
ENDBRANCH  11  27
TORSDOF 2
ENDMDL
MODEL 4
REMARK VINA RESULT:      -7.5      5.272      7.951
REMARK  Name = 
REMARK  3 active torsions:
REMARK  status: ('A' for Active; 'I' for Inactive)
REMARK    1  A    between atoms: C_1  and  C_2
REMARK    2  A    between atoms: C_11  and  O_12
REMARK    3  A    between atoms: C_13  and  C_14
REMARK                            x       y       z     vdW  Elec       q    Type
REMARK                         _______ _______ _______ _____ _____    ______ ____
ROOT
ATOM      1  C   UNL     1      -0.770  10.398  23.366  0.00  0.00    +0.000 C 
ATOM      2  C   UNL     1      -0.834  11.669  22.498  0.00  0.00    +0.000 C 
ATOM      3  C   UNL     1      -1.911  12.615  23.039  0.00  0.00    +0.000 C 
ATOM      4  C   UNL     1      -3.188  12.751  22.242  0.00  0.00    +0.000 C 
ATOM      5  C   UNL     1      -3.114  12.310  20.817  0.00  0.00    +0.000 A 
ATOM      6  C   UNL     1      -4.231  12.600  20.011  0.00  0.00    +0.000 A 
ATOM      7  C   UNL     1      -4.245  12.219  18.686  0.00  0.00    +0.000 A 
ATOM      8  F   UNL     1      -5.313  12.496  17.927  0.00  0.00    +0.000 F 
ATOM      9  C   UNL     1      -3.169  11.549  18.134  0.00  0.00    +0.000 A 
ATOM     10  C   UNL     1      -2.031  11.249  18.908  0.00  0.00    +0.000 A 
ATOM     11  C   UNL     1      -0.870  10.529  18.349  0.00  0.00    +0.000 A 
ATOM     12  C   UNL     1       0.215  10.260  19.102  0.00  0.00    +0.000 A 
ATOM     13  C   UNL     1       0.276  10.770  20.503  0.00  0.00    +0.000 A 
ATOM     14  O   UNL     1       1.337  10.666  21.129  0.00  0.00    +0.000 OA
ATOM     15  N   UNL     1      -0.870  11.350  21.059  0.00  0.00    +0.000 N 
ATOM     16  C   UNL     1      -2.016  11.627  20.272  0.00  0.00    +0.000 A 
ENDROOT
BRANCH  12  17
ATOM     17  C   UNL     1       1.335   9.428  18.508  0.00  0.00    +0.000 C 
ATOM     18  O   UNL     1       1.872   9.761  17.455  0.00  0.00    +0.000 OA
ATOM     19  N   UNL     1       1.643   8.276  19.209  0.00  0.00    +0.000 N 
ATOM     20  C   UNL     1       2.635   7.359  18.822  0.00  0.00    +0.000 A 
ATOM     21  C   UNL     1       2.813   6.191  19.574  0.00  0.00    +0.000 A 
ATOM     22  N   UNL     1       3.724   5.235  19.266  0.00  0.00    +0.000 NA
ATOM     23  C   UNL     1       4.472   5.488  18.165  0.00  0.00    +0.000 A 
ATOM     24  C   UNL     1       4.315   6.642  17.424  0.00  0.00    +0.000 A 
ATOM     25  N   UNL     1       3.410   7.582  17.745  0.00  0.00    +0.000 NA
ATOM     26  H   UNL     1       1.065   8.039  20.008  0.00  0.00    +0.000 HD
ENDBRANCH  12  17
BRANCH  11  27
ATOM     27  O   UNL     1      -0.907  10.171  17.013  0.00  0.00    +0.000 OA
ATOM     28  H   UNL     1      -1.069  10.911  16.416  0.00  0.00    +0.000 HD
ENDBRANCH  11  27
TORSDOF 2
ENDMDL
MODEL 5
REMARK VINA RESULT:      -7.4      3.739      7.528
REMARK  Name = 
REMARK  3 active torsions:
REMARK  status: ('A' for Active; 'I' for Inactive)
REMARK    1  A    between atoms: C_1  and  C_2
REMARK    2  A    between atoms: C_11  and  O_12
REMARK    3  A    between atoms: C_13  and  C_14
REMARK                            x       y       z     vdW  Elec       q    Type
REMARK                         _______ _______ _______ _____ _____    ______ ____
ROOT
ATOM      1  C   UNL     1       2.581   3.490  21.482  0.00  0.00    +0.000 C 
ATOM      2  C   UNL     1       2.200   3.386  19.993  0.00  0.00    +0.000 C 
ATOM      3  C   UNL     1       2.731   2.071  19.411  0.00  0.00    +0.000 C 
ATOM      4  C   UNL     1       3.910   2.148  18.470  0.00  0.00    +0.000 C 
ATOM      5  C   UNL     1       4.167   3.486  17.859  0.00  0.00    +0.000 A 
ATOM      6  C   UNL     1       5.139   3.536  16.842  0.00  0.00    +0.000 A 
ATOM      7  C   UNL     1       5.441   4.736  16.233  0.00  0.00    +0.000 A 
ATOM      8  F   UNL     1       6.368   4.775  15.268  0.00  0.00    +0.000 F 
ATOM      9  C   UNL     1       4.798   5.900  16.611  0.00  0.00    +0.000 A 
ATOM     10  C   UNL     1       3.814   5.887  17.619  0.00  0.00    +0.000 A 
ATOM     11  C   UNL     1       3.115   7.113  18.050  0.00  0.00    +0.000 A 
ATOM     12  C   UNL     1       2.169   7.080  19.009  0.00  0.00    +0.000 A 
ATOM     13  C   UNL     1       1.764   5.766  19.589  0.00  0.00    +0.000 A 
ATOM     14  O   UNL     1       0.785   5.724  20.342  0.00  0.00    +0.000 OA
ATOM     15  N   UNL     1       2.507   4.627  19.260  0.00  0.00    +0.000 N 
ATOM     16  C   UNL     1       3.509   4.660  18.257  0.00  0.00    +0.000 A 
ENDROOT
BRANCH  12  17
ATOM     17  C   UNL     1       1.558   8.384  19.486  0.00  0.00    +0.000 C 
ATOM     18  O   UNL     1       1.557   9.376  18.763  0.00  0.00    +0.000 OA
ATOM     19  N   UNL     1       1.070   8.361  20.780  0.00  0.00    +0.000 N 
ATOM     20  C   UNL     1       0.481   9.466  21.419  0.00  0.00    +0.000 A 
ATOM     21  C   UNL     1       0.084   9.347  22.756  0.00  0.00    +0.000 A 
ATOM     22  N   UNL     1      -0.469  10.361  23.466  0.00  0.00    +0.000 NA
ATOM     23  C   UNL     1      -0.623  11.522  22.783  0.00  0.00    +0.000 A 
ATOM     24  C   UNL     1      -0.248  11.647  21.460  0.00  0.00    +0.000 A 
ATOM     25  N   UNL     1       0.295  10.631  20.770  0.00  0.00    +0.000 NA
ATOM     26  H   UNL     1       1.218   7.521  21.328  0.00  0.00    +0.000 HD
ENDBRANCH  12  17
BRANCH  11  27
ATOM     27  O   UNL     1       3.429   8.300  17.411  0.00  0.00    +0.000 OA
ATOM     28  H   UNL     1       4.320   8.619  17.598  0.00  0.00    +0.000 HD
ENDBRANCH  11  27
TORSDOF 2
ENDMDL
MODEL 6
REMARK VINA RESULT:      -7.3      3.591      6.505
REMARK  Name = 
REMARK  3 active torsions:
REMARK  status: ('A' for Active; 'I' for Inactive)
REMARK    1  A    between atoms: C_1  and  C_2
REMARK    2  A    between atoms: C_11  and  O_12
REMARK    3  A    between atoms: C_13  and  C_14
REMARK                            x       y       z     vdW  Elec       q    Type
REMARK                         _______ _______ _______ _____ _____    ______ ____
ROOT
ATOM      1  C   UNL     1       2.700  12.306  17.974  0.00  0.00    +0.000 C 
ATOM      2  C   UNL     1       1.263  11.782  18.161  0.00  0.00    +0.000 C 
ATOM      3  C   UNL     1       0.347  12.925  18.610  0.00  0.00    +0.000 C 
ATOM      4  C   UNL     1      -0.124  12.921  20.046  0.00  0.00    +0.000 C 
ATOM      5  C   UNL     1      -0.023  11.612  20.759  0.00  0.00    +0.000 A 
ATOM      6  C   UNL     1      -0.625  11.541  22.029  0.00  0.00    +0.000 A 
ATOM      7  C   UNL     1      -0.569  10.371  22.756  0.00  0.00    +0.000 A 
ATOM      8  F   UNL     1      -1.143  10.312  23.964  0.00  0.00    +0.000 F 
ATOM      9  C   UNL     1       0.078   9.258  22.251  0.00  0.00    +0.000 A 
ATOM     10  C   UNL     1       0.685   9.290  20.980  0.00  0.00    +0.000 A 
ATOM     11  C   UNL     1       1.389   8.121  20.417  0.00  0.00    +0.000 A 
ATOM     12  C   UNL     1       1.955   8.167  19.196  0.00  0.00    +0.000 A 
ATOM     13  C   UNL     1       1.798   9.396  18.364  0.00  0.00    +0.000 A 
ATOM     14  O   UNL     1       2.173   9.371  17.186  0.00  0.00    +0.000 OA
ATOM     15  N   UNL     1       1.231  10.535  18.946  0.00  0.00    +0.000 N 
ATOM     16  C   UNL     1       0.641  10.493  20.235  0.00  0.00    +0.000 A 
ENDROOT
BRANCH  12  17
ATOM     17  C   UNL     1       2.755   6.973  18.709  0.00  0.00    +0.000 C 
ATOM     18  O   UNL     1       3.897   7.117  18.283  0.00  0.00    +0.000 OA
ATOM     19  N   UNL     1       2.080   5.766  18.741  0.00  0.00    +0.000 N 
ATOM     20  C   UNL     1       2.631   4.544  18.319  0.00  0.00    +0.000 A 
ATOM     21  C   UNL     1       1.830   3.395  18.332  0.00  0.00    +0.000 A 
ATOM     22  N   UNL     1       2.262   2.178  17.921  0.00  0.00    +0.000 NA
ATOM     23  C   UNL     1       3.547   2.139  17.492  0.00  0.00    +0.000 A 
ATOM     24  C   UNL     1       4.351   3.262  17.487  0.00  0.00    +0.000 A 
ATOM     25  N   UNL     1       3.908   4.461  17.902  0.00  0.00    +0.000 NA
ATOM     26  H   UNL     1       1.102   5.777  19.010  0.00  0.00    +0.000 HD
ENDBRANCH  12  17
BRANCH  11  27
ATOM     27  O   UNL     1       1.418   6.957  21.164  0.00  0.00    +0.000 OA
ATOM     28  H   UNL     1       1.074   6.186  20.697  0.00  0.00    +0.000 HD
ENDBRANCH  11  27
TORSDOF 2
ENDMDL
MODEL 7
REMARK VINA RESULT:      -6.8     10.044     12.822
REMARK  Name = 
REMARK  3 active torsions:
REMARK  status: ('A' for Active; 'I' for Inactive)
REMARK    1  A    between atoms: C_1  and  C_2
REMARK    2  A    between atoms: C_11  and  O_12
REMARK    3  A    between atoms: C_13  and  C_14
REMARK                            x       y       z     vdW  Elec       q    Type
REMARK                         _______ _______ _______ _____ _____    ______ ____
ROOT
ATOM      1  C   UNL     1       5.669  15.209  19.336  0.00  0.00    +0.000 C 
ATOM      2  C   UNL     1       7.078  15.458  19.906  0.00  0.00    +0.000 C 
ATOM      3  C   UNL     1       8.020  15.915  18.787  0.00  0.00    +0.000 C 
ATOM      4  C   UNL     1       9.061  14.933  18.303  0.00  0.00    +0.000 C 
ATOM      5  C   UNL     1       9.364  13.799  19.227  0.00  0.00    +0.000 A 
ATOM      6  C   UNL     1      10.457  12.982  18.882  0.00  0.00    +0.000 A 
ATOM      7  C   UNL     1      10.797  11.910  19.679  0.00  0.00    +0.000 A 
ATOM      8  F   UNL     1      11.837  11.137  19.342  0.00  0.00    +0.000 F 
ATOM      9  C   UNL     1      10.073  11.623  20.822  0.00  0.00    +0.000 A 
ATOM     10  C   UNL     1       8.978  12.424  21.203  0.00  0.00    +0.000 A 
ATOM     11  C   UNL     1       8.182  12.139  22.412  0.00  0.00    +0.000 A 
ATOM     12  C   UNL     1       7.144  12.922  22.768  0.00  0.00    +0.000 A 
ATOM     13  C   UNL     1       6.845  14.145  21.966  0.00  0.00    +0.000 A 
ATOM     14  O   UNL     1       6.004  14.945  22.392  0.00  0.00    +0.000 OA
ATOM     15  N   UNL     1       7.529  14.345  20.762  0.00  0.00    +0.000 N 
ATOM     16  C   UNL     1       8.617  13.519  20.381  0.00  0.00    +0.000 A 
ENDROOT
BRANCH  12  17
ATOM     17  C   UNL     1       6.297  12.525  23.961  0.00  0.00    +0.000 C 
ATOM     18  O   UNL     1       5.620  11.501  23.934  0.00  0.00    +0.000 OA
ATOM     19  N   UNL     1       6.318  13.418  25.016  0.00  0.00    +0.000 N 
ATOM     20  C   UNL     1       5.591  13.249  26.207  0.00  0.00    +0.000 A 
ATOM     21  C   UNL     1       5.636  14.254  27.181  0.00  0.00    +0.000 A 
ATOM     22  N   UNL     1       4.950  14.194  28.349  0.00  0.00    +0.000 NA
ATOM     23  C   UNL     1       4.207  13.075  28.522  0.00  0.00    +0.000 A 
ATOM     24  C   UNL     1       4.165  12.071  27.575  0.00  0.00    +0.000 A 
ATOM     25  N   UNL     1       4.855  12.143  26.424  0.00  0.00    +0.000 NA
ATOM     26  H   UNL     1       6.827  14.287  24.892  0.00  0.00    +0.000 HD
ENDBRANCH  12  17
BRANCH  11  27
ATOM     27  O   UNL     1       8.556  11.065  23.200  0.00  0.00    +0.000 OA
ATOM     28  H   UNL     1       8.363  11.183  24.137  0.00  0.00    +0.000 HD
ENDBRANCH  11  27
TORSDOF 2
ENDMDL
MODEL 8
REMARK VINA RESULT:      -6.7      4.325      7.272
REMARK  Name = 
REMARK  3 active torsions:
REMARK  status: ('A' for Active; 'I' for Inactive)
REMARK    1  A    between atoms: C_1  and  C_2
REMARK    2  A    between atoms: C_11  and  O_12
REMARK    3  A    between atoms: C_13  and  C_14
REMARK                            x       y       z     vdW  Elec       q    Type
REMARK                         _______ _______ _______ _____ _____    ______ ____
ROOT
ATOM      1  C   UNL     1      -0.737   9.543  23.411  0.00  0.00    +0.000 C 
ATOM      2  C   UNL     1      -0.113  10.631  22.517  0.00  0.00    +0.000 C 
ATOM      3  C   UNL     1      -0.927  11.925  22.624  0.00  0.00    +0.000 C 
ATOM      4  C   UNL     1      -1.783  12.313  21.442  0.00  0.00    +0.000 C 
ATOM      5  C   UNL     1      -1.431  11.663  20.144  0.00  0.00    +0.000 A 
ATOM      6  C   UNL     1      -2.091  12.148  18.999  0.00  0.00    +0.000 A 
ATOM      7  C   UNL     1      -1.829  11.595  17.763  0.00  0.00    +0.000 A 
ATOM      8  F   UNL     1      -2.462  12.062  16.680  0.00  0.00    +0.000 F 
ATOM      9  C   UNL     1      -0.920  10.561  17.632  0.00  0.00    +0.000 A 
ATOM     10  C   UNL     1      -0.235  10.055  18.755  0.00  0.00    +0.000 A 
ATOM     11  C   UNL     1       0.735   8.948  18.649  0.00  0.00    +0.000 A 
ATOM     12  C   UNL     1       1.389   8.484  19.731  0.00  0.00    +0.000 A 
ATOM     13  C   UNL     1       1.188   9.155  21.049  0.00  0.00    +0.000 A 
ATOM     14  O   UNL     1       1.912   8.835  21.998  0.00  0.00    +0.000 OA
ATOM     15  N   UNL     1       0.186  10.126  21.164  0.00  0.00    +0.000 N 
ATOM     16  C   UNL     1      -0.510  10.611  20.028  0.00  0.00    +0.000 A 
ENDROOT
BRANCH  12  17
ATOM     17  C   UNL     1       2.296   7.277  19.583  0.00  0.00    +0.000 C 
ATOM     18  O   UNL     1       3.213   7.281  18.767  0.00  0.00    +0.000 OA
ATOM     19  N   UNL     1       1.968   6.198  20.384  0.00  0.00    +0.000 N 
ATOM     20  C   UNL     1       2.668   4.979  20.388  0.00  0.00    +0.000 A 
ATOM     21  C   UNL     1       2.204   3.931  21.192  0.00  0.00    +0.000 A 
ATOM     22  N   UNL     1       2.794   2.711  21.245  0.00  0.00    +0.000 NA
ATOM     23  C   UNL     1       3.888   2.568  20.459  0.00  0.00    +0.000 A 
ATOM     24  C   UNL     1       4.363   3.599  19.672  0.00  0.00    +0.000 A 
ATOM     25  N   UNL     1       3.769   4.803  19.634  0.00  0.00    +0.000 NA
ATOM     26  H   UNL     1       1.125   6.262  20.944  0.00  0.00    +0.000 HD
ENDBRANCH  12  17
BRANCH  11  27
ATOM     27  O   UNL     1       0.988   8.422  17.394  0.00  0.00    +0.000 OA
ATOM     28  H   UNL     1       0.586   8.922  16.674  0.00  0.00    +0.000 HD
ENDBRANCH  11  27
TORSDOF 2
ENDMDL
MODEL 9
REMARK VINA RESULT:      -6.6      9.217     10.967
REMARK  Name = 
REMARK  3 active torsions:
REMARK  status: ('A' for Active; 'I' for Inactive)
REMARK    1  A    between atoms: C_1  and  C_2
REMARK    2  A    between atoms: C_11  and  O_12
REMARK    3  A    between atoms: C_13  and  C_14
REMARK                            x       y       z     vdW  Elec       q    Type
REMARK                         _______ _______ _______ _____ _____    ______ ____
ROOT
ATOM      1  C   UNL     1      -4.204  12.742  22.029  0.00  0.00    +0.000 C 
ATOM      2  C   UNL     1      -4.063  13.249  20.582  0.00  0.00    +0.000 C 
ATOM      3  C   UNL     1      -5.391  13.073  19.837  0.00  0.00    +0.000 C 
ATOM      4  C   UNL     1      -5.470  11.982  18.795  0.00  0.00    +0.000 C 
ATOM      5  C   UNL     1      -4.161  11.479  18.281  0.00  0.00    +0.000 A 
ATOM      6  C   UNL     1      -4.213  10.601  17.182  0.00  0.00    +0.000 A 
ATOM      7  C   UNL     1      -3.049  10.085  16.654  0.00  0.00    +0.000 A 
ATOM      8  F   UNL     1      -3.107   9.249  15.609  0.00  0.00    +0.000 F 
ATOM      9  C   UNL     1      -1.820  10.420  17.194  0.00  0.00    +0.000 A 
ATOM     10  C   UNL     1      -1.729  11.301  18.289  0.00  0.00    +0.000 A 
ATOM     11  C   UNL     1      -0.434  11.672  18.892  0.00  0.00    +0.000 A 
ATOM     12  C   UNL     1      -0.365  12.525  19.933  0.00  0.00    +0.000 A 
ATOM     13  C   UNL     1      -1.615  13.169  20.433  0.00  0.00    +0.000 A 
ATOM     14  O   UNL     1      -1.526  14.073  21.271  0.00  0.00    +0.000 OA
ATOM     15  N   UNL     1      -2.846  12.728  19.933  0.00  0.00    +0.000 N 
ATOM     16  C   UNL     1      -2.923  11.824  18.843  0.00  0.00    +0.000 A 
ENDROOT
BRANCH  12  17
ATOM     17  C   UNL     1       0.981  12.790  20.580  0.00  0.00    +0.000 C 
ATOM     18  O   UNL     1       1.540  11.919  21.240  0.00  0.00    +0.000 OA
ATOM     19  N   UNL     1       1.470  14.072  20.406  0.00  0.00    +0.000 N 
ATOM     20  C   UNL     1       2.688  14.529  20.937  0.00  0.00    +0.000 A 
ATOM     21  C   UNL     1       3.051  15.869  20.755  0.00  0.00    +0.000 A 
ATOM     22  N   UNL     1       4.191  16.410  21.250  0.00  0.00    +0.000 NA
ATOM     23  C   UNL     1       4.979  15.553  21.943  0.00  0.00    +0.000 A 
ATOM     24  C   UNL     1       4.639  14.226  22.118  0.00  0.00    +0.000 A 
ATOM     25  N   UNL     1       3.507  13.705  21.617  0.00  0.00    +0.000 NA
ATOM     26  H   UNL     1       0.877  14.746  19.935  0.00  0.00    +0.000 HD
ENDBRANCH  12  17
BRANCH  11  27
ATOM     27  O   UNL     1       0.718  11.149  18.332  0.00  0.00    +0.000 OA
ATOM     28  H   UNL     1       1.131  11.727  17.679  0.00  0.00    +0.000 HD
ENDBRANCH  11  27
TORSDOF 2
ENDMDL
