MODEL 1
REMARK VINA RESULT:      -8.0      0.000      0.000
REMARK  Name = 
REMARK  3 active torsions:
REMARK  status: ('A' for Active; 'I' for Inactive)
REMARK    1  A    between atoms: C_4  and  C_5
REMARK    2  A    between atoms: N_15  and  C_16
REMARK    3  A    between atoms: C_16  and  C_17
REMARK                            x       y       z     vdW  Elec       q    Type
REMARK                         _______ _______ _______ _____ _____    ______ ____
ROOT
ATOM      1  O   UNL     1       3.239   8.529  17.836  0.00  0.00    +0.000 OA
ATOM      2  C   UNL     1       3.214   7.305  17.683  0.00  0.00    +0.000 C 
ATOM      3  C   UNL     1       1.935   6.514  17.965  0.00  0.00    +0.000 C 
ATOM      4  C   UNL     1       2.007   4.978  17.916  0.00  0.00    +0.000 C 
ATOM      5  C   UNL     1       3.244   4.487  17.266  0.00  0.00    +0.000 A 
ATOM      6  C   UNL     1       3.649   3.225  16.795  0.00  0.00    +0.000 A 
ATOM      7  N   UNL     1       4.878   3.247  16.265  0.00  0.00    +0.000 NA
ATOM      8  N   UNL     1       5.282   4.533  16.435  0.00  0.00    +0.000 N 
ATOM      9  C   UNL     1       4.291   5.318  16.959  0.00  0.00    +0.000 A 
ATOM     10  N   UNL     1       4.314   6.667  17.175  0.00  0.00    +0.000 N 
ATOM     11  H   UNL     1       5.127   7.240  16.983  0.00  0.00    +0.000 HD
ENDROOT
BRANCH   4  12
ATOM     12  C   UNL     1       1.929   4.318  19.281  0.00  0.00    +0.000 A 
ATOM     13  C   UNL     1       2.641   4.877  20.357  0.00  0.00    +0.000 A 
ATOM     14  C   UNL     1       2.638   4.271  21.615  0.00  0.00    +0.000 A 
ATOM     15  C   UNL     1       1.916   3.095  21.828  0.00  0.00    +0.000 A 
ATOM     16  C   UNL     1       1.203   2.530  20.773  0.00  0.00    +0.000 A 
ATOM     17  C   UNL     1       1.219   3.132  19.516  0.00  0.00    +0.000 A 
ATOM     18  F   UNL     1       0.547   2.536  18.520  0.00  0.00    +0.000 F 
ENDBRANCH   4  12
BRANCH   8  19
ATOM     19  C   UNL     1       6.635   4.922  16.074  0.00  0.00    +0.000 C 
BRANCH  19  20
ATOM     20  C   UNL     1       7.214   5.796  17.123  0.00  0.00    +0.000 A 
ATOM     21  C   UNL     1       7.673   5.561  18.404  0.00  0.00    +0.000 A 
ATOM     22  C   UNL     1       8.087   6.812  18.918  0.00  0.00    +0.000 A 
ATOM     23  C   UNL     1       7.866   7.728  17.918  0.00  0.00    +0.000 A 
ATOM     24  O   UNL     1       7.341   7.121  16.821  0.00  0.00    +0.000 OA
ENDBRANCH  19  20
ENDBRANCH   8  19
TORSDOF 3
ENDMDL
MODEL 2
REMARK VINA RESULT:      -7.9      1.324      2.245
REMARK  Name = 
REMARK  3 active torsions:
REMARK  status: ('A' for Active; 'I' for Inactive)
REMARK    1  A    between atoms: C_4  and  C_5
REMARK    2  A    between atoms: N_15  and  C_16
REMARK    3  A    between atoms: C_16  and  C_17
REMARK                            x       y       z     vdW  Elec       q    Type
REMARK                         _______ _______ _______ _____ _____    ______ ____
ROOT
ATOM      1  O   UNL     1       3.085   8.544  17.925  0.00  0.00    +0.000 OA
ATOM      2  C   UNL     1       3.111   7.322  17.768  0.00  0.00    +0.000 C 
ATOM      3  C   UNL     1       1.852   6.483  17.999  0.00  0.00    +0.000 C 
ATOM      4  C   UNL     1       1.982   4.951  17.949  0.00  0.00    +0.000 C 
ATOM      5  C   UNL     1       3.261   4.508  17.345  0.00  0.00    +0.000 A 
ATOM      6  C   UNL     1       3.729   3.263  16.886  0.00  0.00    +0.000 A 
ATOM      7  N   UNL     1       4.976   3.333  16.404  0.00  0.00    +0.000 NA
ATOM      8  N   UNL     1       5.325   4.632  16.593  0.00  0.00    +0.000 N 
ATOM      9  C   UNL     1       4.286   5.378  17.080  0.00  0.00    +0.000 A 
ATOM     10  N   UNL     1       4.252   6.726  17.300  0.00  0.00    +0.000 N 
ATOM     11  H   UNL     1       5.050   7.329  17.140  0.00  0.00    +0.000 HD
ENDROOT
BRANCH   4  12
ATOM     12  C   UNL     1       1.877   4.283  19.309  0.00  0.00    +0.000 A 
ATOM     13  C   UNL     1       2.554   4.846  20.406  0.00  0.00    +0.000 A 
ATOM     14  C   UNL     1       2.526   4.233  21.661  0.00  0.00    +0.000 A 
ATOM     15  C   UNL     1       1.813   3.047  21.848  0.00  0.00    +0.000 A 
ATOM     16  C   UNL     1       1.136   2.478  20.773  0.00  0.00    +0.000 A 
ATOM     17  C   UNL     1       1.177   3.086  19.520  0.00  0.00    +0.000 A 
ATOM     18  F   UNL     1       0.539   2.487  18.504  0.00  0.00    +0.000 F 
ENDBRANCH   4  12
BRANCH   8  19
ATOM     19  C   UNL     1       6.676   5.071  16.283  0.00  0.00    +0.000 C 
BRANCH  19  20
ATOM     20  C   UNL     1       6.946   4.911  14.833  0.00  0.00    +0.000 A 
ATOM     21  C   UNL     1       6.362   4.150  13.840  0.00  0.00    +0.000 A 
ATOM     22  C   UNL     1       7.086   4.413  12.654  0.00  0.00    +0.000 A 
ATOM     23  C   UNL     1       8.058   5.324  12.994  0.00  0.00    +0.000 A 
ATOM     24  O   UNL     1       7.979   5.637  14.314  0.00  0.00    +0.000 OA
ENDBRANCH  19  20
ENDBRANCH   8  19
TORSDOF 3
ENDMDL
MODEL 3
REMARK VINA RESULT:      -7.8      3.439      6.164
REMARK  Name = 
REMARK  3 active torsions:
REMARK  status: ('A' for Active; 'I' for Inactive)
REMARK    1  A    between atoms: C_4  and  C_5
REMARK    2  A    between atoms: N_15  and  C_16
REMARK    3  A    between atoms: C_16  and  C_17
REMARK                            x       y       z     vdW  Elec       q    Type
REMARK                         _______ _______ _______ _____ _____    ______ ____
ROOT
ATOM      1  O   UNL     1       2.067   3.374  21.709  0.00  0.00    +0.000 OA
ATOM      2  C   UNL     1       2.293   4.177  20.801  0.00  0.00    +0.000 C 
ATOM      3  C   UNL     1       2.817   3.691  19.448  0.00  0.00    +0.000 C 
ATOM      4  C   UNL     1       3.235   4.747  18.410  0.00  0.00    +0.000 C 
ATOM      5  C   UNL     1       2.749   6.104  18.753  0.00  0.00    +0.000 A 
ATOM      6  C   UNL     1       2.678   7.311  18.033  0.00  0.00    +0.000 A 
ATOM      7  N   UNL     1       2.152   8.307  18.757  0.00  0.00    +0.000 NA
ATOM      8  N   UNL     1       1.919   7.739  19.969  0.00  0.00    +0.000 N 
ATOM      9  C   UNL     1       2.192   6.398  19.970  0.00  0.00    +0.000 A 
ATOM     10  N   UNL     1       1.989   5.500  20.980  0.00  0.00    +0.000 N 
ATOM     11  H   UNL     1       1.622   5.766  21.886  0.00  0.00    +0.000 HD
ENDROOT
BRANCH   4  12
ATOM     12  C   UNL     1       4.737   4.849  18.211  0.00  0.00    +0.000 A 
ATOM     13  C   UNL     1       5.538   5.336  19.260  0.00  0.00    +0.000 A 
ATOM     14  C   UNL     1       6.916   5.494  19.099  0.00  0.00    +0.000 A 
ATOM     15  C   UNL     1       7.526   5.161  17.889  0.00  0.00    +0.000 A 
ATOM     16  C   UNL     1       6.748   4.674  16.841  0.00  0.00    +0.000 A 
ATOM     17  C   UNL     1       5.371   4.530  17.002  0.00  0.00    +0.000 A 
ATOM     18  F   UNL     1       4.654   4.090  15.958  0.00  0.00    +0.000 F 
ENDBRANCH   4  12
BRANCH   8  19
ATOM     19  C   UNL     1       1.440   8.556  21.072  0.00  0.00    +0.000 C 
BRANCH  19  20
ATOM     20  C   UNL     1       0.669   9.712  20.554  0.00  0.00    +0.000 A 
ATOM     21  C   UNL     1      -0.557   9.830  19.930  0.00  0.00    +0.000 A 
ATOM     22  C   UNL     1      -0.737  11.205  19.654  0.00  0.00    +0.000 A 
ATOM     23  C   UNL     1       0.381  11.842  20.135  0.00  0.00    +0.000 A 
ATOM     24  O   UNL     1       1.240  10.945  20.689  0.00  0.00    +0.000 OA
ENDBRANCH  19  20
ENDBRANCH   8  19
TORSDOF 3
ENDMDL
MODEL 4
REMARK VINA RESULT:      -7.7      1.020      1.422
REMARK  Name = 
REMARK  3 active torsions:
REMARK  status: ('A' for Active; 'I' for Inactive)
REMARK    1  A    between atoms: C_4  and  C_5
REMARK    2  A    between atoms: N_15  and  C_16
REMARK    3  A    between atoms: C_16  and  C_17
REMARK                            x       y       z     vdW  Elec       q    Type
REMARK                         _______ _______ _______ _____ _____    ______ ____
ROOT
ATOM      1  O   UNL     1       3.220   8.611  17.822  0.00  0.00    +0.000 OA
ATOM      2  C   UNL     1       3.234   7.389  17.659  0.00  0.00    +0.000 C 
ATOM      3  C   UNL     1       1.981   6.555  17.935  0.00  0.00    +0.000 C 
ATOM      4  C   UNL     1       2.103   5.022  17.872  0.00  0.00    +0.000 C 
ATOM      5  C   UNL     1       3.355   4.577  17.217  0.00  0.00    +0.000 A 
ATOM      6  C   UNL     1       3.799   3.333  16.734  0.00  0.00    +0.000 A 
ATOM      7  N   UNL     1       5.027   3.399  16.204  0.00  0.00    +0.000 NA
ATOM      8  N   UNL     1       5.389   4.696  16.385  0.00  0.00    +0.000 N 
ATOM      9  C   UNL     1       4.373   5.444  16.916  0.00  0.00    +0.000 A 
ATOM     10  N   UNL     1       4.353   6.792  17.144  0.00  0.00    +0.000 N 
ATOM     11  H   UNL     1       5.147   7.392  16.955  0.00  0.00    +0.000 HD
ENDROOT
BRANCH   4  12
ATOM     12  C   UNL     1       2.048   4.348  19.232  0.00  0.00    +0.000 A 
ATOM     13  C   UNL     1       1.082   3.354  19.468  0.00  0.00    +0.000 A 
ATOM     14  C   UNL     1       0.965   2.747  20.721  0.00  0.00    +0.000 A 
ATOM     15  C   UNL     1       1.818   3.115  21.763  0.00  0.00    +0.000 A 
ATOM     16  C   UNL     1       2.783   4.095  21.545  0.00  0.00    +0.000 A 
ATOM     17  C   UNL     1       2.887   4.707  20.296  0.00  0.00    +0.000 A 
ATOM     18  F   UNL     1       3.807   5.670  20.138  0.00  0.00    +0.000 F 
ENDBRANCH   4  12
BRANCH   8  19
ATOM     19  C   UNL     1       6.728   5.131  16.025  0.00  0.00    +0.000 C 
BRANCH  19  20
ATOM     20  C   UNL     1       7.285   6.005  17.087  0.00  0.00    +0.000 A 
ATOM     21  C   UNL     1       7.716   5.769  18.377  0.00  0.00    +0.000 A 
ATOM     22  C   UNL     1       8.119   7.019  18.901  0.00  0.00    +0.000 A 
ATOM     23  C   UNL     1       7.920   7.936  17.897  0.00  0.00    +0.000 A 
ATOM     24  O   UNL     1       7.418   7.330  16.789  0.00  0.00    +0.000 OA
ENDBRANCH  19  20
ENDBRANCH   8  19
TORSDOF 3
ENDMDL
MODEL 5
REMARK VINA RESULT:      -7.6      3.638      6.491
REMARK  Name = 
REMARK  3 active torsions:
REMARK  status: ('A' for Active; 'I' for Inactive)
REMARK    1  A    between atoms: C_4  and  C_5
REMARK    2  A    between atoms: N_15  and  C_16
REMARK    3  A    between atoms: C_16  and  C_17
REMARK                            x       y       z     vdW  Elec       q    Type
REMARK                         _______ _______ _______ _____ _____    ______ ____
ROOT
ATOM      1  O   UNL     1       2.537   3.320  20.996  0.00  0.00    +0.000 OA
ATOM      2  C   UNL     1       2.703   4.287  20.249  0.00  0.00    +0.000 C 
ATOM      3  C   UNL     1       3.415   4.118  18.906  0.00  0.00    +0.000 C 
ATOM      4  C   UNL     1       3.739   5.383  18.092  0.00  0.00    +0.000 C 
ATOM      5  C   UNL     1       3.005   6.575  18.579  0.00  0.00    +0.000 A 
ATOM      6  C   UNL     1       2.796   7.860  18.046  0.00  0.00    +0.000 A 
ATOM      7  N   UNL     1       2.050   8.630  18.848  0.00  0.00    +0.000 NA
ATOM      8  N   UNL     1       1.811   7.840  19.927  0.00  0.00    +0.000 N 
ATOM      9  C   UNL     1       2.304   6.575  19.756  0.00  0.00    +0.000 A 
ATOM     10  N   UNL     1       2.167   5.501  20.591  0.00  0.00    +0.000 N 
ATOM     11  H   UNL     1       1.683   5.554  21.479  0.00  0.00    +0.000 HD
ENDROOT
BRANCH   4  12
ATOM     12  C   UNL     1       5.214   5.743  18.081  0.00  0.00    +0.000 A 
ATOM     13  C   UNL     1       6.022   5.367  19.169  0.00  0.00    +0.000 A 
ATOM     14  C   UNL     1       7.372   5.724  19.221  0.00  0.00    +0.000 A 
ATOM     15  C   UNL     1       7.945   6.459  18.182  0.00  0.00    +0.000 A 
ATOM     16  C   UNL     1       7.160   6.837  17.096  0.00  0.00    +0.000 A 
ATOM     17  C   UNL     1       5.810   6.489  17.054  0.00  0.00    +0.000 A 
ATOM     18  F   UNL     1       5.082   6.902  16.007  0.00  0.00    +0.000 F 
ENDBRANCH   4  12
BRANCH   8  19
ATOM     19  C   UNL     1       1.109   8.380  21.080  0.00  0.00    +0.000 C 
BRANCH  19  20
ATOM     20  C   UNL     1       0.499   9.688  20.739  0.00  0.00    +0.000 A 
ATOM     21  C   UNL     1       0.858  10.997  20.997  0.00  0.00    +0.000 A 
ATOM     22  C   UNL     1      -0.148  11.810  20.427  0.00  0.00    +0.000 A 
ATOM     23  C   UNL     1      -1.052  10.951  19.848  0.00  0.00    +0.000 A 
ATOM     24  O   UNL     1      -0.666   9.660  20.028  0.00  0.00    +0.000 OA
ENDBRANCH  19  20
ENDBRANCH   8  19
TORSDOF 3
ENDMDL
MODEL 6
REMARK VINA RESULT:      -7.6      2.463      5.981
REMARK  Name = 
REMARK  3 active torsions:
REMARK  status: ('A' for Active; 'I' for Inactive)
REMARK    1  A    between atoms: C_4  and  C_5
REMARK    2  A    between atoms: N_15  and  C_16
REMARK    3  A    between atoms: C_16  and  C_17
REMARK                            x       y       z     vdW  Elec       q    Type
REMARK                         _______ _______ _______ _____ _____    ______ ____
ROOT
ATOM      1  O   UNL     1       6.141   3.345  14.264  0.00  0.00    +0.000 OA
ATOM      2  C   UNL     1       5.642   4.126  15.077  0.00  0.00    +0.000 C 
ATOM      3  C   UNL     1       6.040   5.604  15.078  0.00  0.00    +0.000 C 
ATOM      4  C   UNL     1       5.511   6.496  16.215  0.00  0.00    +0.000 C 
ATOM      5  C   UNL     1       4.406   5.860  16.970  0.00  0.00    +0.000 A 
ATOM      6  C   UNL     1       3.479   6.345  17.910  0.00  0.00    +0.000 A 
ATOM      7  N   UNL     1       2.640   5.393  18.338  0.00  0.00    +0.000 NA
ATOM      8  N   UNL     1       3.062   4.275  17.692  0.00  0.00    +0.000 N 
ATOM      9  C   UNL     1       4.067   4.543  16.803  0.00  0.00    +0.000 A 
ATOM     10  N   UNL     1       4.662   3.682  15.924  0.00  0.00    +0.000 N 
ATOM     11  H   UNL     1       4.418   2.700  15.866  0.00  0.00    +0.000 HD
ENDROOT
BRANCH   4  12
ATOM     12  C   UNL     1       6.573   6.891  17.227  0.00  0.00    +0.000 A 
ATOM     13  C   UNL     1       7.070   8.206  17.225  0.00  0.00    +0.000 A 
ATOM     14  C   UNL     1       8.083   8.594  18.104  0.00  0.00    +0.000 A 
ATOM     15  C   UNL     1       8.616   7.677  19.012  0.00  0.00    +0.000 A 
ATOM     16  C   UNL     1       8.133   6.371  19.029  0.00  0.00    +0.000 A 
ATOM     17  C   UNL     1       7.130   5.985  18.141  0.00  0.00    +0.000 A 
ATOM     18  F   UNL     1       6.717   4.710  18.168  0.00  0.00    +0.000 F 
ENDBRANCH   4  12
BRANCH   8  19
ATOM     19  C   UNL     1       2.448   2.991  17.990  0.00  0.00    +0.000 C 
BRANCH  19  20
ATOM     20  C   UNL     1       2.152   2.891  19.440  0.00  0.00    +0.000 A 
ATOM     21  C   UNL     1       0.989   2.986  20.178  0.00  0.00    +0.000 A 
ATOM     22  C   UNL     1       1.358   2.823  21.533  0.00  0.00    +0.000 A 
ATOM     23  C   UNL     1       2.718   2.629  21.538  0.00  0.00    +0.000 A 
ATOM     24  O   UNL     1       3.211   2.663  20.272  0.00  0.00    +0.000 OA
ENDBRANCH  19  20
ENDBRANCH   8  19
TORSDOF 3
ENDMDL
MODEL 7
REMARK VINA RESULT:      -7.5      3.218      5.691
REMARK  Name = 
REMARK  3 active torsions:
REMARK  status: ('A' for Active; 'I' for Inactive)
REMARK    1  A    between atoms: C_4  and  C_5
REMARK    2  A    between atoms: N_15  and  C_16
REMARK    3  A    between atoms: C_16  and  C_17
REMARK                            x       y       z     vdW  Elec       q    Type
REMARK                         _______ _______ _______ _____ _____    ______ ____
ROOT
ATOM      1  O   UNL     1       5.084   6.545  16.266  0.00  0.00    +0.000 OA
ATOM      2  C   UNL     1       4.364   6.623  17.264  0.00  0.00    +0.000 C 
ATOM      3  C   UNL     1       4.530   5.635  18.420  0.00  0.00    +0.000 C 
ATOM      4  C   UNL     1       3.501   5.676  19.563  0.00  0.00    +0.000 C 
ATOM      5  C   UNL     1       2.678   6.908  19.543  0.00  0.00    +0.000 A 
ATOM      6  C   UNL     1       1.798   7.493  20.471  0.00  0.00    +0.000 A 
ATOM      7  N   UNL     1       1.265   8.635  20.020  0.00  0.00    +0.000 NA
ATOM      8  N   UNL     1       1.781   8.763  18.770  0.00  0.00    +0.000 N 
ATOM      9  C   UNL     1       2.695   7.784  18.489  0.00  0.00    +0.000 A 
ATOM     10  N   UNL     1       3.471   7.656  17.371  0.00  0.00    +0.000 N 
ATOM     11  H   UNL     1       3.418   8.297  16.589  0.00  0.00    +0.000 HD
ENDROOT
BRANCH   4  12
ATOM     12  C   UNL     1       2.541   4.500  19.566  0.00  0.00    +0.000 A 
ATOM     13  C   UNL     1       2.051   4.010  18.342  0.00  0.00    +0.000 A 
ATOM     14  C   UNL     1       1.125   2.964  18.304  0.00  0.00    +0.000 A 
ATOM     15  C   UNL     1       0.676   2.379  19.489  0.00  0.00    +0.000 A 
ATOM     16  C   UNL     1       1.154   2.850  20.709  0.00  0.00    +0.000 A 
ATOM     17  C   UNL     1       2.068   3.902  20.743  0.00  0.00    +0.000 A 
ATOM     18  F   UNL     1       2.477   4.348  21.939  0.00  0.00    +0.000 F 
ENDBRANCH   4  12
BRANCH   8  19
ATOM     19  C   UNL     1       1.339   9.849  17.911  0.00  0.00    +0.000 C 
BRANCH  19  20
ATOM     20  C   UNL     1       0.186  10.551  18.526  0.00  0.00    +0.000 A 
ATOM     21  C   UNL     1      -1.181  10.372  18.453  0.00  0.00    +0.000 A 
ATOM     22  C   UNL     1      -1.762  11.382  19.254  0.00  0.00    +0.000 A 
ATOM     23  C   UNL     1      -0.717  12.106  19.774  0.00  0.00    +0.000 A 
ATOM     24  O   UNL     1       0.472  11.607  19.344  0.00  0.00    +0.000 OA
ENDBRANCH  19  20
ENDBRANCH   8  19
TORSDOF 3
ENDMDL
MODEL 8
REMARK VINA RESULT:      -7.5      3.511      6.248
REMARK  Name = 
REMARK  3 active torsions:
REMARK  status: ('A' for Active; 'I' for Inactive)
REMARK    1  A    between atoms: C_4  and  C_5
REMARK    2  A    between atoms: N_15  and  C_16
REMARK    3  A    between atoms: C_16  and  C_17
REMARK                            x       y       z     vdW  Elec       q    Type
REMARK                         _______ _______ _______ _____ _____    ______ ____
ROOT
ATOM      1  O   UNL     1       1.493   3.154  20.846  0.00  0.00    +0.000 OA
ATOM      2  C   UNL     1       1.816   4.081  20.101  0.00  0.00    +0.000 C 
ATOM      3  C   UNL     1       2.278   3.802  18.669  0.00  0.00    +0.000 C 
ATOM      4  C   UNL     1       2.823   4.978  17.841  0.00  0.00    +0.000 C 
ATOM      5  C   UNL     1       2.507   6.294  18.445  0.00  0.00    +0.000 A 
ATOM      6  C   UNL     1       2.585   7.615  17.968  0.00  0.00    +0.000 A 
ATOM      7  N   UNL     1       2.184   8.511  18.879  0.00  0.00    +0.000 NA
ATOM      8  N   UNL     1       1.882   7.755  19.967  0.00  0.00    +0.000 N 
ATOM      9  C   UNL     1       1.989   6.416  19.708  0.00  0.00    +0.000 A 
ATOM     10  N   UNL     1       1.675   5.373  20.534  0.00  0.00    +0.000 N 
ATOM     11  H   UNL     1       1.343   5.504  21.482  0.00  0.00    +0.000 HD
ENDROOT
BRANCH   4  12
ATOM     12  C   UNL     1       4.327   4.935  17.632  0.00  0.00    +0.000 A 
ATOM     13  C   UNL     1       4.835   4.619  16.359  0.00  0.00    +0.000 A 
ATOM     14  C   UNL     1       6.211   4.517  16.138  0.00  0.00    +0.000 A 
ATOM     15  C   UNL     1       7.109   4.738  17.184  0.00  0.00    +0.000 A 
ATOM     16  C   UNL     1       6.622   5.054  18.450  0.00  0.00    +0.000 A 
ATOM     17  C   UNL     1       5.248   5.142  18.668  0.00  0.00    +0.000 A 
ATOM     18  F   UNL     1       4.821   5.416  19.909  0.00  0.00    +0.000 F 
ENDBRANCH   4  12
BRANCH   8  19
ATOM     19  C   UNL     1       1.505   8.399  21.215  0.00  0.00    +0.000 C 
BRANCH  19  20
ATOM     20  C   UNL     1       0.721   9.627  20.940  0.00  0.00    +0.000 A 
ATOM     21  C   UNL     1      -0.440   9.871  20.231  0.00  0.00    +0.000 A 
ATOM     22  C   UNL     1      -0.676  11.263  20.315  0.00  0.00    +0.000 A 
ATOM     23  C   UNL     1       0.344  11.779  21.076  0.00  0.00    +0.000 A 
ATOM     24  O   UNL     1       1.196  10.794  21.465  0.00  0.00    +0.000 OA
ENDBRANCH  19  20
ENDBRANCH   8  19
TORSDOF 3
ENDMDL
MODEL 9
REMARK VINA RESULT:      -7.5      3.259      5.243
REMARK  Name = 
REMARK  3 active torsions:
REMARK  status: ('A' for Active; 'I' for Inactive)
REMARK    1  A    between atoms: C_4  and  C_5
REMARK    2  A    between atoms: N_15  and  C_16
REMARK    3  A    between atoms: C_16  and  C_17
REMARK                            x       y       z     vdW  Elec       q    Type
REMARK                         _______ _______ _______ _____ _____    ______ ____
ROOT
ATOM      1  O   UNL     1       4.671   7.021  16.291  0.00  0.00    +0.000 OA
ATOM      2  C   UNL     1       4.006   7.005  17.329  0.00  0.00    +0.000 C 
ATOM      3  C   UNL     1       4.296   5.972  18.420  0.00  0.00    +0.000 C 
ATOM      4  C   UNL     1       3.333   5.893  19.618  0.00  0.00    +0.000 C 
ATOM      5  C   UNL     1       2.439   7.071  19.707  0.00  0.00    +0.000 A 
ATOM      6  C   UNL     1       1.580   7.554  20.712  0.00  0.00    +0.000 A 
ATOM      7  N   UNL     1       0.955   8.682  20.351  0.00  0.00    +0.000 NA
ATOM      8  N   UNL     1       1.390   8.903  19.083  0.00  0.00    +0.000 N 
ATOM      9  C   UNL     1       2.343   7.997  18.702  0.00  0.00    +0.000 A 
ATOM     10  N   UNL     1       3.061   7.974  17.539  0.00  0.00    +0.000 N 
ATOM     11  H   UNL     1       2.925   8.648  16.795  0.00  0.00    +0.000 HD
ENDROOT
BRANCH   4  12
ATOM     12  C   UNL     1       2.446   4.661  19.609  0.00  0.00    +0.000 A 
ATOM     13  C   UNL     1       1.959   4.172  18.384  0.00  0.00    +0.000 A 
ATOM     14  C   UNL     1       1.098   3.073  18.338  0.00  0.00    +0.000 A 
ATOM     15  C   UNL     1       0.711   2.433  19.516  0.00  0.00    +0.000 A 
ATOM     16  C   UNL     1       1.186   2.902  20.738  0.00  0.00    +0.000 A 
ATOM     17  C   UNL     1       2.035   4.007  20.780  0.00  0.00    +0.000 A 
ATOM     18  F   UNL     1       2.443   4.447  21.979  0.00  0.00    +0.000 F 
ENDBRANCH   4  12
BRANCH   8  19
ATOM     19  C   UNL     1       0.836  10.001  18.308  0.00  0.00    +0.000 C 
BRANCH  19  20
ATOM     20  C   UNL     1       1.468  11.281  18.711  0.00  0.00    +0.000 A 
ATOM     21  C   UNL     1       1.270  12.142  19.772  0.00  0.00    +0.000 A 
ATOM     22  C   UNL     1       2.173  13.215  19.594  0.00  0.00    +0.000 A 
ATOM     23  C   UNL     1       2.873  12.938  18.444  0.00  0.00    +0.000 A 
ATOM     24  O   UNL     1       2.457  11.763  17.902  0.00  0.00    +0.000 OA
ENDBRANCH  19  20
ENDBRANCH   8  19
TORSDOF 3
ENDMDL
