MODEL 1
REMARK VINA RESULT:      -7.4      0.000      0.000
REMARK  Name = 
REMARK  7 active torsions:
REMARK  status: ('A' for Active; 'I' for Inactive)
REMARK    1  A    between atoms: C_1  and  C_2
REMARK    2  A    between atoms: C_5  and  C_6
REMARK    3  A    between atoms: C_6  and  C_7
REMARK    4  A    between atoms: C_6  and  N_13
REMARK    5  A    between atoms: C_9  and  C_10
REMARK    6  A    between atoms: N_16  and  C_17
REMARK    7  A    between atoms: C_20  and  C_21
REMARK                            x       y       z     vdW  Elec       q    Type
REMARK                         _______ _______ _______ _____ _____    ______ ____
ROOT
ATOM      1  C   UNL     1       4.367   5.305  18.484  0.00  0.00    +0.000 C 
ENDROOT
BRANCH   1   6
ATOM      2  C   UNL     1       0.898  10.068  18.520  0.00  0.00    +0.000 C 
ATOM      3  C   UNL     1       1.759   8.839  18.514  0.00  0.00    +0.000 A 
ATOM      4  C   UNL     1       2.623   8.588  17.455  0.00  0.00    +0.000 A 
ATOM      5  C   UNL     1       3.460   7.476  17.490  0.00  0.00    +0.000 A 
ATOM      6  C   UNL     1       3.430   6.535  18.547  0.00  0.00    +0.000 A 
ATOM      7  C   UNL     1       2.540   6.786  19.619  0.00  0.00    +0.000 A 
ATOM      8  C   UNL     1       2.449   5.923  20.854  0.00  0.00    +0.000 C 
ATOM      9  C   UNL     1       1.739   7.949  19.597  0.00  0.00    +0.000 A 
ENDBRANCH   1   6
BRANCH   1  10
ATOM     10  N   UNL     1       3.660   3.986  18.407  0.00  0.00    +0.000 NA
ATOM     11  C   UNL     1       2.208   4.064  18.162  0.00  0.00    +0.000 C 
ATOM     12  C   UNL     1       1.487   2.699  18.143  0.00  0.00    +0.000 C 
ATOM     13  N   UNL     1       1.742   1.877  19.340  0.00  0.00    +0.000 NA
ATOM     14  C   UNL     1       1.120   2.459  20.533  0.00  0.00    +0.000 C 
ATOM     15  C   UNL     1       3.204   1.753  19.502  0.00  0.00    +0.000 C 
ATOM     16  C   UNL     1       3.975   3.098  19.538  0.00  0.00    +0.000 C 
ENDBRANCH   1  10
BRANCH   1  17
ATOM     17  C   UNL     1       5.443   5.392  17.401  0.00  0.00    +0.000 A 
ATOM     18  C   UNL     1       5.531   4.739  16.181  0.00  0.00    +0.000 A 
ATOM     19  C   UNL     1       6.644   5.207  15.422  0.00  0.00    +0.000 A 
ATOM     20  C   UNL     1       6.944   4.835  14.014  0.00  0.00    +0.000 C 
ATOM     21  N   UNL     1       7.449   6.067  16.044  0.00  0.00    +0.000 NA
ATOM     22  S   UNL     1       6.867   6.338  17.571  0.00  0.00    +0.000 S 
ENDBRANCH   1  17
TORSDOF 3
ENDMDL
MODEL 2
REMARK VINA RESULT:      -7.3      2.043      5.084
REMARK  Name = 
REMARK  7 active torsions:
REMARK  status: ('A' for Active; 'I' for Inactive)
REMARK    1  A    between atoms: C_1  and  C_2
REMARK    2  A    between atoms: C_5  and  C_6
REMARK    3  A    between atoms: C_6  and  C_7
REMARK    4  A    between atoms: C_6  and  N_13
REMARK    5  A    between atoms: C_9  and  C_10
REMARK    6  A    between atoms: N_16  and  C_17
REMARK    7  A    between atoms: C_20  and  C_21
REMARK                            x       y       z     vdW  Elec       q    Type
REMARK                         _______ _______ _______ _____ _____    ______ ____
ROOT
ATOM      1  C   UNL     1       2.594   6.441  18.757  0.00  0.00    +0.000 C 
ENDROOT
BRANCH   1   6
ATOM      2  C   UNL     1       0.076  10.768  21.865  0.00  0.00    +0.000 C 
ATOM      3  C   UNL     1       0.737   9.683  21.067  0.00  0.00    +0.000 A 
ATOM      4  C   UNL     1       1.054   8.465  21.657  0.00  0.00    +0.000 A 
ATOM      5  C   UNL     1       1.613   7.447  20.890  0.00  0.00    +0.000 A 
ATOM      6  C   UNL     1       1.936   7.614  19.523  0.00  0.00    +0.000 A 
ATOM      7  C   UNL     1       1.624   8.860  18.927  0.00  0.00    +0.000 A 
ATOM      8  C   UNL     1       1.832   9.165  17.463  0.00  0.00    +0.000 C 
ATOM      9  C   UNL     1       1.004   9.864  19.703  0.00  0.00    +0.000 A 
ENDBRANCH   1   6
BRANCH   1  10
ATOM     10  N   UNL     1       4.086   6.526  18.647  0.00  0.00    +0.000 NA
ATOM     11  C   UNL     1       4.600   6.838  17.300  0.00  0.00    +0.000 C 
ATOM     12  C   UNL     1       6.140   6.865  17.193  0.00  0.00    +0.000 C 
ATOM     13  N   UNL     1       6.792   5.644  17.699  0.00  0.00    +0.000 NA
ATOM     14  C   UNL     1       6.513   4.491  16.838  0.00  0.00    +0.000 C 
ATOM     15  C   UNL     1       6.315   5.414  19.077  0.00  0.00    +0.000 C 
ATOM     16  C   UNL     1       4.773   5.366  19.237  0.00  0.00    +0.000 C 
ENDBRANCH   1  10
BRANCH   1  17
ATOM     17  C   UNL     1       2.180   5.057  19.258  0.00  0.00    +0.000 A 
ATOM     18  C   UNL     1       2.251   4.514  20.532  0.00  0.00    +0.000 A 
ATOM     19  C   UNL     1       1.640   3.226  20.582  0.00  0.00    +0.000 A 
ATOM     20  C   UNL     1       1.404   2.431  21.816  0.00  0.00    +0.000 C 
ATOM     21  N   UNL     1       1.234   2.733  19.413  0.00  0.00    +0.000 NA
ATOM     22  S   UNL     1       1.578   3.829  18.219  0.00  0.00    +0.000 S 
ENDBRANCH   1  17
TORSDOF 3
ENDMDL
MODEL 3
REMARK VINA RESULT:      -7.3      1.906      4.747
REMARK  Name = 
REMARK  7 active torsions:
REMARK  status: ('A' for Active; 'I' for Inactive)
REMARK    1  A    between atoms: C_1  and  C_2
REMARK    2  A    between atoms: C_5  and  C_6
REMARK    3  A    between atoms: C_6  and  C_7
REMARK    4  A    between atoms: C_6  and  N_13
REMARK    5  A    between atoms: C_9  and  C_10
REMARK    6  A    between atoms: N_16  and  C_17
REMARK    7  A    between atoms: C_20  and  C_21
REMARK                            x       y       z     vdW  Elec       q    Type
REMARK                         _______ _______ _______ _____ _____    ______ ____
ROOT
ATOM      1  C   UNL     1       3.121   6.482  18.177  0.00  0.00    +0.000 C 
ENDROOT
BRANCH   1   6
ATOM      2  C   UNL     1      -0.063   9.564  22.061  0.00  0.00    +0.000 C 
ATOM      3  C   UNL     1       0.765   8.801  21.070  0.00  0.00    +0.000 A 
ATOM      4  C   UNL     1       1.238   7.530  21.376  0.00  0.00    +0.000 A 
ATOM      5  C   UNL     1       1.955   6.808  20.426  0.00  0.00    +0.000 A 
ATOM      6  C   UNL     1       2.285   7.340  19.157  0.00  0.00    +0.000 A 
ATOM      7  C   UNL     1       1.813   8.640  18.852  0.00  0.00    +0.000 A 
ATOM      8  C   UNL     1       2.011   9.312  17.515  0.00  0.00    +0.000 C 
ATOM      9  C   UNL     1       1.037   9.337  19.804  0.00  0.00    +0.000 A 
ENDBRANCH   1   6
BRANCH   1  10
ATOM     10  N   UNL     1       4.603   6.573  18.378  0.00  0.00    +0.000 NA
ATOM     11  C   UNL     1       5.387   6.859  17.161  0.00  0.00    +0.000 C 
ATOM     12  C   UNL     1       6.915   6.892  17.377  0.00  0.00    +0.000 C 
ATOM     13  N   UNL     1       7.448   5.685  18.033  0.00  0.00    +0.000 NA
ATOM     14  C   UNL     1       7.355   4.512  17.159  0.00  0.00    +0.000 C 
ATOM     15  C   UNL     1       6.695   5.482  19.287  0.00  0.00    +0.000 C 
ATOM     16  C   UNL     1       5.153   5.430  19.124  0.00  0.00    +0.000 C 
ENDBRANCH   1  10
BRANCH   1  17
ATOM     17  C   UNL     1       2.687   5.018  18.100  0.00  0.00    +0.000 A 
ATOM     18  C   UNL     1       1.776   4.319  18.877  0.00  0.00    +0.000 A 
ATOM     19  C   UNL     1       1.582   2.995  18.383  0.00  0.00    +0.000 A 
ATOM     20  C   UNL     1       0.567   2.029  18.881  0.00  0.00    +0.000 C 
ATOM     21  N   UNL     1       2.373   2.632  17.374  0.00  0.00    +0.000 NA
ATOM     22  S   UNL     1       3.371   3.898  16.992  0.00  0.00    +0.000 S 
ENDBRANCH   1  17
TORSDOF 3
ENDMDL
MODEL 4
REMARK VINA RESULT:      -7.0      2.083      4.627
REMARK  Name = 
REMARK  7 active torsions:
REMARK  status: ('A' for Active; 'I' for Inactive)
REMARK    1  A    between atoms: C_1  and  C_2
REMARK    2  A    between atoms: C_5  and  C_6
REMARK    3  A    between atoms: C_6  and  C_7
REMARK    4  A    between atoms: C_6  and  N_13
REMARK    5  A    between atoms: C_9  and  C_10
REMARK    6  A    between atoms: N_16  and  C_17
REMARK    7  A    between atoms: C_20  and  C_21
REMARK                            x       y       z     vdW  Elec       q    Type
REMARK                         _______ _______ _______ _____ _____    ______ ____
ROOT
ATOM      1  C   UNL     1       3.309   6.273  18.059  0.00  0.00    +0.000 C 
ENDROOT
BRANCH   1   6
ATOM      2  C   UNL     1       0.008   9.047  22.075  0.00  0.00    +0.000 C 
ATOM      3  C   UNL     1       0.867   8.362  21.053  0.00  0.00    +0.000 A 
ATOM      4  C   UNL     1       1.320   7.065  21.267  0.00  0.00    +0.000 A 
ATOM      5  C   UNL     1       2.066   6.419  20.285  0.00  0.00    +0.000 A 
ATOM      6  C   UNL     1       2.444   7.053  19.078  0.00  0.00    +0.000 A 
ATOM      7  C   UNL     1       1.991   8.378  18.867  0.00  0.00    +0.000 A 
ATOM      8  C   UNL     1       2.242   9.158  17.599  0.00  0.00    +0.000 C 
ATOM      9  C   UNL     1       1.187   9.000  19.847  0.00  0.00    +0.000 A 
ENDBRANCH   1   6
BRANCH   1  10
ATOM     10  N   UNL     1       4.785   6.493  18.196  0.00  0.00    +0.000 NA
ATOM     11  C   UNL     1       5.520   6.645  16.927  0.00  0.00    +0.000 C 
ATOM     12  C   UNL     1       7.046   6.813  17.086  0.00  0.00    +0.000 C 
ATOM     13  N   UNL     1       7.678   5.758  17.897  0.00  0.00    +0.000 NA
ATOM     14  C   UNL     1       7.651   4.463  17.210  0.00  0.00    +0.000 C 
ATOM     15  C   UNL     1       6.969   5.695  19.191  0.00  0.00    +0.000 C 
ATOM     16  C   UNL     1       5.431   5.514  19.086  0.00  0.00    +0.000 C 
ENDBRANCH   1  10
BRANCH   1  17
ATOM     17  C   UNL     1       3.002   4.776  17.994  0.00  0.00    +0.000 A 
ATOM     18  C   UNL     1       3.855   3.688  18.102  0.00  0.00    +0.000 A 
ATOM     19  C   UNL     1       3.130   2.459  18.105  0.00  0.00    +0.000 A 
ATOM     20  C   UNL     1       3.713   1.116  18.359  0.00  0.00    +0.000 C 
ATOM     21  N   UNL     1       1.820   2.560  17.886  0.00  0.00    +0.000 NA
ATOM     22  S   UNL     1       1.431   4.157  17.678  0.00  0.00    +0.000 S 
ENDBRANCH   1  17
TORSDOF 3
ENDMDL
MODEL 5
REMARK VINA RESULT:      -6.8      1.085      1.733
REMARK  Name = 
REMARK  7 active torsions:
REMARK  status: ('A' for Active; 'I' for Inactive)
REMARK    1  A    between atoms: C_1  and  C_2
REMARK    2  A    between atoms: C_5  and  C_6
REMARK    3  A    between atoms: C_6  and  C_7
REMARK    4  A    between atoms: C_6  and  N_13
REMARK    5  A    between atoms: C_9  and  C_10
REMARK    6  A    between atoms: N_16  and  C_17
REMARK    7  A    between atoms: C_20  and  C_21
REMARK                            x       y       z     vdW  Elec       q    Type
REMARK                         _______ _______ _______ _____ _____    ______ ____
ROOT
ATOM      1  C   UNL     1       3.522   6.238  19.063  0.00  0.00    +0.000 C 
ENDROOT
BRANCH   1   6
ATOM      2  C   UNL     1       0.130  11.015  18.432  0.00  0.00    +0.000 C 
ATOM      3  C   UNL     1       0.972   9.784  18.599  0.00  0.00    +0.000 A 
ATOM      4  C   UNL     1       1.810   9.358  17.575  0.00  0.00    +0.000 A 
ATOM      5  C   UNL     1       2.629   8.248  17.765  0.00  0.00    +0.000 A 
ATOM      6  C   UNL     1       2.606   7.481  18.954  0.00  0.00    +0.000 A 
ATOM      7  C   UNL     1       1.743   7.911  19.991  0.00  0.00    +0.000 A 
ATOM      8  C   UNL     1       1.665   7.248  21.345  0.00  0.00    +0.000 C 
ATOM      9  C   UNL     1       0.961   9.072  19.805  0.00  0.00    +0.000 A 
ENDBRANCH   1   6
BRANCH   1  10
ATOM     10  N   UNL     1       2.806   4.963  19.385  0.00  0.00    +0.000 NA
ATOM     11  C   UNL     1       3.659   3.872  19.893  0.00  0.00    +0.000 C 
ATOM     12  C   UNL     1       2.913   2.548  20.164  0.00  0.00    +0.000 C 
ATOM     13  N   UNL     1       2.127   2.064  19.016  0.00  0.00    +0.000 NA
ATOM     14  C   UNL     1       2.994   1.628  17.917  0.00  0.00    +0.000 C 
ATOM     15  C   UNL     1       1.226   3.154  18.591  0.00  0.00    +0.000 C 
ATOM     16  C   UNL     1       1.929   4.505  18.295  0.00  0.00    +0.000 C 
ENDBRANCH   1  10
BRANCH   1  17
ATOM     17  C   UNL     1       4.449   6.036  17.864  0.00  0.00    +0.000 A 
ATOM     18  C   UNL     1       4.384   5.105  16.838  0.00  0.00    +0.000 A 
ATOM     19  C   UNL     1       5.387   5.349  15.853  0.00  0.00    +0.000 A 
ATOM     20  C   UNL     1       5.506   4.641  14.551  0.00  0.00    +0.000 C 
ATOM     21  N   UNL     1       6.257   6.316  16.140  0.00  0.00    +0.000 NA
ATOM     22  S   UNL     1       5.874   6.961  17.617  0.00  0.00    +0.000 S 
ENDBRANCH   1  17
TORSDOF 3
ENDMDL
MODEL 6
REMARK VINA RESULT:      -6.8      1.868      4.743
REMARK  Name = 
REMARK  7 active torsions:
REMARK  status: ('A' for Active; 'I' for Inactive)
REMARK    1  A    between atoms: C_1  and  C_2
REMARK    2  A    between atoms: C_5  and  C_6
REMARK    3  A    between atoms: C_6  and  C_7
REMARK    4  A    between atoms: C_6  and  N_13
REMARK    5  A    between atoms: C_9  and  C_10
REMARK    6  A    between atoms: N_16  and  C_17
REMARK    7  A    between atoms: C_20  and  C_21
REMARK                            x       y       z     vdW  Elec       q    Type
REMARK                         _______ _______ _______ _____ _____    ______ ____
ROOT
ATOM      1  C   UNL     1       3.100   5.402  17.867  0.00  0.00    +0.000 C 
ENDROOT
BRANCH   1   6
ATOM      2  C   UNL     1       0.700   8.924  21.937  0.00  0.00    +0.000 C 
ATOM      3  C   UNL     1       1.333   8.044  20.899  0.00  0.00    +0.000 A 
ATOM      4  C   UNL     1       1.530   6.691  21.146  0.00  0.00    +0.000 A 
ATOM      5  C   UNL     1       2.064   5.874  20.153  0.00  0.00    +0.000 A 
ATOM      6  C   UNL     1       2.479   6.376  18.898  0.00  0.00    +0.000 A 
ATOM      7  C   UNL     1       2.289   7.758  18.652  0.00  0.00    +0.000 A 
ATOM      8  C   UNL     1       2.605   8.428  17.337  0.00  0.00    +0.000 C 
ATOM      9  C   UNL     1       1.693   8.563  19.648  0.00  0.00    +0.000 A 
ENDBRANCH   1   6
BRANCH   1  10
ATOM     10  N   UNL     1       4.330   5.919  17.184  0.00  0.00    +0.000 NA
ATOM     11  C   UNL     1       4.832   5.084  16.076  0.00  0.00    +0.000 C 
ATOM     12  C   UNL     1       6.132   5.601  15.423  0.00  0.00    +0.000 C 
ATOM     13  N   UNL     1       7.220   5.851  16.384  0.00  0.00    +0.000 NA
ATOM     14  C   UNL     1       7.724   4.601  16.961  0.00  0.00    +0.000 C 
ATOM     15  C   UNL     1       6.703   6.756  17.430  0.00  0.00    +0.000 C 
ATOM     16  C   UNL     1       5.403   6.276  18.126  0.00  0.00    +0.000 C 
ENDBRANCH   1  10
BRANCH   1  17
ATOM     17  C   UNL     1       3.348   3.994  18.407  0.00  0.00    +0.000 A 
ATOM     18  C   UNL     1       4.302   3.541  19.306  0.00  0.00    +0.000 A 
ATOM     19  C   UNL     1       4.099   2.166  19.629  0.00  0.00    +0.000 A 
ATOM     20  C   UNL     1       4.841   1.408  20.670  0.00  0.00    +0.000 C 
ATOM     21  N   UNL     1       3.141   1.546  18.941  0.00  0.00    +0.000 NA
ATOM     22  S   UNL     1       2.454   2.623  17.887  0.00  0.00    +0.000 S 
ENDBRANCH   1  17
TORSDOF 3
ENDMDL
MODEL 7
REMARK VINA RESULT:      -6.7      2.289      5.191
REMARK  Name = 
REMARK  7 active torsions:
REMARK  status: ('A' for Active; 'I' for Inactive)
REMARK    1  A    between atoms: C_1  and  C_2
REMARK    2  A    between atoms: C_5  and  C_6
REMARK    3  A    between atoms: C_6  and  C_7
REMARK    4  A    between atoms: C_6  and  N_13
REMARK    5  A    between atoms: C_9  and  C_10
REMARK    6  A    between atoms: N_16  and  C_17
REMARK    7  A    between atoms: C_20  and  C_21
REMARK                            x       y       z     vdW  Elec       q    Type
REMARK                         _______ _______ _______ _____ _____    ______ ____
ROOT
ATOM      1  C   UNL     1       2.739   6.500  18.179  0.00  0.00    +0.000 C 
ENDROOT
BRANCH   1   6
ATOM      2  C   UNL     1       1.255   2.265  21.998  0.00  0.00    +0.000 C 
ATOM      3  C   UNL     1       1.606   3.346  21.019  0.00  0.00    +0.000 A 
ATOM      4  C   UNL     1       2.357   4.445  21.421  0.00  0.00    +0.000 A 
ATOM      5  C   UNL     1       2.727   5.412  20.490  0.00  0.00    +0.000 A 
ATOM      6  C   UNL     1       2.315   5.360  19.137  0.00  0.00    +0.000 A 
ATOM      7  C   UNL     1       1.539   4.247  18.733  0.00  0.00    +0.000 A 
ATOM      8  C   UNL     1       1.093   4.007  17.310  0.00  0.00    +0.000 C 
ATOM      9  C   UNL     1       1.222   3.245  19.675  0.00  0.00    +0.000 A 
ENDBRANCH   1   6
BRANCH   1  10
ATOM     10  N   UNL     1       2.464   7.880  18.693  0.00  0.00    +0.000 NA
ATOM     11  C   UNL     1       1.468   7.961  19.778  0.00  0.00    +0.000 C 
ATOM     12  C   UNL     1       1.155   9.396  20.255  0.00  0.00    +0.000 C 
ATOM     13  N   UNL     1       0.775  10.314  19.167  0.00  0.00    +0.000 NA
ATOM     14  C   UNL     1      -0.530   9.962  18.599  0.00  0.00    +0.000 C 
ATOM     15  C   UNL     1       1.837  10.268  18.142  0.00  0.00    +0.000 C 
ATOM     16  C   UNL     1       2.182   8.848  17.621  0.00  0.00    +0.000 C 
ENDBRANCH   1  10
BRANCH   1  17
ATOM     17  C   UNL     1       4.182   6.398  17.684  0.00  0.00    +0.000 A 
ATOM     18  C   UNL     1       5.222   7.310  17.782  0.00  0.00    +0.000 A 
ATOM     19  C   UNL     1       6.443   6.758  17.290  0.00  0.00    +0.000 A 
ATOM     20  C   UNL     1       7.779   7.403  17.386  0.00  0.00    +0.000 C 
ATOM     21  N   UNL     1       6.348   5.554  16.728  0.00  0.00    +0.000 NA
ATOM     22  S   UNL     1       4.770   5.055  16.789  0.00  0.00    +0.000 S 
ENDBRANCH   1  17
TORSDOF 3
ENDMDL
MODEL 8
REMARK VINA RESULT:      -6.6      5.306      8.780
REMARK  Name = 
REMARK  7 active torsions:
REMARK  status: ('A' for Active; 'I' for Inactive)
REMARK    1  A    between atoms: C_1  and  C_2
REMARK    2  A    between atoms: C_5  and  C_6
REMARK    3  A    between atoms: C_6  and  C_7
REMARK    4  A    between atoms: C_6  and  N_13
REMARK    5  A    between atoms: C_9  and  C_10
REMARK    6  A    between atoms: N_16  and  C_17
REMARK    7  A    between atoms: C_20  and  C_21
REMARK                            x       y       z     vdW  Elec       q    Type
REMARK                         _______ _______ _______ _____ _____    ______ ____
ROOT
ATOM      1  C   UNL     1      -0.486  10.960  19.647  0.00  0.00    +0.000 C 
ENDROOT
BRANCH   1   6
ATOM      2  C   UNL     1       3.363   6.689  18.353  0.00  0.00    +0.000 C 
ATOM      3  C   UNL     1       2.399   7.784  18.704  0.00  0.00    +0.000 A 
ATOM      4  C   UNL     1       2.029   8.730  17.755  0.00  0.00    +0.000 A 
ATOM      5  C   UNL     1       1.089   9.705  18.075  0.00  0.00    +0.000 A 
ATOM      6  C   UNL     1       0.523   9.819  19.367  0.00  0.00    +0.000 A 
ATOM      7  C   UNL     1       0.910   8.862  20.336  0.00  0.00    +0.000 A 
ATOM      8  C   UNL     1       0.336   8.802  21.731  0.00  0.00    +0.000 C 
ATOM      9  C   UNL     1       1.821   7.844  19.979  0.00  0.00    +0.000 A 
ENDBRANCH   1   6
BRANCH   1  10
ATOM     10  N   UNL     1       0.137  12.310  19.836  0.00  0.00    +0.000 NA
ATOM     11  C   UNL     1       0.221  13.140  18.620  0.00  0.00    +0.000 C 
ATOM     12  C   UNL     1       0.917  14.503  18.821  0.00  0.00    +0.000 C 
ATOM     13  N   UNL     1       2.250  14.403  19.442  0.00  0.00    +0.000 NA
ATOM     14  C   UNL     1       3.217  13.772  18.539  0.00  0.00    +0.000 C 
ATOM     15  C   UNL     1       2.109  13.638  20.698  0.00  0.00    +0.000 C 
ATOM     16  C   UNL     1       1.424  12.254  20.547  0.00  0.00    +0.000 C 
ENDBRANCH   1  10
BRANCH   1  17
ATOM     17  C   UNL     1      -1.632  11.043  18.639  0.00  0.00    +0.000 A 
ATOM     18  C   UNL     1      -1.714  10.555  17.343  0.00  0.00    +0.000 A 
ATOM     19  C   UNL     1      -3.018  10.749  16.798  0.00  0.00    +0.000 A 
ATOM     20  C   UNL     1      -3.496  10.212  15.497  0.00  0.00    +0.000 C 
ATOM     21  N   UNL     1      -3.862  11.451  17.553  0.00  0.00    +0.000 NA
ATOM     22  S   UNL     1      -3.094  11.888  18.954  0.00  0.00    +0.000 S 
ENDBRANCH   1  17
TORSDOF 3
ENDMDL
MODEL 9
REMARK VINA RESULT:      -6.6      5.045      8.647
REMARK  Name = 
REMARK  7 active torsions:
REMARK  status: ('A' for Active; 'I' for Inactive)
REMARK    1  A    between atoms: C_1  and  C_2
REMARK    2  A    between atoms: C_5  and  C_6
REMARK    3  A    between atoms: C_6  and  C_7
REMARK    4  A    between atoms: C_6  and  N_13
REMARK    5  A    between atoms: C_9  and  C_10
REMARK    6  A    between atoms: N_16  and  C_17
REMARK    7  A    between atoms: C_20  and  C_21
REMARK                            x       y       z     vdW  Elec       q    Type
REMARK                         _______ _______ _______ _____ _____    ______ ____
ROOT
ATOM      1  C   UNL     1       0.288  10.563  19.661  0.00  0.00    +0.000 C 
ENDROOT
BRANCH   1   6
ATOM      2  C   UNL     1       3.687   6.039  18.016  0.00  0.00    +0.000 C 
ATOM      3  C   UNL     1       2.838   7.196  18.456  0.00  0.00    +0.000 A 
ATOM      4  C   UNL     1       2.567   8.245  17.585  0.00  0.00    +0.000 A 
ATOM      5  C   UNL     1       1.730   9.282  17.987  0.00  0.00    +0.000 A 
ATOM      6  C   UNL     1       1.177   9.352  19.287  0.00  0.00    +0.000 A 
ATOM      7  C   UNL     1       1.464   8.288  20.177  0.00  0.00    +0.000 A 
ATOM      8  C   UNL     1       0.885   8.178  21.567  0.00  0.00    +0.000 C 
ATOM      9  C   UNL     1       2.268   7.214  19.736  0.00  0.00    +0.000 A 
ENDBRANCH   1   6
BRANCH   1  10
ATOM     10  N   UNL     1       1.030  11.856  19.817  0.00  0.00    +0.000 NA
ATOM     11  C   UNL     1       0.647  12.664  20.990  0.00  0.00    +0.000 C 
ATOM     12  C   UNL     1       1.380  14.018  21.102  0.00  0.00    +0.000 C 
ATOM     13  N   UNL     1       1.292  14.843  19.885  0.00  0.00    +0.000 NA
ATOM     14  C   UNL     1      -0.073  15.329  19.663  0.00  0.00    +0.000 C 
ATOM     15  C   UNL     1       1.764  14.027  18.748  0.00  0.00    +0.000 C 
ATOM     16  C   UNL     1       1.050  12.660  18.584  0.00  0.00    +0.000 C 
ENDBRANCH   1  10
BRANCH   1  17
ATOM     17  C   UNL     1      -0.923  10.756  18.748  0.00  0.00    +0.000 A 
ATOM     18  C   UNL     1      -1.210  10.183  17.519  0.00  0.00    +0.000 A 
ATOM     19  C   UNL     1      -2.513  10.550  17.067  0.00  0.00    +0.000 A 
ATOM     20  C   UNL     1      -3.198   9.996  15.870  0.00  0.00    +0.000 C 
ATOM     21  N   UNL     1      -3.154  11.446  17.817  0.00  0.00    +0.000 NA
ATOM     22  S   UNL     1      -2.190  11.862  19.099  0.00  0.00    +0.000 S 
ENDBRANCH   1  17
TORSDOF 3
ENDMDL
