MODEL 1
REMARK VINA RESULT:      -6.9      0.000      0.000
REMARK  Name = 
REMARK  5 active torsions:
REMARK  status: ('A' for Active; 'I' for Inactive)
REMARK    1  A    between atoms: C_1  and  O_2
REMARK    2  A    between atoms: O_2  and  C_3
REMARK    3  A    between atoms: C_3  and  C_5
REMARK    4  A    between atoms: C_6  and  N_7
REMARK    5  A    between atoms: C_8  and  C_10
REMARK                            x       y       z     vdW  Elec       q    Type
REMARK                         _______ _______ _______ _____ _____    ______ ____
ROOT
ATOM      1  C   UNL     1       4.604   4.376  18.459  0.00  0.00    +0.000 A 
ATOM      2  C   UNL     1       4.532   3.669  17.257  0.00  0.00    +0.000 A 
ATOM      3  S   UNL     1       3.064   2.835  17.085  0.00  0.00    +0.000 S 
ATOM      4  C   UNL     1       2.485   3.378  18.576  0.00  0.00    +0.000 A 
ATOM      5  C   UNL     1       3.389   4.186  19.238  0.00  0.00    +0.000 A 
ATOM      6  C   UNL     1       3.042   4.772  20.583  0.00  0.00    +0.000 C 
ATOM      7  C   UNL     1       1.885   4.020  21.259  0.00  0.00    +0.000 C 
ATOM      8  C   UNL     1       0.719   3.791  20.293  0.00  0.00    +0.000 C 
ATOM      9  C   UNL     1       1.143   2.949  19.084  0.00  0.00    +0.000 C 
ENDROOT
BRANCH   2  10
ATOM     10  N   UNL     1       5.506   3.604  16.264  0.00  0.00    +0.000 N 
ATOM     11  C   UNL     1       5.700   4.499  15.230  0.00  0.00    +0.000 C 
ATOM     12  O   UNL     1       5.068   5.520  14.999  0.00  0.00    +0.000 OA
ATOM     13  H   UNL     1       6.131   2.805  16.331  0.00  0.00    +0.000 HD
BRANCH  11  14
ATOM     14  C   UNL     1       6.815   4.185  14.285  0.00  0.00    +0.000 C 
ATOM     15  C   UNL     1       6.501   3.785  12.862  0.00  0.00    +0.000 C 
ATOM     16  C   UNL     1       7.294   5.031  13.134  0.00  0.00    +0.000 C 
ENDBRANCH  11  14
ENDBRANCH   2  10
BRANCH   1  17
ATOM     17  C   UNL     1       5.783   5.174  18.818  0.00  0.00    +0.000 C 
ATOM     18  O   UNL     1       6.537   4.870  19.742  0.00  0.00    +0.000 OA
BRANCH  17  20
ATOM     19  C   UNL     1       7.304   6.642  17.764  0.00  0.00    +0.000 C 
ATOM     20  O   UNL     1       5.949   6.277  18.036  0.00  0.00    +0.000 OA
ENDBRANCH  17  20
ENDBRANCH   1  17
TORSDOF 4
ENDMDL
MODEL 2
REMARK VINA RESULT:      -6.4      2.444      4.341
REMARK  Name = 
REMARK  5 active torsions:
REMARK  status: ('A' for Active; 'I' for Inactive)
REMARK    1  A    between atoms: C_1  and  O_2
REMARK    2  A    between atoms: O_2  and  C_3
REMARK    3  A    between atoms: C_3  and  C_5
REMARK    4  A    between atoms: C_6  and  N_7
REMARK    5  A    between atoms: C_8  and  C_10
REMARK                            x       y       z     vdW  Elec       q    Type
REMARK                         _______ _______ _______ _____ _____    ______ ____
ROOT
ATOM      1  C   UNL     1       5.791   5.226  17.209  0.00  0.00    +0.000 A 
ATOM      2  C   UNL     1       5.587   6.601  17.343  0.00  0.00    +0.000 A 
ATOM      3  S   UNL     1       3.970   6.984  17.691  0.00  0.00    +0.000 S 
ATOM      4  C   UNL     1       3.496   5.363  17.677  0.00  0.00    +0.000 A 
ATOM      5  C   UNL     1       4.541   4.503  17.397  0.00  0.00    +0.000 A 
ATOM      6  C   UNL     1       4.309   3.015  17.350  0.00  0.00    +0.000 C 
ATOM      7  C   UNL     1       2.822   2.668  17.175  0.00  0.00    +0.000 C 
ATOM      8  C   UNL     1       1.939   3.466  18.138  0.00  0.00    +0.000 C 
ATOM      9  C   UNL     1       2.067   4.976  17.905  0.00  0.00    +0.000 C 
ENDROOT
BRANCH   2  10
ATOM     10  N   UNL     1       6.544   7.606  17.220  0.00  0.00    +0.000 N 
ATOM     11  C   UNL     1       7.687   7.762  17.979  0.00  0.00    +0.000 C 
ATOM     12  O   UNL     1       8.083   7.045  18.886  0.00  0.00    +0.000 OA
ATOM     13  H   UNL     1       6.360   8.283  16.485  0.00  0.00    +0.000 HD
BRANCH  11  14
ATOM     14  C   UNL     1       8.543   8.942  17.649  0.00  0.00    +0.000 C 
ATOM     15  C   UNL     1       8.005  10.339  17.857  0.00  0.00    +0.000 C 
ATOM     16  C   UNL     1       9.211   9.879  18.622  0.00  0.00    +0.000 C 
ENDBRANCH  11  14
ENDBRANCH   2  10
BRANCH   1  17
ATOM     17  C   UNL     1       7.115   4.666  16.911  0.00  0.00    +0.000 C 
ATOM     18  O   UNL     1       7.777   4.045  17.741  0.00  0.00    +0.000 OA
BRANCH  17  20
ATOM     19  C   UNL     1       6.683   4.401  14.604  0.00  0.00    +0.000 C 
ATOM     20  O   UNL     1       7.531   4.908  15.637  0.00  0.00    +0.000 OA
ENDBRANCH  17  20
ENDBRANCH   1  17
TORSDOF 4
ENDMDL
MODEL 3
REMARK VINA RESULT:      -6.3      1.045      1.225
REMARK  Name = 
REMARK  5 active torsions:
REMARK  status: ('A' for Active; 'I' for Inactive)
REMARK    1  A    between atoms: C_1  and  O_2
REMARK    2  A    between atoms: O_2  and  C_3
REMARK    3  A    between atoms: C_3  and  C_5
REMARK    4  A    between atoms: C_6  and  N_7
REMARK    5  A    between atoms: C_8  and  C_10
REMARK                            x       y       z     vdW  Elec       q    Type
REMARK                         _______ _______ _______ _____ _____    ______ ____
ROOT
ATOM      1  C   UNL     1       4.324   4.087  18.637  0.00  0.00    +0.000 A 
ATOM      2  C   UNL     1       3.986   3.805  17.311  0.00  0.00    +0.000 A 
ATOM      3  S   UNL     1       2.447   3.103  17.172  0.00  0.00    +0.000 S 
ATOM      4  C   UNL     1       2.182   3.150  18.839  0.00  0.00    +0.000 A 
ATOM      5  C   UNL     1       3.251   3.683  19.535  0.00  0.00    +0.000 A 
ATOM      6  C   UNL     1       3.194   3.813  21.035  0.00  0.00    +0.000 C 
ATOM      7  C   UNL     1       2.114   2.908  21.652  0.00  0.00    +0.000 C 
ATOM      8  C   UNL     1       0.783   3.028  20.904  0.00  0.00    +0.000 C 
ATOM      9  C   UNL     1       0.919   2.610  19.435  0.00  0.00    +0.000 C 
ENDROOT
BRANCH   2  10
ATOM     10  N   UNL     1       4.763   4.042  16.180  0.00  0.00    +0.000 N 
ATOM     11  C   UNL     1       5.108   5.270  15.650  0.00  0.00    +0.000 C 
ATOM     12  O   UNL     1       4.811   6.376  16.078  0.00  0.00    +0.000 OA
ATOM     13  H   UNL     1       5.104   3.205  15.714  0.00  0.00    +0.000 HD
BRANCH  11  14
ATOM     14  C   UNL     1       5.944   5.243  14.412  0.00  0.00    +0.000 C 
ATOM     15  C   UNL     1       7.365   4.732  14.479  0.00  0.00    +0.000 C 
ATOM     16  C   UNL     1       6.354   4.029  13.620  0.00  0.00    +0.000 C 
ENDBRANCH  11  14
ENDBRANCH   2  10
BRANCH   1  17
ATOM     17  C   UNL     1       5.608   4.702  18.994  0.00  0.00    +0.000 C 
ATOM     18  O   UNL     1       5.691   5.721  19.678  0.00  0.00    +0.000 OA
BRANCH  17  20
ATOM     19  C   UNL     1       7.786   4.860  18.094  0.00  0.00    +0.000 C 
ATOM     20  O   UNL     1       6.685   4.038  18.488  0.00  0.00    +0.000 OA
ENDBRANCH  17  20
ENDBRANCH   1  17
TORSDOF 4
ENDMDL
MODEL 4
REMARK VINA RESULT:      -6.3      2.205      2.968
REMARK  Name = 
REMARK  5 active torsions:
REMARK  status: ('A' for Active; 'I' for Inactive)
REMARK    1  A    between atoms: C_1  and  O_2
REMARK    2  A    between atoms: O_2  and  C_3
REMARK    3  A    between atoms: C_3  and  C_5
REMARK    4  A    between atoms: C_6  and  N_7
REMARK    5  A    between atoms: C_8  and  C_10
REMARK                            x       y       z     vdW  Elec       q    Type
REMARK                         _______ _______ _______ _____ _____    ______ ____
ROOT
ATOM      1  C   UNL     1       3.898   4.580  18.515  0.00  0.00    +0.000 A 
ATOM      2  C   UNL     1       4.372   5.224  17.370  0.00  0.00    +0.000 A 
ATOM      3  S   UNL     1       3.830   6.829  17.260  0.00  0.00    +0.000 S 
ATOM      4  C   UNL     1       2.963   6.723  18.706  0.00  0.00    +0.000 A 
ATOM      5  C   UNL     1       3.054   5.475  19.293  0.00  0.00    +0.000 A 
ATOM      6  C   UNL     1       2.350   5.195  20.597  0.00  0.00    +0.000 C 
ATOM      7  C   UNL     1       1.237   6.216  20.883  0.00  0.00    +0.000 C 
ATOM      8  C   UNL     1       1.719   7.653  20.662  0.00  0.00    +0.000 C 
ATOM      9  C   UNL     1       2.164   7.884  19.213  0.00  0.00    +0.000 C 
ENDROOT
BRANCH   2  10
ATOM     10  N   UNL     1       5.196   4.685  16.386  0.00  0.00    +0.000 N 
ATOM     11  C   UNL     1       6.331   5.258  15.845  0.00  0.00    +0.000 C 
ATOM     12  O   UNL     1       6.833   6.334  16.137  0.00  0.00    +0.000 OA
ATOM     13  H   UNL     1       4.914   3.770  16.047  0.00  0.00    +0.000 HD
BRANCH  11  14
ATOM     14  C   UNL     1       7.028   4.470  14.785  0.00  0.00    +0.000 C 
ATOM     15  C   UNL     1       6.249   3.965  13.593  0.00  0.00    +0.000 C 
ATOM     16  C   UNL     1       7.380   4.932  13.394  0.00  0.00    +0.000 C 
ENDBRANCH  11  14
ENDBRANCH   2  10
BRANCH   1  17
ATOM     17  C   UNL     1       4.244   3.186  18.817  0.00  0.00    +0.000 C 
ATOM     18  O   UNL     1       4.898   2.862  19.808  0.00  0.00    +0.000 OA
BRANCH  17  20
ATOM     19  C   UNL     1       2.359   2.143  17.851  0.00  0.00    +0.000 C 
ATOM     20  O   UNL     1       3.779   2.300  17.894  0.00  0.00    +0.000 OA
ENDBRANCH  17  20
ENDBRANCH   1  17
TORSDOF 4
ENDMDL
MODEL 5
REMARK VINA RESULT:      -6.2      3.386      6.619
REMARK  Name = 
REMARK  5 active torsions:
REMARK  status: ('A' for Active; 'I' for Inactive)
REMARK    1  A    between atoms: C_1  and  O_2
REMARK    2  A    between atoms: O_2  and  C_3
REMARK    3  A    between atoms: C_3  and  C_5
REMARK    4  A    between atoms: C_6  and  N_7
REMARK    5  A    between atoms: C_8  and  C_10
REMARK                            x       y       z     vdW  Elec       q    Type
REMARK                         _______ _______ _______ _____ _____    ______ ____
ROOT
ATOM      1  C   UNL     1       3.472   4.845  18.735  0.00  0.00    +0.000 A 
ATOM      2  C   UNL     1       3.125   6.171  19.001  0.00  0.00    +0.000 A 
ATOM      3  S   UNL     1       3.729   7.244  17.832  0.00  0.00    +0.000 S 
ATOM      4  C   UNL     1       4.457   6.003  16.948  0.00  0.00    +0.000 A 
ATOM      5  C   UNL     1       4.272   4.759  17.521  0.00  0.00    +0.000 A 
ATOM      6  C   UNL     1       4.845   3.528  16.868  0.00  0.00    +0.000 C 
ATOM      7  C   UNL     1       5.961   3.871  15.868  0.00  0.00    +0.000 C 
ATOM      8  C   UNL     1       5.550   5.013  14.933  0.00  0.00    +0.000 C 
ATOM      9  C   UNL     1       5.246   6.299  15.710  0.00  0.00    +0.000 C 
ENDROOT
BRANCH   2  10
ATOM     10  N   UNL     1       2.376   6.641  20.077  0.00  0.00    +0.000 N 
ATOM     11  C   UNL     1       1.670   7.827  20.143  0.00  0.00    +0.000 C 
ATOM     12  O   UNL     1       1.557   8.676  19.271  0.00  0.00    +0.000 OA
ATOM     13  H   UNL     1       2.359   6.027  20.886  0.00  0.00    +0.000 HD
BRANCH  11  14
ATOM     14  C   UNL     1       0.958   8.101  21.428  0.00  0.00    +0.000 C 
ATOM     15  C   UNL     1       1.424   9.230  22.317  0.00  0.00    +0.000 C 
ATOM     16  C   UNL     1       0.043   9.260  21.729  0.00  0.00    +0.000 C 
ENDBRANCH  11  14
ENDBRANCH   2  10
BRANCH   1  17
ATOM     17  C   UNL     1       3.053   3.744  19.612  0.00  0.00    +0.000 C 
ATOM     18  O   UNL     1       3.845   2.927  20.078  0.00  0.00    +0.000 OA
BRANCH  17  20
ATOM     19  C   UNL     1       1.302   2.987  21.003  0.00  0.00    +0.000 C 
ATOM     20  O   UNL     1       1.713   3.720  19.847  0.00  0.00    +0.000 OA
ENDBRANCH  17  20
ENDBRANCH   1  17
TORSDOF 4
ENDMDL
MODEL 6
REMARK VINA RESULT:      -6.1      1.783      3.739
REMARK  Name = 
REMARK  5 active torsions:
REMARK  status: ('A' for Active; 'I' for Inactive)
REMARK    1  A    between atoms: C_1  and  O_2
REMARK    2  A    between atoms: O_2  and  C_3
REMARK    3  A    between atoms: C_3  and  C_5
REMARK    4  A    between atoms: C_6  and  N_7
REMARK    5  A    between atoms: C_8  and  C_10
REMARK                            x       y       z     vdW  Elec       q    Type
REMARK                         _______ _______ _______ _____ _____    ______ ____
ROOT
ATOM      1  C   UNL     1       4.198   4.447  17.506  0.00  0.00    +0.000 A 
ATOM      2  C   UNL     1       4.554   5.657  18.106  0.00  0.00    +0.000 A 
ATOM      3  S   UNL     1       3.553   6.046  19.421  0.00  0.00    +0.000 S 
ATOM      4  C   UNL     1       2.630   4.643  19.241  0.00  0.00    +0.000 A 
ATOM      5  C   UNL     1       3.048   3.861  18.180  0.00  0.00    +0.000 A 
ATOM      6  C   UNL     1       2.347   2.564  17.869  0.00  0.00    +0.000 C 
ATOM      7  C   UNL     1       0.950   2.495  18.508  0.00  0.00    +0.000 C 
ATOM      8  C   UNL     1       0.981   2.920  19.979  0.00  0.00    +0.000 C 
ATOM      9  C   UNL     1       1.467   4.364  20.142  0.00  0.00    +0.000 C 
ENDROOT
BRANCH   2  10
ATOM     10  N   UNL     1       5.594   6.504  17.731  0.00  0.00    +0.000 N 
ATOM     11  C   UNL     1       6.892   6.487  18.203  0.00  0.00    +0.000 C 
ATOM     12  O   UNL     1       7.377   5.720  19.023  0.00  0.00    +0.000 OA
ATOM     13  H   UNL     1       5.347   7.199  17.031  0.00  0.00    +0.000 HD
BRANCH  11  14
ATOM     14  C   UNL     1       7.812   7.522  17.642  0.00  0.00    +0.000 C 
ATOM     15  C   UNL     1       7.387   8.972  17.626  0.00  0.00    +0.000 C 
ATOM     16  C   UNL     1       8.595   8.554  18.414  0.00  0.00    +0.000 C 
ENDBRANCH  11  14
ENDBRANCH   2  10
BRANCH   1  17
ATOM     17  C   UNL     1       4.929   3.911  16.351  0.00  0.00    +0.000 C 
ATOM     18  O   UNL     1       5.338   2.752  16.303  0.00  0.00    +0.000 OA
BRANCH  17  20
ATOM     19  C   UNL     1       6.333   4.697  14.623  0.00  0.00    +0.000 C 
ATOM     20  O   UNL     1       5.113   4.822  15.356  0.00  0.00    +0.000 OA
ENDBRANCH  17  20
ENDBRANCH   1  17
TORSDOF 4
ENDMDL
MODEL 7
REMARK VINA RESULT:      -6.1      2.695      3.720
REMARK  Name = 
REMARK  5 active torsions:
REMARK  status: ('A' for Active; 'I' for Inactive)
REMARK    1  A    between atoms: C_1  and  O_2
REMARK    2  A    between atoms: O_2  and  C_3
REMARK    3  A    between atoms: C_3  and  C_5
REMARK    4  A    between atoms: C_6  and  N_7
REMARK    5  A    between atoms: C_8  and  C_10
REMARK                            x       y       z     vdW  Elec       q    Type
REMARK                         _______ _______ _______ _____ _____    ______ ____
ROOT
ATOM      1  C   UNL     1       3.267   5.640  18.477  0.00  0.00    +0.000 A 
ATOM      2  C   UNL     1       4.494   5.343  17.880  0.00  0.00    +0.000 A 
ATOM      3  S   UNL     1       4.716   3.676  17.651  0.00  0.00    +0.000 S 
ATOM      4  C   UNL     1       3.213   3.299  18.325  0.00  0.00    +0.000 A 
ATOM      5  C   UNL     1       2.521   4.419  18.747  0.00  0.00    +0.000 A 
ATOM      6  C   UNL     1       1.155   4.280  19.368  0.00  0.00    +0.000 C 
ATOM      7  C   UNL     1       0.892   2.850  19.868  0.00  0.00    +0.000 C 
ATOM      8  C   UNL     1       1.275   1.805  18.817  0.00  0.00    +0.000 C 
ATOM      9  C   UNL     1       2.764   1.877  18.462  0.00  0.00    +0.000 C 
ENDROOT
BRANCH   2  10
ATOM     10  N   UNL     1       5.477   6.250  17.488  0.00  0.00    +0.000 N 
ATOM     11  C   UNL     1       6.709   6.448  18.080  0.00  0.00    +0.000 C 
ATOM     12  O   UNL     1       7.176   5.858  19.044  0.00  0.00    +0.000 OA
ATOM     13  H   UNL     1       5.239   6.812  16.676  0.00  0.00    +0.000 HD
BRANCH  11  14
ATOM     14  C   UNL     1       7.575   7.500  17.467  0.00  0.00    +0.000 C 
ATOM     15  C   UNL     1       7.181   8.955  17.585  0.00  0.00    +0.000 C 
ATOM     16  C   UNL     1       8.468   8.475  18.191  0.00  0.00    +0.000 C 
ENDBRANCH  11  14
ENDBRANCH   2  10
BRANCH   1  17
ATOM     17  C   UNL     1       2.862   7.021  18.766  0.00  0.00    +0.000 C 
ATOM     18  O   UNL     1       2.486   7.385  19.879  0.00  0.00    +0.000 OA
BRANCH  17  20
ATOM     19  C   UNL     1       2.176   9.052  17.775  0.00  0.00    +0.000 C 
ATOM     20  O   UNL     1       2.936   7.845  17.684  0.00  0.00    +0.000 OA
ENDBRANCH  17  20
ENDBRANCH   1  17
TORSDOF 4
ENDMDL
MODEL 8
REMARK VINA RESULT:      -6.1      2.053      4.223
REMARK  Name = 
REMARK  5 active torsions:
REMARK  status: ('A' for Active; 'I' for Inactive)
REMARK    1  A    between atoms: C_1  and  O_2
REMARK    2  A    between atoms: O_2  and  C_3
REMARK    3  A    between atoms: C_3  and  C_5
REMARK    4  A    between atoms: C_6  and  N_7
REMARK    5  A    between atoms: C_8  and  C_10
REMARK                            x       y       z     vdW  Elec       q    Type
REMARK                         _______ _______ _______ _____ _____    ______ ____
ROOT
ATOM      1  C   UNL     1       5.284   4.704  17.086  0.00  0.00    +0.000 A 
ATOM      2  C   UNL     1       5.417   5.889  17.813  0.00  0.00    +0.000 A 
ATOM      3  S   UNL     1       4.331   5.973  19.116  0.00  0.00    +0.000 S 
ATOM      4  C   UNL     1       3.661   4.464  18.763  0.00  0.00    +0.000 A 
ATOM      5  C   UNL     1       4.231   3.872  17.652  0.00  0.00    +0.000 A 
ATOM      6  C   UNL     1       3.766   2.515  17.189  0.00  0.00    +0.000 C 
ATOM      7  C   UNL     1       2.384   2.154  17.758  0.00  0.00    +0.000 C 
ATOM      8  C   UNL     1       2.305   2.427  19.263  0.00  0.00    +0.000 C 
ATOM      9  C   UNL     1       2.537   3.908  19.583  0.00  0.00    +0.000 C 
ENDROOT
BRANCH   2  10
ATOM     10  N   UNL     1       6.309   6.929  17.565  0.00  0.00    +0.000 N 
ATOM     11  C   UNL     1       7.543   7.124  18.155  0.00  0.00    +0.000 C 
ATOM     12  O   UNL     1       8.089   6.418  18.991  0.00  0.00    +0.000 OA
ATOM     13  H   UNL     1       5.999   7.601  16.869  0.00  0.00    +0.000 HD
BRANCH  11  14
ATOM     14  C   UNL     1       8.299   8.336  17.718  0.00  0.00    +0.000 C 
ATOM     15  C   UNL     1       7.653   9.699  17.817  0.00  0.00    +0.000 C 
ATOM     16  C   UNL     1       8.898   9.400  18.602  0.00  0.00    +0.000 C 
ENDBRANCH  11  14
ENDBRANCH   2  10
BRANCH   1  17
ATOM     17  C   UNL     1       6.125   4.415  15.918  0.00  0.00    +0.000 C 
ATOM     18  O   UNL     1       7.352   4.355  15.980  0.00  0.00    +0.000 OA
BRANCH  17  20
ATOM     19  C   UNL     1       6.177   3.839  13.629  0.00  0.00    +0.000 C 
ATOM     20  O   UNL     1       5.414   4.230  14.772  0.00  0.00    +0.000 OA
ENDBRANCH  17  20
ENDBRANCH   1  17
TORSDOF 4
ENDMDL
MODEL 9
REMARK VINA RESULT:      -6.1      4.260      6.624
REMARK  Name = 
REMARK  5 active torsions:
REMARK  status: ('A' for Active; 'I' for Inactive)
REMARK    1  A    between atoms: C_1  and  O_2
REMARK    2  A    between atoms: O_2  and  C_3
REMARK    3  A    between atoms: C_3  and  C_5
REMARK    4  A    between atoms: C_6  and  N_7
REMARK    5  A    between atoms: C_8  and  C_10
REMARK                            x       y       z     vdW  Elec       q    Type
REMARK                         _______ _______ _______ _____ _____    ______ ____
ROOT
ATOM      1  C   UNL     1       2.584   6.187  18.914  0.00  0.00    +0.000 A 
ATOM      2  C   UNL     1       2.212   6.389  20.245  0.00  0.00    +0.000 A 
ATOM      3  S   UNL     1       1.982   4.929  21.080  0.00  0.00    +0.000 S 
ATOM      4  C   UNL     1       2.365   3.997  19.725  0.00  0.00    +0.000 A 
ATOM      5  C   UNL     1       2.660   4.764  18.614  0.00  0.00    +0.000 A 
ATOM      6  C   UNL     1       3.034   4.105  17.311  0.00  0.00    +0.000 C 
ATOM      7  C   UNL     1       2.596   2.633  17.263  0.00  0.00    +0.000 C 
ATOM      8  C   UNL     1       2.985   1.886  18.543  0.00  0.00    +0.000 C 
ATOM      9  C   UNL     1       2.322   2.501  19.781  0.00  0.00    +0.000 C 
ENDROOT
BRANCH   2  10
ATOM     10  N   UNL     1       2.029   7.611  20.888  0.00  0.00    +0.000 N 
ATOM     11  C   UNL     1       0.833   8.157  21.309  0.00  0.00    +0.000 C 
ATOM     12  O   UNL     1      -0.285   7.670  21.213  0.00  0.00    +0.000 OA
ATOM     13  H   UNL     1       2.882   8.136  21.056  0.00  0.00    +0.000 HD
BRANCH  11  14
ATOM     14  C   UNL     1       0.913   9.498  21.964  0.00  0.00    +0.000 C 
ATOM     15  C   UNL     1       0.371  10.714  21.249  0.00  0.00    +0.000 C 
ATOM     16  C   UNL     1      -0.224  10.287  22.560  0.00  0.00    +0.000 C 
ENDBRANCH  11  14
ENDBRANCH   2  10
BRANCH   1  17
ATOM     17  C   UNL     1       2.840   7.310  18.003  0.00  0.00    +0.000 C 
ATOM     18  O   UNL     1       3.934   7.502  17.474  0.00  0.00    +0.000 OA
BRANCH  17  20
ATOM     19  C   UNL     1       2.008   9.517  17.880  0.00  0.00    +0.000 C 
ATOM     20  O   UNL     1       1.756   8.112  17.814  0.00  0.00    +0.000 OA
ENDBRANCH  17  20
ENDBRANCH   1  17
TORSDOF 4
ENDMDL
