MODEL 1
REMARK VINA RESULT:      -8.5      0.000      0.000
REMARK  Name = 
REMARK  9 active torsions:
REMARK  status: ('A' for Active; 'I' for Inactive)
REMARK    1  A    between atoms: C_1  and  C_2
REMARK    2  A    between atoms: C_2  and  N_3
REMARK    3  A    between atoms: C_4  and  C_5
REMARK    4  A    between atoms: C_6  and  C_7
REMARK    5  A    between atoms: N_9  and  C_10
REMARK    6  A    between atoms: C_17  and  C_18
REMARK    7  A    between atoms: C_17  and  C_19
REMARK    8  A    between atoms: N_20  and  C_21
REMARK    9  A    between atoms: C_21  and  C_22
REMARK                            x       y       z     vdW  Elec       q    Type
REMARK                         _______ _______ _______ _____ _____    ______ ____
ROOT
ATOM      1  N   UNL     1       4.529   5.671  16.611  0.00  0.00    +0.000 N 
ATOM      2  C   UNL     1       4.714   6.738  17.429  0.00  0.00    +0.000 A 
ATOM      3  N   UNL     1       5.249   6.139  18.534  0.00  0.00    +0.000 N 
ATOM      4  C   UNL     1       4.255   5.227  18.778  0.00  0.00    +0.000 A 
ATOM      5  N   UNL     1       3.846   4.751  19.972  0.00  0.00    +0.000 NA
ATOM      6  C   UNL     1       2.796   3.964  19.880  0.00  0.00    +0.000 A 
ATOM      7  C   UNL     1       2.250   3.602  21.096  0.00  0.00    +0.000 A 
ATOM      8  C   UNL     1       1.063   2.885  21.173  0.00  0.00    +0.000 A 
ATOM      9  C   UNL     1       0.465   2.482  19.978  0.00  0.00    +0.000 A 
ATOM     10  C   UNL     1       1.058   2.809  18.732  0.00  0.00    +0.000 A 
ATOM     11  C   UNL     1       2.230   3.541  18.613  0.00  0.00    +0.000 A 
ATOM     12  N   UNL     1       2.768   3.922  17.356  0.00  0.00    +0.000 NA
ATOM     13  C   UNL     1       3.810   4.819  17.504  0.00  0.00    +0.000 A 
ENDROOT
BRANCH   1  15
ATOM     14  C   UNL     1       6.003   4.152  15.258  0.00  0.00    +0.000 C 
ATOM     15  C   UNL     1       5.370   5.509  15.434  0.00  0.00    +0.000 C 
ENDBRANCH   1  15
BRANCH   2  16
ATOM     16  C   UNL     1       3.763   7.926  17.310  0.00  0.00    +0.000 C 
ATOM     17  C   UNL     1       2.619   7.987  18.008  0.00  0.00    +0.000 C 
BRANCH  17  18
ATOM     18  C   UNL     1       1.600   9.029  18.012  0.00  0.00    +0.000 C 
ATOM     19  C   UNL     1       1.054   9.524  19.148  0.00  0.00    +0.000 C 
ATOM     20  N   UNL     1       1.193   8.923  20.442  0.00  0.00    +0.000 N 
ATOM     21  C   UNL     1       2.490   9.138  21.157  0.00  0.00    +0.000 C 
ATOM     22  C   UNL     1       0.210   9.549  21.272  0.00  0.00    +0.000 A 
ATOM     23  C   UNL     1      -0.453   9.078  22.380  0.00  0.00    +0.000 A 
ATOM     24  C   UNL     1      -1.192  10.002  23.125  0.00  0.00    +0.000 A 
ATOM     25  C   UNL     1      -1.114  11.371  22.825  0.00  0.00    +0.000 A 
ATOM     26  C   UNL     1      -0.584  11.782  21.606  0.00  0.00    +0.000 A 
ATOM     27  C   UNL     1      -0.142  10.789  20.760  0.00  0.00    +0.000 A 
ATOM     28  C   UNL     1      -0.010  10.677  19.254  0.00  0.00    +0.000 C 
ATOM     29  C   UNL     1       0.190  12.053  18.617  0.00  0.00    +0.000 C 
ATOM     30  C   UNL     1      -1.352  10.089  18.735  0.00  0.00    +0.000 C 
ENDBRANCH  17  18
ENDBRANCH   2  16
BRANCH   3  31
ATOM     31  C   UNL     1       6.597   5.651  18.858  0.00  0.00    +0.000 C 
ATOM     32  C   UNL     1       7.761   6.516  18.469  0.00  0.00    +0.000 C 
ENDBRANCH   3  31
TORSDOF 4
ENDMDL
MODEL 2
REMARK VINA RESULT:      -8.4      1.567      4.517
REMARK  Name = 
REMARK  9 active torsions:
REMARK  status: ('A' for Active; 'I' for Inactive)
REMARK    1  A    between atoms: C_1  and  C_2
REMARK    2  A    between atoms: C_2  and  N_3
REMARK    3  A    between atoms: C_4  and  C_5
REMARK    4  A    between atoms: C_6  and  C_7
REMARK    5  A    between atoms: N_9  and  C_10
REMARK    6  A    between atoms: C_17  and  C_18
REMARK    7  A    between atoms: C_17  and  C_19
REMARK    8  A    between atoms: N_20  and  C_21
REMARK    9  A    between atoms: C_21  and  C_22
REMARK                            x       y       z     vdW  Elec       q    Type
REMARK                         _______ _______ _______ _____ _____    ______ ____
ROOT
ATOM      1  N   UNL     1       5.788   5.517  18.001  0.00  0.00    +0.000 N 
ATOM      2  C   UNL     1       4.440   5.539  17.843  0.00  0.00    +0.000 A 
ATOM      3  N   UNL     1       4.211   4.292  17.332  0.00  0.00    +0.000 N 
ATOM      4  C   UNL     1       5.049   4.353  16.250  0.00  0.00    +0.000 A 
ATOM      5  N   UNL     1       4.890   3.763  15.047  0.00  0.00    +0.000 NA
ATOM      6  C   UNL     1       5.821   4.100  14.181  0.00  0.00    +0.000 A 
ATOM      7  C   UNL     1       5.588   3.652  12.896  0.00  0.00    +0.000 A 
ATOM      8  C   UNL     1       6.403   4.032  11.837  0.00  0.00    +0.000 A 
ATOM      9  C   UNL     1       7.509   4.835  12.120  0.00  0.00    +0.000 A 
ATOM     10  C   UNL     1       7.776   5.248  13.450  0.00  0.00    +0.000 A 
ATOM     11  C   UNL     1       6.974   4.908  14.530  0.00  0.00    +0.000 A 
ATOM     12  N   UNL     1       7.215   5.393  15.842  0.00  0.00    +0.000 NA
ATOM     13  C   UNL     1       6.167   5.091  16.691  0.00  0.00    +0.000 A 
ENDROOT
BRANCH   1  15
ATOM     14  C   UNL     1       7.819   5.818  19.449  0.00  0.00    +0.000 C 
ATOM     15  C   UNL     1       6.357   5.468  19.341  0.00  0.00    +0.000 C 
ENDBRANCH   1  15
BRANCH   2  16
ATOM     16  C   UNL     1       3.759   6.871  17.544  0.00  0.00    +0.000 C 
ATOM     17  C   UNL     1       2.762   7.342  18.309  0.00  0.00    +0.000 C 
BRANCH  17  18
ATOM     18  C   UNL     1       2.001   8.576  18.169  0.00  0.00    +0.000 C 
ATOM     19  C   UNL     1       1.416   9.207  19.215  0.00  0.00    +0.000 C 
ATOM     20  N   UNL     1       1.235   8.625  20.513  0.00  0.00    +0.000 N 
ATOM     21  C   UNL     1       2.432   8.577  21.411  0.00  0.00    +0.000 C 
ATOM     22  C   UNL     1       0.301   9.467  21.193  0.00  0.00    +0.000 A 
ATOM     23  C   UNL     1      -0.600   9.178  22.190  0.00  0.00    +0.000 A 
ATOM     24  C   UNL     1      -1.224  10.258  22.823  0.00  0.00    +0.000 A 
ATOM     25  C   UNL     1      -0.812  11.571  22.544  0.00  0.00    +0.000 A 
ATOM     26  C   UNL     1      -0.036  11.826  21.418  0.00  0.00    +0.000 A 
ATOM     27  C   UNL     1       0.300  10.740  20.641  0.00  0.00    +0.000 A 
ATOM     28  C   UNL     1       0.620  10.561  19.170  0.00  0.00    +0.000 C 
ATOM     29  C   UNL     1       1.200  11.846  18.575  0.00  0.00    +0.000 C 
ATOM     30  C   UNL     1      -0.728  10.259  18.457  0.00  0.00    +0.000 C 
ENDBRANCH  17  18
ENDBRANCH   2  16
BRANCH   3  31
ATOM     31  C   UNL     1       4.122   2.958  17.943  0.00  0.00    +0.000 C 
ATOM     32  C   UNL     1       2.822   2.220  17.812  0.00  0.00    +0.000 C 
ENDBRANCH   3  31
TORSDOF 4
ENDMDL
MODEL 3
REMARK VINA RESULT:      -8.1      1.421      4.214
REMARK  Name = 
REMARK  9 active torsions:
REMARK  status: ('A' for Active; 'I' for Inactive)
REMARK    1  A    between atoms: C_1  and  C_2
REMARK    2  A    between atoms: C_2  and  N_3
REMARK    3  A    between atoms: C_4  and  C_5
REMARK    4  A    between atoms: C_6  and  C_7
REMARK    5  A    between atoms: N_9  and  C_10
REMARK    6  A    between atoms: C_17  and  C_18
REMARK    7  A    between atoms: C_17  and  C_19
REMARK    8  A    between atoms: N_20  and  C_21
REMARK    9  A    between atoms: C_21  and  C_22
REMARK                            x       y       z     vdW  Elec       q    Type
REMARK                         _______ _______ _______ _____ _____    ______ ____
ROOT
ATOM      1  N   UNL     1       2.965   5.239  20.149  0.00  0.00    +0.000 N 
ATOM      2  C   UNL     1       2.143   5.944  19.331  0.00  0.00    +0.000 A 
ATOM      3  N   UNL     1       1.953   5.053  18.312  0.00  0.00    +0.000 N 
ATOM      4  C   UNL     1       3.264   4.836  17.978  0.00  0.00    +0.000 A 
ATOM      5  N   UNL     1       3.773   4.568  16.757  0.00  0.00    +0.000 NA
ATOM      6  C   UNL     1       5.087   4.514  16.748  0.00  0.00    +0.000 A 
ATOM      7  C   UNL     1       5.641   4.415  15.486  0.00  0.00    +0.000 A 
ATOM      8  C   UNL     1       7.015   4.481  15.290  0.00  0.00    +0.000 A 
ATOM      9  C   UNL     1       7.830   4.589  16.418  0.00  0.00    +0.000 A 
ATOM     10  C   UNL     1       7.260   4.636  17.715  0.00  0.00    +0.000 A 
ATOM     11  C   UNL     1       5.893   4.594  17.951  0.00  0.00    +0.000 A 
ATOM     12  N   UNL     1       5.338   4.717  19.251  0.00  0.00    +0.000 NA
ATOM     13  C   UNL     1       3.964   4.861  19.202  0.00  0.00    +0.000 A 
ENDROOT
BRANCH   1  15
ATOM     14  C   UNL     1       2.392   3.238  21.557  0.00  0.00    +0.000 C 
ATOM     15  C   UNL     1       2.461   4.738  21.421  0.00  0.00    +0.000 C 
ENDBRANCH   1  15
BRANCH   2  16
ATOM     16  C   UNL     1       2.260   7.464  19.306  0.00  0.00    +0.000 C 
ATOM     17  C   UNL     1       1.384   8.230  18.638  0.00  0.00    +0.000 C 
BRANCH  17  18
ATOM     18  C   UNL     1       1.349   9.680  18.502  0.00  0.00    +0.000 C 
ATOM     19  C   UNL     1       0.932  10.506  19.491  0.00  0.00    +0.000 C 
ATOM     20  N   UNL     1       0.234  10.073  20.666  0.00  0.00    +0.000 N 
ATOM     21  C   UNL     1       1.049   9.440  21.749  0.00  0.00    +0.000 C 
ATOM     22  C   UNL     1      -0.306  11.257  21.259  0.00  0.00    +0.000 A 
ATOM     23  C   UNL     1      -1.420  11.434  22.045  0.00  0.00    +0.000 A 
ATOM     24  C   UNL     1      -1.570  12.675  22.673  0.00  0.00    +0.000 A 
ATOM     25  C   UNL     1      -0.536  13.623  22.615  0.00  0.00    +0.000 A 
ATOM     26  C   UNL     1       0.481  13.479  21.677  0.00  0.00    +0.000 A 
ATOM     27  C   UNL     1       0.412  12.374  20.858  0.00  0.00    +0.000 A 
ATOM     28  C   UNL     1       0.904  12.077  19.455  0.00  0.00    +0.000 C 
ATOM     29  C   UNL     1       2.134  12.922  19.115  0.00  0.00    +0.000 C 
ATOM     30  C   UNL     1      -0.245  12.477  18.488  0.00  0.00    +0.000 C 
ENDBRANCH  17  18
ENDBRANCH   2  16
BRANCH   3  31
ATOM     31  C   UNL     1       1.096   3.868  18.161  0.00  0.00    +0.000 C 
ATOM     32  C   UNL     1       1.760   2.522  18.194  0.00  0.00    +0.000 C 
ENDBRANCH   3  31
TORSDOF 4
ENDMDL
MODEL 4
REMARK VINA RESULT:      -7.9      2.424      8.639
REMARK  Name = 
REMARK  9 active torsions:
REMARK  status: ('A' for Active; 'I' for Inactive)
REMARK    1  A    between atoms: C_1  and  C_2
REMARK    2  A    between atoms: C_2  and  N_3
REMARK    3  A    between atoms: C_4  and  C_5
REMARK    4  A    between atoms: C_6  and  C_7
REMARK    5  A    between atoms: N_9  and  C_10
REMARK    6  A    between atoms: C_17  and  C_18
REMARK    7  A    between atoms: C_17  and  C_19
REMARK    8  A    between atoms: N_20  and  C_21
REMARK    9  A    between atoms: C_21  and  C_22
REMARK                            x       y       z     vdW  Elec       q    Type
REMARK                         _______ _______ _______ _____ _____    ______ ____
ROOT
ATOM      1  N   UNL     1      -0.399  10.839  18.612  0.00  0.00    +0.000 N 
ATOM      2  C   UNL     1       0.399   9.909  19.197  0.00  0.00    +0.000 A 
ATOM      3  N   UNL     1       0.477  10.389  20.474  0.00  0.00    +0.000 N 
ATOM      4  C   UNL     1       0.946  11.646  20.196  0.00  0.00    +0.000 A 
ATOM      5  N   UNL     1       1.772  12.404  20.947  0.00  0.00    +0.000 NA
ATOM      6  C   UNL     1       2.122  13.525  20.354  0.00  0.00    +0.000 A 
ATOM      7  C   UNL     1       3.100  14.237  21.020  0.00  0.00    +0.000 A 
ATOM      8  C   UNL     1       3.676  15.373  20.465  0.00  0.00    +0.000 A 
ATOM      9  C   UNL     1       3.191  15.814  19.233  0.00  0.00    +0.000 A 
ATOM     10  C   UNL     1       2.148  15.112  18.577  0.00  0.00    +0.000 A 
ATOM     11  C   UNL     1       1.563  13.962  19.089  0.00  0.00    +0.000 A 
ATOM     12  N   UNL     1       0.573  13.231  18.383  0.00  0.00    +0.000 NA
ATOM     13  C   UNL     1       0.306  12.021  18.997  0.00  0.00    +0.000 A 
ENDROOT
BRANCH   1  15
ATOM     14  C   UNL     1      -1.944   9.971  16.833  0.00  0.00    +0.000 C 
ATOM     15  C   UNL     1      -1.761  10.489  18.237  0.00  0.00    +0.000 C 
ENDBRANCH   1  15
BRANCH   2  16
ATOM     16  C   UNL     1       1.443   9.197  18.342  0.00  0.00    +0.000 C 
ATOM     17  C   UNL     1       2.195   8.200  18.831  0.00  0.00    +0.000 C 
BRANCH  17  18
ATOM     18  C   UNL     1       3.233   7.422  18.167  0.00  0.00    +0.000 C 
ATOM     19  C   UNL     1       3.346   6.079  18.295  0.00  0.00    +0.000 C 
ATOM     20  N   UNL     1       2.658   5.299  19.282  0.00  0.00    +0.000 N 
ATOM     21  C   UNL     1       1.215   4.998  19.028  0.00  0.00    +0.000 C 
ATOM     22  C   UNL     1       3.302   4.022  19.292  0.00  0.00    +0.000 A 
ATOM     23  C   UNL     1       3.435   3.096  20.299  0.00  0.00    +0.000 A 
ATOM     24  C   UNL     1       3.919   1.832  19.947  0.00  0.00    +0.000 A 
ATOM     25  C   UNL     1       4.102   1.499  18.596  0.00  0.00    +0.000 A 
ATOM     26  C   UNL     1       4.128   2.504  17.635  0.00  0.00    +0.000 A 
ATOM     27  C   UNL     1       3.949   3.793  18.086  0.00  0.00    +0.000 A 
ATOM     28  C   UNL     1       4.398   5.152  17.584  0.00  0.00    +0.000 C 
ATOM     29  C   UNL     1       4.600   5.137  16.067  0.00  0.00    +0.000 C 
ATOM     30  C   UNL     1       5.769   5.441  18.256  0.00  0.00    +0.000 C 
ENDBRANCH  17  18
ENDBRANCH   2  16
BRANCH   3  31
ATOM     31  C   UNL     1      -0.437  10.335  21.624  0.00  0.00    +0.000 C 
ATOM     32  C   UNL     1      -0.133   9.342  22.708  0.00  0.00    +0.000 C 
ENDBRANCH   3  31
TORSDOF 4
ENDMDL
MODEL 5
REMARK VINA RESULT:      -7.8      1.561      4.865
REMARK  Name = 
REMARK  9 active torsions:
REMARK  status: ('A' for Active; 'I' for Inactive)
REMARK    1  A    between atoms: C_1  and  C_2
REMARK    2  A    between atoms: C_2  and  N_3
REMARK    3  A    between atoms: C_4  and  C_5
REMARK    4  A    between atoms: C_6  and  C_7
REMARK    5  A    between atoms: N_9  and  C_10
REMARK    6  A    between atoms: C_17  and  C_18
REMARK    7  A    between atoms: C_17  and  C_19
REMARK    8  A    between atoms: N_20  and  C_21
REMARK    9  A    between atoms: C_21  and  C_22
REMARK                            x       y       z     vdW  Elec       q    Type
REMARK                         _______ _______ _______ _____ _____    ______ ____
ROOT
ATOM      1  N   UNL     1       3.109   3.934  20.332  0.00  0.00    +0.000 N 
ATOM      2  C   UNL     1       2.145   4.768  19.866  0.00  0.00    +0.000 A 
ATOM      3  N   UNL     1       2.346   4.680  18.518  0.00  0.00    +0.000 N 
ATOM      4  C   UNL     1       3.668   5.040  18.480  0.00  0.00    +0.000 A 
ATOM      5  N   UNL     1       4.314   5.713  17.506  0.00  0.00    +0.000 NA
ATOM      6  C   UNL     1       5.561   5.996  17.816  0.00  0.00    +0.000 A 
ATOM      7  C   UNL     1       6.193   6.832  16.915  0.00  0.00    +0.000 A 
ATOM      8  C   UNL     1       7.465   7.334  17.162  0.00  0.00    +0.000 A 
ATOM      9  C   UNL     1       8.117   6.918  18.323  0.00  0.00    +0.000 A 
ATOM     10  C   UNL     1       7.486   6.017  19.218  0.00  0.00    +0.000 A 
ATOM     11  C   UNL     1       6.209   5.510  19.018  0.00  0.00    +0.000 A 
ATOM     12  N   UNL     1       5.566   4.668  19.962  0.00  0.00    +0.000 NA
ATOM     13  C   UNL     1       4.235   4.475  19.641  0.00  0.00    +0.000 A 
ENDROOT
BRANCH   1  15
ATOM     14  C   UNL     1       1.420   2.626  21.654  0.00  0.00    +0.000 C 
ATOM     15  C   UNL     1       2.735   2.654  20.918  0.00  0.00    +0.000 C 
ENDBRANCH   1  15
BRANCH   2  16
ATOM     16  C   UNL     1       1.721   5.952  20.729  0.00  0.00    +0.000 C 
ATOM     17  C   UNL     1       1.294   7.103  20.187  0.00  0.00    +0.000 C 
BRANCH  17  18
ATOM     18  C   UNL     1       0.861   8.326  20.852  0.00  0.00    +0.000 C 
ATOM     19  C   UNL     1       0.831   9.531  20.235  0.00  0.00    +0.000 C 
ATOM     20  N   UNL     1       1.458   9.813  18.977  0.00  0.00    +0.000 N 
ATOM     21  C   UNL     1       0.755   9.338  17.744  0.00  0.00    +0.000 C 
ATOM     22  C   UNL     1       1.480  11.238  18.860  0.00  0.00    +0.000 A 
ATOM     23  C   UNL     1       2.346  12.065  18.185  0.00  0.00    +0.000 A 
ATOM     24  C   UNL     1       1.981  13.410  18.060  0.00  0.00    +0.000 A 
ATOM     25  C   UNL     1       0.709  13.835  18.476  0.00  0.00    +0.000 A 
ATOM     26  C   UNL     1      -0.055  13.020  19.304  0.00  0.00    +0.000 A 
ATOM     27  C   UNL     1       0.496  11.807  19.654  0.00  0.00    +0.000 A 
ATOM     28  C   UNL     1       0.338  10.890  20.851  0.00  0.00    +0.000 C 
ATOM     29  C   UNL     1      -1.041  11.059  21.493  0.00  0.00    +0.000 C 
ATOM     30  C   UNL     1       1.413  11.324  21.886  0.00  0.00    +0.000 C 
ENDBRANCH  17  18
ENDBRANCH   2  16
BRANCH   3  31
ATOM     31  C   UNL     1       1.973   3.678  17.510  0.00  0.00    +0.000 C 
ATOM     32  C   UNL     1       2.924   2.539  17.278  0.00  0.00    +0.000 C 
ENDBRANCH   3  31
TORSDOF 4
ENDMDL
MODEL 6
REMARK VINA RESULT:      -7.5      2.290      8.412
REMARK  Name = 
REMARK  9 active torsions:
REMARK  status: ('A' for Active; 'I' for Inactive)
REMARK    1  A    between atoms: C_1  and  C_2
REMARK    2  A    between atoms: C_2  and  N_3
REMARK    3  A    between atoms: C_4  and  C_5
REMARK    4  A    between atoms: C_6  and  C_7
REMARK    5  A    between atoms: N_9  and  C_10
REMARK    6  A    between atoms: C_17  and  C_18
REMARK    7  A    between atoms: C_17  and  C_19
REMARK    8  A    between atoms: N_20  and  C_21
REMARK    9  A    between atoms: C_21  and  C_22
REMARK                            x       y       z     vdW  Elec       q    Type
REMARK                         _______ _______ _______ _____ _____    ______ ____
ROOT
ATOM      1  N   UNL     1      -0.023  11.467  20.885  0.00  0.00    +0.000 N 
ATOM      2  C   UNL     1       0.738  10.463  20.379  0.00  0.00    +0.000 A 
ATOM      3  N   UNL     1       0.986  10.926  19.118  0.00  0.00    +0.000 N 
ATOM      4  C   UNL     1      -0.308  11.107  18.704  0.00  0.00    +0.000 A 
ATOM      5  N   UNL     1      -0.803  10.969  17.457  0.00  0.00    +0.000 NA
ATOM      6  C   UNL     1      -2.110  11.110  17.404  0.00  0.00    +0.000 A 
ATOM      7  C   UNL     1      -2.664  10.803  16.177  0.00  0.00    +0.000 A 
ATOM      8  C   UNL     1      -4.040  10.772  15.990  0.00  0.00    +0.000 A 
ATOM      9  C   UNL     1      -4.853  11.124  17.068  0.00  0.00    +0.000 A 
ATOM     10  C   UNL     1      -4.279  11.492  18.312  0.00  0.00    +0.000 A 
ATOM     11  C   UNL     1      -2.911  11.514  18.544  0.00  0.00    +0.000 A 
ATOM     12  N   UNL     1      -2.358  11.812  19.816  0.00  0.00    +0.000 NA
ATOM     13  C   UNL     1      -0.998  11.561  19.846  0.00  0.00    +0.000 A 
ENDROOT
BRANCH   1  15
ATOM     14  C   UNL     1       0.402  13.821  21.651  0.00  0.00    +0.000 C 
ATOM     15  C   UNL     1       0.525  12.341  21.912  0.00  0.00    +0.000 C 
ENDBRANCH   1  15
BRANCH   2  16
ATOM     16  C   UNL     1       0.507   9.042  20.884  0.00  0.00    +0.000 C 
ATOM     17  C   UNL     1       1.329   8.033  20.555  0.00  0.00    +0.000 C 
BRANCH  17  18
ATOM     18  C   UNL     1       1.257   6.629  20.936  0.00  0.00    +0.000 C 
ATOM     19  C   UNL     1       1.843   5.638  20.221  0.00  0.00    +0.000 C 
ATOM     20  N   UNL     1       2.360   5.795  18.894  0.00  0.00    +0.000 N 
ATOM     21  C   UNL     1       3.689   6.469  18.756  0.00  0.00    +0.000 C 
ATOM     22  C   UNL     1       2.568   4.471  18.395  0.00  0.00    +0.000 A 
ATOM     23  C   UNL     1       2.552   3.989  17.108  0.00  0.00    +0.000 A 
ATOM     24  C   UNL     1       3.020   2.686  16.906  0.00  0.00    +0.000 A 
ATOM     25  C   UNL     1       3.622   1.983  17.962  0.00  0.00    +0.000 A 
ATOM     26  C   UNL     1       3.459   2.428  19.270  0.00  0.00    +0.000 A 
ATOM     27  C   UNL     1       2.713   3.573  19.443  0.00  0.00    +0.000 A 
ATOM     28  C   UNL     1       1.860   4.107  20.577  0.00  0.00    +0.000 C 
ATOM     29  C   UNL     1       2.346   3.573  21.926  0.00  0.00    +0.000 C 
ATOM     30  C   UNL     1       0.419   3.579  20.333  0.00  0.00    +0.000 C 
ENDBRANCH  17  18
ENDBRANCH   2  16
BRANCH   3  31
ATOM     31  C   UNL     1       1.928  11.918  18.580  0.00  0.00    +0.000 C 
ATOM     32  C   UNL     1       1.398  13.292  18.288  0.00  0.00    +0.000 C 
ENDBRANCH   3  31
TORSDOF 4
ENDMDL
MODEL 7
REMARK VINA RESULT:      -7.4      1.565      4.379
REMARK  Name = 
REMARK  9 active torsions:
REMARK  status: ('A' for Active; 'I' for Inactive)
REMARK    1  A    between atoms: C_1  and  C_2
REMARK    2  A    between atoms: C_2  and  N_3
REMARK    3  A    between atoms: C_4  and  C_5
REMARK    4  A    between atoms: C_6  and  C_7
REMARK    5  A    between atoms: N_9  and  C_10
REMARK    6  A    between atoms: C_17  and  C_18
REMARK    7  A    between atoms: C_17  and  C_19
REMARK    8  A    between atoms: N_20  and  C_21
REMARK    9  A    between atoms: C_21  and  C_22
REMARK                            x       y       z     vdW  Elec       q    Type
REMARK                         _______ _______ _______ _____ _____    ______ ____
ROOT
ATOM      1  N   UNL     1       2.920   5.006  20.276  0.00  0.00    +0.000 N 
ATOM      2  C   UNL     1       2.141   5.844  19.545  0.00  0.00    +0.000 A 
ATOM      3  N   UNL     1       1.935   5.101  18.417  0.00  0.00    +0.000 N 
ATOM      4  C   UNL     1       3.243   4.876  18.074  0.00  0.00    +0.000 A 
ATOM      5  N   UNL     1       3.762   4.748  16.836  0.00  0.00    +0.000 NA
ATOM      6  C   UNL     1       5.073   4.643  16.836  0.00  0.00    +0.000 A 
ATOM      7  C   UNL     1       5.645   4.685  15.580  0.00  0.00    +0.000 A 
ATOM      8  C   UNL     1       7.024   4.720  15.411  0.00  0.00    +0.000 A 
ATOM      9  C   UNL     1       7.823   4.648  16.553  0.00  0.00    +0.000 A 
ATOM     10  C   UNL     1       7.232   4.549  17.839  0.00  0.00    +0.000 A 
ATOM     11  C   UNL     1       5.860   4.533  18.050  0.00  0.00    +0.000 A 
ATOM     12  N   UNL     1       5.288   4.509  19.347  0.00  0.00    +0.000 NA
ATOM     13  C   UNL     1       3.921   4.714  19.300  0.00  0.00    +0.000 A 
ENDROOT
BRANCH   1  15
ATOM     14  C   UNL     1       2.486   2.864  21.513  0.00  0.00    +0.000 C 
ATOM     15  C   UNL     1       2.375   4.366  21.465  0.00  0.00    +0.000 C 
ENDBRANCH   1  15
BRANCH   2  16
ATOM     16  C   UNL     1       2.318   7.349  19.720  0.00  0.00    +0.000 C 
ATOM     17  C   UNL     1       1.903   8.222  18.790  0.00  0.00    +0.000 C 
BRANCH  17  18
ATOM     18  C   UNL     1       1.996   9.676  18.788  0.00  0.00    +0.000 C 
ATOM     19  C   UNL     1       1.036  10.479  19.304  0.00  0.00    +0.000 C 
ATOM     20  N   UNL     1      -0.281  10.040  19.660  0.00  0.00    +0.000 N 
ATOM     21  C   UNL     1      -0.426   9.298  20.952  0.00  0.00    +0.000 C 
ATOM     22  C   UNL     1      -1.058  11.229  19.833  0.00  0.00    +0.000 A 
ATOM     23  C   UNL     1      -2.405  11.446  19.676  0.00  0.00    +0.000 A 
ATOM     24  C   UNL     1      -2.918  12.662  20.140  0.00  0.00    +0.000 A 
ATOM     25  C   UNL     1      -2.099  13.536  20.873  0.00  0.00    +0.000 A 
ATOM     26  C   UNL     1      -0.719  13.367  20.856  0.00  0.00    +0.000 A 
ATOM     27  C   UNL     1      -0.236  12.311  20.115  0.00  0.00    +0.000 A 
ATOM     28  C   UNL     1       1.070  12.049  19.390  0.00  0.00    +0.000 C 
ATOM     29  C   UNL     1       2.221  12.820  20.039  0.00  0.00    +0.000 C 
ATOM     30  C   UNL     1       0.885  12.576  17.940  0.00  0.00    +0.000 C 
ENDBRANCH  17  18
ENDBRANCH   2  16
BRANCH   3  31
ATOM     31  C   UNL     1       1.036   3.982  18.102  0.00  0.00    +0.000 C 
ATOM     32  C   UNL     1       1.607   2.595  18.160  0.00  0.00    +0.000 C 
ENDBRANCH   3  31
TORSDOF 4
ENDMDL
MODEL 8
REMARK VINA RESULT:      -7.4      4.175      8.162
REMARK  Name = 
REMARK  9 active torsions:
REMARK  status: ('A' for Active; 'I' for Inactive)
REMARK    1  A    between atoms: C_1  and  C_2
REMARK    2  A    between atoms: C_2  and  N_3
REMARK    3  A    between atoms: C_4  and  C_5
REMARK    4  A    between atoms: C_6  and  C_7
REMARK    5  A    between atoms: N_9  and  C_10
REMARK    6  A    between atoms: C_17  and  C_18
REMARK    7  A    between atoms: C_17  and  C_19
REMARK    8  A    between atoms: N_20  and  C_21
REMARK    9  A    between atoms: C_21  and  C_22
REMARK                            x       y       z     vdW  Elec       q    Type
REMARK                         _______ _______ _______ _____ _____    ______ ____
ROOT
ATOM      1  N   UNL     1       0.110  10.285  19.935  0.00  0.00    +0.000 N 
ATOM      2  C   UNL     1      -0.021  10.014  18.611  0.00  0.00    +0.000 A 
ATOM      3  N   UNL     1       1.262  10.189  18.175  0.00  0.00    +0.000 N 
ATOM      4  C   UNL     1       1.459  11.472  18.616  0.00  0.00    +0.000 A 
ATOM      5  N   UNL     1       2.215  12.434  18.048  0.00  0.00    +0.000 NA
ATOM      6  C   UNL     1       2.115  13.594  18.659  0.00  0.00    +0.000 A 
ATOM      7  C   UNL     1       2.738  14.637  18.001  0.00  0.00    +0.000 A 
ATOM      8  C   UNL     1       2.615  15.949  18.442  0.00  0.00    +0.000 A 
ATOM      9  C   UNL     1       1.891  16.179  19.613  0.00  0.00    +0.000 A 
ATOM     10  C   UNL     1       1.299  15.099  20.316  0.00  0.00    +0.000 A 
ATOM     11  C   UNL     1       1.381  13.779  19.897  0.00  0.00    +0.000 A 
ATOM     12  N   UNL     1       0.719  12.721  20.572  0.00  0.00    +0.000 NA
ATOM     13  C   UNL     1       0.775  11.546  19.847  0.00  0.00    +0.000 A 
ENDROOT
BRANCH   1  15
ATOM     14  C   UNL     1       0.890   9.318  22.118  0.00  0.00    +0.000 C 
ATOM     15  C   UNL     1      -0.000   9.206  20.906  0.00  0.00    +0.000 C 
ENDBRANCH   1  15
BRANCH   2  16
ATOM     16  C   UNL     1      -1.350  10.323  17.927  0.00  0.00    +0.000 C 
ATOM     17  C   UNL     1      -2.375  10.877  18.593  0.00  0.00    +0.000 C 
BRANCH  17  18
ATOM     18  C   UNL     1      -3.702  11.229  18.107  0.00  0.00    +0.000 C 
ATOM     19  C   UNL     1      -4.589  11.948  18.835  0.00  0.00    +0.000 C 
ATOM     20  N   UNL     1      -4.457  12.216  20.238  0.00  0.00    +0.000 N 
ATOM     21  C   UNL     1      -3.494  13.289  20.638  0.00  0.00    +0.000 C 
ATOM     22  C   UNL     1      -5.735  12.692  20.668  0.00  0.00    +0.000 A 
ATOM     23  C   UNL     1      -6.346  12.624  21.897  0.00  0.00    +0.000 A 
ATOM     24  C   UNL     1      -7.506  13.384  22.080  0.00  0.00    +0.000 A 
ATOM     25  C   UNL     1      -7.916  14.290  21.089  0.00  0.00    +0.000 A 
ATOM     26  C   UNL     1      -7.383  14.201  19.808  0.00  0.00    +0.000 A 
ATOM     27  C   UNL     1      -6.447  13.212  19.597  0.00  0.00    +0.000 A 
ATOM     28  C   UNL     1      -6.019  12.416  18.380  0.00  0.00    +0.000 C 
ATOM     29  C   UNL     1      -6.263  13.208  17.093  0.00  0.00    +0.000 C 
ATOM     30  C   UNL     1      -6.912  11.144  18.347  0.00  0.00    +0.000 C 
ENDBRANCH  17  18
ENDBRANCH   2  16
BRANCH   3  31
ATOM     31  C   UNL     1       2.465   9.348  18.233  0.00  0.00    +0.000 C 
ATOM     32  C   UNL     1       2.287   7.867  18.062  0.00  0.00    +0.000 C 
ENDBRANCH   3  31
TORSDOF 4
ENDMDL
MODEL 9
REMARK VINA RESULT:      -7.2      5.910     10.175
REMARK  Name = 
REMARK  9 active torsions:
REMARK  status: ('A' for Active; 'I' for Inactive)
REMARK    1  A    between atoms: C_1  and  C_2
REMARK    2  A    between atoms: C_2  and  N_3
REMARK    3  A    between atoms: C_4  and  C_5
REMARK    4  A    between atoms: C_6  and  C_7
REMARK    5  A    between atoms: N_9  and  C_10
REMARK    6  A    between atoms: C_17  and  C_18
REMARK    7  A    between atoms: C_17  and  C_19
REMARK    8  A    between atoms: N_20  and  C_21
REMARK    9  A    between atoms: C_21  and  C_22
REMARK                            x       y       z     vdW  Elec       q    Type
REMARK                         _______ _______ _______ _____ _____    ______ ____
ROOT
ATOM      1  N   UNL     1       2.113  15.194  21.331  0.00  0.00    +0.000 N 
ATOM      2  C   UNL     1       3.276  15.273  20.635  0.00  0.00    +0.000 A 
ATOM      3  N   UNL     1       2.838  15.053  19.359  0.00  0.00    +0.000 N 
ATOM      4  C   UNL     1       2.215  13.849  19.558  0.00  0.00    +0.000 A 
ATOM      5  N   UNL     1       2.100  12.824  18.687  0.00  0.00    +0.000 NA
ATOM      6  C   UNL     1       1.534  11.761  19.215  0.00  0.00    +0.000 A 
ATOM      7  C   UNL     1       1.561  10.643  18.405  0.00  0.00    +0.000 A 
ATOM      8  C   UNL     1       1.125   9.406  18.862  0.00  0.00    +0.000 A 
ATOM      9  C   UNL     1       0.598   9.335  20.152  0.00  0.00    +0.000 A 
ATOM     10  C   UNL     1       0.522  10.497  20.962  0.00  0.00    +0.000 A 
ATOM     11  C   UNL     1       0.966  11.746  20.550  0.00  0.00    +0.000 A 
ATOM     12  N   UNL     1       0.950  12.880  21.401  0.00  0.00    +0.000 NA
ATOM     13  C   UNL     1       1.635  13.942  20.839  0.00  0.00    +0.000 A 
ENDROOT
BRANCH   1  15
ATOM     14  C   UNL     1       0.174  16.790  21.399  0.00  0.00    +0.000 C 
ATOM     15  C   UNL     1       1.537  16.399  21.912  0.00  0.00    +0.000 C 
ENDBRANCH   1  15
BRANCH   2  16
ATOM     16  C   UNL     1       4.572  14.855  21.322  0.00  0.00    +0.000 C 
ATOM     17  C   UNL     1       5.774  15.140  20.797  0.00  0.00    +0.000 C 
BRANCH  17  18
ATOM     18  C   UNL     1       7.099  14.815  21.307  0.00  0.00    +0.000 C 
ATOM     19  C   UNL     1       8.115  14.399  20.513  0.00  0.00    +0.000 C 
ATOM     20  N   UNL     1       7.958  13.972  19.154  0.00  0.00    +0.000 N 
ATOM     21  C   UNL     1       7.792  15.039  18.119  0.00  0.00    +0.000 C 
ATOM     22  C   UNL     1       9.178  13.312  18.807  0.00  0.00    +0.000 A 
ATOM     23  C   UNL     1       9.425  12.311  17.898  0.00  0.00    +0.000 A 
ATOM     24  C   UNL     1      10.763  12.024  17.608  0.00  0.00    +0.000 A 
ATOM     25  C   UNL     1      11.784  12.843  18.116  0.00  0.00    +0.000 A 
ATOM     26  C   UNL     1      11.511  13.722  19.159  0.00  0.00    +0.000 A 
ATOM     27  C   UNL     1      10.214  13.743  19.623  0.00  0.00    +0.000 A 
ATOM     28  C   UNL     1       9.586  14.073  20.963  0.00  0.00    +0.000 C 
ATOM     29  C   UNL     1      10.453  15.060  21.747  0.00  0.00    +0.000 C 
ATOM     30  C   UNL     1       9.519  12.741  21.762  0.00  0.00    +0.000 C 
ENDBRANCH  17  18
ENDBRANCH   2  16
BRANCH   3  31
ATOM     31  C   UNL     1       2.177  15.908  18.363  0.00  0.00    +0.000 C 
ATOM     32  C   UNL     1       3.053  16.702  17.438  0.00  0.00    +0.000 C 
ENDBRANCH   3  31
TORSDOF 4
ENDMDL
