MODEL 1
REMARK VINA RESULT:      -9.1      0.000      0.000
REMARK  Name = 
REMARK  6 active torsions:
REMARK  status: ('A' for Active; 'I' for Inactive)
REMARK    1  A    between atoms: C_1  and  C_2
REMARK    2  A    between atoms: C_6  and  C_7
REMARK    3  A    between atoms: C_11  and  C_12
REMARK    4  A    between atoms: C_19  and  O_20
REMARK    5  A    between atoms: C_19  and  C_21
REMARK    6  A    between atoms: C_25  and  O_26
REMARK                            x       y       z     vdW  Elec       q    Type
REMARK                         _______ _______ _______ _____ _____    ______ ____
ROOT
ATOM      1  C   UNL     1       2.282   5.745  19.799  0.00  0.00    +0.000 C 
ATOM      2  O   UNL     1       1.622   5.335  20.748  0.00  0.00    +0.000 OA
ATOM      3  N   UNL     1       3.110   4.926  19.043  0.00  0.00    +0.000 N 
ATOM      4  N   UNL     1       3.926   5.437  18.065  0.00  0.00    +0.000 NA
ATOM      5  C   UNL     1       4.424   4.436  17.412  0.00  0.00    +0.000 C 
ATOM      6  C   UNL     1       3.896   3.094  17.836  0.00  0.00    +0.000 C 
ATOM      7  C   UNL     1       3.260   3.472  19.187  0.00  0.00    +0.000 C 
ENDROOT
BRANCH   1  13
ATOM      8  C   UNL     1       0.866  10.444  20.920  0.00  0.00    +0.000 C 
ATOM      9  C   UNL     1       1.347   9.429  19.922  0.00  0.00    +0.000 A 
ATOM     10  C   UNL     1       1.485   9.788  18.574  0.00  0.00    +0.000 A 
ATOM     11  C   UNL     1       1.950   8.867  17.639  0.00  0.00    +0.000 A 
ATOM     12  C   UNL     1       2.270   7.569  18.037  0.00  0.00    +0.000 A 
ATOM     13  C   UNL     1       2.087   7.163  19.367  0.00  0.00    +0.000 A 
ATOM     14  C   UNL     1       1.659   8.114  20.312  0.00  0.00    +0.000 A 
BRANCH  14  15
ATOM     15  O   UNL     1       1.504   7.799  21.640  0.00  0.00    +0.000 OA
ATOM     16  H   UNL     1       1.155   8.589  22.106  0.00  0.00    +0.000 HD
ENDBRANCH  14  15
ENDBRANCH   1  13
BRANCH   5  17
ATOM     17  C   UNL     1       5.380   4.612  16.306  0.00  0.00    +0.000 A 
ATOM     18  C   UNL     1       5.234   3.980  15.075  0.00  0.00    +0.000 A 
ATOM     19  C   UNL     1       6.183   4.209  14.079  0.00  0.00    +0.000 A 
ATOM     20  C   UNL     1       7.244   5.058  14.354  0.00  0.00    +0.000 A 
ATOM     21  N   UNL     1       7.415   5.681  15.539  0.00  0.00    +0.000 NA
ATOM     22  C   UNL     1       6.478   5.448  16.488  0.00  0.00    +0.000 A 
ENDBRANCH   5  17
BRANCH   7  23
ATOM     23  C   UNL     1       1.960   2.641  19.437  0.00  0.00    +0.000 C 
ATOM     24  F   UNL     1       0.877   3.119  18.785  0.00  0.00    +0.000 F 
ATOM     25  F   UNL     1       2.113   1.358  19.004  0.00  0.00    +0.000 F 
ATOM     26  F   UNL     1       1.646   2.556  20.752  0.00  0.00    +0.000 F 
ENDBRANCH   7  23
BRANCH   7  27
ATOM     27  O   UNL     1       4.282   3.251  20.179  0.00  0.00    +0.000 OA
ATOM     28  H   UNL     1       4.059   2.395  20.583  0.00  0.00    +0.000 HD
ENDBRANCH   7  27
TORSDOF 5
ENDMDL
MODEL 2
REMARK VINA RESULT:      -9.0      1.914      5.593
REMARK  Name = 
REMARK  6 active torsions:
REMARK  status: ('A' for Active; 'I' for Inactive)
REMARK    1  A    between atoms: C_1  and  C_2
REMARK    2  A    between atoms: C_6  and  C_7
REMARK    3  A    between atoms: C_11  and  C_12
REMARK    4  A    between atoms: C_19  and  O_20
REMARK    5  A    between atoms: C_19  and  C_21
REMARK    6  A    between atoms: C_25  and  O_26
REMARK                            x       y       z     vdW  Elec       q    Type
REMARK                         _______ _______ _______ _____ _____    ______ ____
ROOT
ATOM      1  C   UNL     1       3.904   3.543  18.247  0.00  0.00    +0.000 C 
ATOM      2  O   UNL     1       3.883   2.318  18.297  0.00  0.00    +0.000 OA
ATOM      3  N   UNL     1       2.952   4.343  18.863  0.00  0.00    +0.000 N 
ATOM      4  N   UNL     1       2.935   5.705  18.689  0.00  0.00    +0.000 NA
ATOM      5  C   UNL     1       2.074   6.193  19.523  0.00  0.00    +0.000 C 
ATOM      6  C   UNL     1       1.468   5.180  20.454  0.00  0.00    +0.000 C 
ATOM      7  C   UNL     1       1.853   3.881  19.721  0.00  0.00    +0.000 C 
ENDROOT
BRANCH   1  13
ATOM      8  C   UNL     1       8.031   6.398  18.652  0.00  0.00    +0.000 C 
ATOM      9  C   UNL     1       7.053   5.630  17.809  0.00  0.00    +0.000 A 
ATOM     10  C   UNL     1       7.177   5.644  16.413  0.00  0.00    +0.000 A 
ATOM     11  C   UNL     1       6.293   4.921  15.616  0.00  0.00    +0.000 A 
ATOM     12  C   UNL     1       5.263   4.185  16.204  0.00  0.00    +0.000 A 
ATOM     13  C   UNL     1       5.079   4.200  17.595  0.00  0.00    +0.000 A 
ATOM     14  C   UNL     1       6.004   4.898  18.393  0.00  0.00    +0.000 A 
BRANCH  14  15
ATOM     15  O   UNL     1       5.913   4.916  19.764  0.00  0.00    +0.000 OA
ATOM     16  H   UNL     1       4.973   4.782  20.013  0.00  0.00    +0.000 HD
ENDBRANCH  14  15
ENDBRANCH   1  13
BRANCH   5  17
ATOM     17  C   UNL     1       1.767   7.632  19.589  0.00  0.00    +0.000 A 
ATOM     18  C   UNL     1       1.879   8.478  18.489  0.00  0.00    +0.000 A 
ATOM     19  C   UNL     1       1.561   9.828  18.637  0.00  0.00    +0.000 A 
ATOM     20  C   UNL     1       1.148  10.280  19.881  0.00  0.00    +0.000 A 
ATOM     21  N   UNL     1       1.035   9.486  20.966  0.00  0.00    +0.000 NA
ATOM     22  C   UNL     1       1.343   8.178  20.797  0.00  0.00    +0.000 A 
ENDBRANCH   5  17
BRANCH   7  23
ATOM     23  C   UNL     1       2.176   2.745  20.746  0.00  0.00    +0.000 C 
ATOM     24  F   UNL     1       3.460   2.745  21.168  0.00  0.00    +0.000 F 
ATOM     25  F   UNL     1       1.419   2.876  21.871  0.00  0.00    +0.000 F 
ATOM     26  F   UNL     1       1.903   1.513  20.254  0.00  0.00    +0.000 F 
ENDBRANCH   7  23
BRANCH   7  27
ATOM     27  O   UNL     1       0.743   3.573  18.855  0.00  0.00    +0.000 OA
ATOM     28  H   UNL     1       1.142   3.420  17.981  0.00  0.00    +0.000 HD
ENDBRANCH   7  27
TORSDOF 5
ENDMDL
MODEL 3
REMARK VINA RESULT:      -9.0      1.964      5.586
REMARK  Name = 
REMARK  6 active torsions:
REMARK  status: ('A' for Active; 'I' for Inactive)
REMARK    1  A    between atoms: C_1  and  C_2
REMARK    2  A    between atoms: C_6  and  C_7
REMARK    3  A    between atoms: C_11  and  C_12
REMARK    4  A    between atoms: C_19  and  O_20
REMARK    5  A    between atoms: C_19  and  C_21
REMARK    6  A    between atoms: C_25  and  O_26
REMARK                            x       y       z     vdW  Elec       q    Type
REMARK                         _______ _______ _______ _____ _____    ______ ____
ROOT
ATOM      1  C   UNL     1       3.875   3.656  18.144  0.00  0.00    +0.000 C 
ATOM      2  O   UNL     1       3.881   2.431  18.092  0.00  0.00    +0.000 OA
ATOM      3  N   UNL     1       2.921   4.380  18.845  0.00  0.00    +0.000 N 
ATOM      4  N   UNL     1       2.871   5.750  18.785  0.00  0.00    +0.000 NA
ATOM      5  C   UNL     1       2.020   6.147  19.675  0.00  0.00    +0.000 C 
ATOM      6  C   UNL     1       1.459   5.048  20.532  0.00  0.00    +0.000 C 
ATOM      7  C   UNL     1       1.853   3.822  19.686  0.00  0.00    +0.000 C 
ENDROOT
BRANCH   1  13
ATOM      8  C   UNL     1       8.024   6.453  18.700  0.00  0.00    +0.000 C 
ATOM      9  C   UNL     1       7.005   5.791  17.817  0.00  0.00    +0.000 A 
ATOM     10  C   UNL     1       7.063   5.976  16.428  0.00  0.00    +0.000 A 
ATOM     11  C   UNL     1       6.141   5.352  15.591  0.00  0.00    +0.000 A 
ATOM     12  C   UNL     1       5.138   4.547  16.133  0.00  0.00    +0.000 A 
ATOM     13  C   UNL     1       5.020   4.391  17.522  0.00  0.00    +0.000 A 
ATOM     14  C   UNL     1       5.983   4.989  18.355  0.00  0.00    +0.000 A 
BRANCH  14  15
ATOM     15  O   UNL     1       5.956   4.839  19.720  0.00  0.00    +0.000 OA
ATOM     16  H   UNL     1       5.418   5.566  20.101  0.00  0.00    +0.000 HD
ENDBRANCH  14  15
ENDBRANCH   1  13
BRANCH   5  17
ATOM     17  C   UNL     1       1.684   7.569  19.867  0.00  0.00    +0.000 A 
ATOM     18  C   UNL     1       1.253   8.084  21.086  0.00  0.00    +0.000 A 
ATOM     19  C   UNL     1       0.964   9.445  21.182  0.00  0.00    +0.000 A 
ATOM     20  C   UNL     1       1.112  10.237  20.054  0.00  0.00    +0.000 A 
ATOM     21  N   UNL     1       1.523   9.766  18.858  0.00  0.00    +0.000 NA
ATOM     22  C   UNL     1       1.804   8.443  18.790  0.00  0.00    +0.000 A 
ENDBRANCH   5  17
BRANCH   7  23
ATOM     23  C   UNL     1       2.225   2.614  20.606  0.00  0.00    +0.000 C 
ATOM     24  F   UNL     1       1.470   2.532  21.723  0.00  0.00    +0.000 F 
ATOM     25  F   UNL     1       2.045   1.432  19.952  0.00  0.00    +0.000 F 
ATOM     26  F   UNL     1       3.524   2.636  20.986  0.00  0.00    +0.000 F 
ENDBRANCH   7  23
BRANCH   7  27
ATOM     27  O   UNL     1       0.730   3.562  18.822  0.00  0.00    +0.000 OA
ATOM     28  H   UNL     1       0.241   4.402  18.784  0.00  0.00    +0.000 HD
ENDBRANCH   7  27
TORSDOF 5
ENDMDL
MODEL 4
REMARK VINA RESULT:      -8.9      1.987      6.005
REMARK  Name = 
REMARK  6 active torsions:
REMARK  status: ('A' for Active; 'I' for Inactive)
REMARK    1  A    between atoms: C_1  and  C_2
REMARK    2  A    between atoms: C_6  and  C_7
REMARK    3  A    between atoms: C_11  and  C_12
REMARK    4  A    between atoms: C_19  and  O_20
REMARK    5  A    between atoms: C_19  and  C_21
REMARK    6  A    between atoms: C_25  and  O_26
REMARK                            x       y       z     vdW  Elec       q    Type
REMARK                         _______ _______ _______ _____ _____    ______ ____
ROOT
ATOM      1  C   UNL     1       4.003   3.806  18.788  0.00  0.00    +0.000 C 
ATOM      2  O   UNL     1       4.008   2.580  18.742  0.00  0.00    +0.000 OA
ATOM      3  N   UNL     1       2.958   4.539  19.331  0.00  0.00    +0.000 N 
ATOM      4  N   UNL     1       2.928   5.910  19.259  0.00  0.00    +0.000 NA
ATOM      5  C   UNL     1       1.952   6.317  20.006  0.00  0.00    +0.000 C 
ATOM      6  C   UNL     1       1.257   5.225  20.769  0.00  0.00    +0.000 C 
ATOM      7  C   UNL     1       1.768   3.993  19.998  0.00  0.00    +0.000 C 
ENDROOT
BRANCH   1  13
ATOM      8  C   UNL     1       7.216   5.023  15.108  0.00  0.00    +0.000 C 
ATOM      9  C   UNL     1       6.810   5.068  16.553  0.00  0.00    +0.000 A 
ATOM     10  C   UNL     1       7.653   5.675  17.495  0.00  0.00    +0.000 A 
ATOM     11  C   UNL     1       7.284   5.744  18.836  0.00  0.00    +0.000 A 
ATOM     12  C   UNL     1       6.073   5.195  19.257  0.00  0.00    +0.000 A 
ATOM     13  C   UNL     1       5.236   4.530  18.348  0.00  0.00    +0.000 A 
ATOM     14  C   UNL     1       5.597   4.504  16.989  0.00  0.00    +0.000 A 
BRANCH  14  15
ATOM     15  O   UNL     1       4.802   3.913  16.037  0.00  0.00    +0.000 OA
ATOM     16  H   UNL     1       4.214   3.267  16.484  0.00  0.00    +0.000 HD
ENDBRANCH  14  15
ENDBRANCH   1  13
BRANCH   5  17
ATOM     17  C   UNL     1       1.602   7.741  20.138  0.00  0.00    +0.000 A 
ATOM     18  C   UNL     1       1.189   8.308  21.341  0.00  0.00    +0.000 A 
ATOM     19  C   UNL     1       0.883   9.668  21.380  0.00  0.00    +0.000 A 
ATOM     20  C   UNL     1       0.998  10.409  20.214  0.00  0.00    +0.000 A 
ATOM     21  N   UNL     1       1.391   9.887  19.033  0.00  0.00    +0.000 NA
ATOM     22  C   UNL     1       1.688   8.566  19.020  0.00  0.00    +0.000 A 
ENDBRANCH   5  17
BRANCH   7  23
ATOM     23  C   UNL     1       1.984   2.786  20.969  0.00  0.00    +0.000 C 
ATOM     24  F   UNL     1       3.174   2.813  21.610  0.00  0.00    +0.000 F 
ATOM     25  F   UNL     1       1.038   2.775  21.948  0.00  0.00    +0.000 F 
ATOM     26  F   UNL     1       1.883   1.593  20.337  0.00  0.00    +0.000 F 
ENDBRANCH   7  23
BRANCH   7  27
ATOM     27  O   UNL     1       0.790   3.736  18.972  0.00  0.00    +0.000 OA
ATOM     28  H   UNL     1       1.245   3.938  18.136  0.00  0.00    +0.000 HD
ENDBRANCH   7  27
TORSDOF 5
ENDMDL
MODEL 5
REMARK VINA RESULT:      -8.7      1.946      5.957
REMARK  Name = 
REMARK  6 active torsions:
REMARK  status: ('A' for Active; 'I' for Inactive)
REMARK    1  A    between atoms: C_1  and  C_2
REMARK    2  A    between atoms: C_6  and  C_7
REMARK    3  A    between atoms: C_11  and  C_12
REMARK    4  A    between atoms: C_19  and  O_20
REMARK    5  A    between atoms: C_19  and  C_21
REMARK    6  A    between atoms: C_25  and  O_26
REMARK                            x       y       z     vdW  Elec       q    Type
REMARK                         _______ _______ _______ _____ _____    ______ ____
ROOT
ATOM      1  C   UNL     1       4.004   3.762  18.789  0.00  0.00    +0.000 C 
ATOM      2  O   UNL     1       4.001   2.536  18.789  0.00  0.00    +0.000 OA
ATOM      3  N   UNL     1       2.968   4.522  19.312  0.00  0.00    +0.000 N 
ATOM      4  N   UNL     1       2.945   5.889  19.190  0.00  0.00    +0.000 NA
ATOM      5  C   UNL     1       1.978   6.330  19.929  0.00  0.00    +0.000 C 
ATOM      6  C   UNL     1       1.283   5.271  20.737  0.00  0.00    +0.000 C 
ATOM      7  C   UNL     1       1.780   4.008  20.009  0.00  0.00    +0.000 C 
ENDROOT
BRANCH   1  13
ATOM      8  C   UNL     1       7.126   4.926  15.014  0.00  0.00    +0.000 C 
ATOM      9  C   UNL     1       6.766   4.973  16.472  0.00  0.00    +0.000 A 
ATOM     10  C   UNL     1       7.651   5.559  17.389  0.00  0.00    +0.000 A 
ATOM     11  C   UNL     1       7.326   5.631  18.741  0.00  0.00    +0.000 A 
ATOM     12  C   UNL     1       6.117   5.105  19.198  0.00  0.00    +0.000 A 
ATOM     13  C   UNL     1       5.238   4.462  18.313  0.00  0.00    +0.000 A 
ATOM     14  C   UNL     1       5.556   4.434  16.943  0.00  0.00    +0.000 A 
BRANCH  14  15
ATOM     15  O   UNL     1       4.720   3.863  16.015  0.00  0.00    +0.000 OA
ATOM     16  H   UNL     1       4.698   2.894  16.172  0.00  0.00    +0.000 HD
ENDBRANCH  14  15
ENDBRANCH   1  13
BRANCH   5  17
ATOM     17  C   UNL     1       1.638   7.760  20.011  0.00  0.00    +0.000 A 
ATOM     18  C   UNL     1       1.675   8.609  18.909  0.00  0.00    +0.000 A 
ATOM     19  C   UNL     1       1.329   9.950  19.075  0.00  0.00    +0.000 A 
ATOM     20  C   UNL     1       0.963  10.391  20.337  0.00  0.00    +0.000 A 
ATOM     21  N   UNL     1       0.922   9.594  21.424  0.00  0.00    +0.000 NA
ATOM     22  C   UNL     1       1.256   8.295  21.239  0.00  0.00    +0.000 A 
ENDBRANCH   5  17
BRANCH   7  23
ATOM     23  C   UNL     1       1.997   2.837  21.021  0.00  0.00    +0.000 C 
ATOM     24  F   UNL     1       1.085   2.808  22.019  0.00  0.00    +0.000 F 
ATOM     25  F   UNL     1       1.898   1.630  20.397  0.00  0.00    +0.000 F 
ATOM     26  F   UNL     1       3.227   2.865  21.587  0.00  0.00    +0.000 F 
ENDBRANCH   7  23
BRANCH   7  27
ATOM     27  O   UNL     1       0.793   3.720  19.000  0.00  0.00    +0.000 OA
ATOM     28  H   UNL     1       1.039   2.847  18.649  0.00  0.00    +0.000 HD
ENDBRANCH   7  27
TORSDOF 5
ENDMDL
MODEL 6
REMARK VINA RESULT:      -8.2      0.597      1.210
REMARK  Name = 
REMARK  6 active torsions:
REMARK  status: ('A' for Active; 'I' for Inactive)
REMARK    1  A    between atoms: C_1  and  C_2
REMARK    2  A    between atoms: C_6  and  C_7
REMARK    3  A    between atoms: C_11  and  C_12
REMARK    4  A    between atoms: C_19  and  O_20
REMARK    5  A    between atoms: C_19  and  C_21
REMARK    6  A    between atoms: C_25  and  O_26
REMARK                            x       y       z     vdW  Elec       q    Type
REMARK                         _______ _______ _______ _____ _____    ______ ____
ROOT
ATOM      1  C   UNL     1       2.155   5.753  19.892  0.00  0.00    +0.000 C 
ATOM      2  O   UNL     1       1.456   5.362  20.821  0.00  0.00    +0.000 OA
ATOM      3  N   UNL     1       2.988   4.914  19.166  0.00  0.00    +0.000 N 
ATOM      4  N   UNL     1       3.847   5.403  18.213  0.00  0.00    +0.000 NA
ATOM      5  C   UNL     1       4.343   4.389  17.580  0.00  0.00    +0.000 C 
ATOM      6  C   UNL     1       3.773   3.061  17.991  0.00  0.00    +0.000 C 
ATOM      7  C   UNL     1       3.102   3.458  19.320  0.00  0.00    +0.000 C 
ENDROOT
BRANCH   1  13
ATOM      8  C   UNL     1       0.864  10.499  20.970  0.00  0.00    +0.000 C 
ATOM      9  C   UNL     1       1.325   9.463  19.983  0.00  0.00    +0.000 A 
ATOM     10  C   UNL     1       1.485   9.810  18.634  0.00  0.00    +0.000 A 
ATOM     11  C   UNL     1       1.932   8.869  17.709  0.00  0.00    +0.000 A 
ATOM     12  C   UNL     1       2.211   7.565  18.118  0.00  0.00    +0.000 A 
ATOM     13  C   UNL     1       2.005   7.174  19.450  0.00  0.00    +0.000 A 
ATOM     14  C   UNL     1       1.595   8.143  20.384  0.00  0.00    +0.000 A 
BRANCH  14  15
ATOM     15  O   UNL     1       1.420   7.842  21.713  0.00  0.00    +0.000 OA
ATOM     16  H   UNL     1       0.525   8.142  21.982  0.00  0.00    +0.000 HD
ENDBRANCH  14  15
ENDBRANCH   1  13
BRANCH   5  17
ATOM     17  C   UNL     1       5.337   4.540  16.504  0.00  0.00    +0.000 A 
ATOM     18  C   UNL     1       6.552   5.195  16.687  0.00  0.00    +0.000 A 
ATOM     19  C   UNL     1       7.440   5.286  15.615  0.00  0.00    +0.000 A 
ATOM     20  C   UNL     1       7.078   4.723  14.402  0.00  0.00    +0.000 A 
ATOM     21  N   UNL     1       5.906   4.087  14.193  0.00  0.00    +0.000 NA
ATOM     22  C   UNL     1       5.062   4.005  15.249  0.00  0.00    +0.000 A 
ENDBRANCH   5  17
BRANCH   7  23
ATOM     23  C   UNL     1       1.777   2.655  19.531  0.00  0.00    +0.000 C 
ATOM     24  F   UNL     1       1.855   1.366  19.132  0.00  0.00    +0.000 F 
ATOM     25  F   UNL     1       1.439   2.613  20.850  0.00  0.00    +0.000 F 
ATOM     26  F   UNL     1       0.725   3.221  18.894  0.00  0.00    +0.000 F 
ENDBRANCH   7  23
BRANCH   7  27
ATOM     27  O   UNL     1       4.087   3.219  20.345  0.00  0.00    +0.000 OA
ATOM     28  H   UNL     1       3.573   3.013  21.145  0.00  0.00    +0.000 HD
ENDBRANCH   7  27
TORSDOF 5
ENDMDL
MODEL 7
REMARK VINA RESULT:      -8.1      2.203      5.739
REMARK  Name = 
REMARK  6 active torsions:
REMARK  status: ('A' for Active; 'I' for Inactive)
REMARK    1  A    between atoms: C_1  and  C_2
REMARK    2  A    between atoms: C_6  and  C_7
REMARK    3  A    between atoms: C_11  and  C_12
REMARK    4  A    between atoms: C_19  and  O_20
REMARK    5  A    between atoms: C_19  and  C_21
REMARK    6  A    between atoms: C_25  and  O_26
REMARK                            x       y       z     vdW  Elec       q    Type
REMARK                         _______ _______ _______ _____ _____    ______ ____
ROOT
ATOM      1  C   UNL     1       4.182   4.466  17.463  0.00  0.00    +0.000 C 
ATOM      2  O   UNL     1       4.220   3.360  16.934  0.00  0.00    +0.000 OA
ATOM      3  N   UNL     1       3.071   4.943  18.143  0.00  0.00    +0.000 N 
ATOM      4  N   UNL     1       3.016   6.229  18.619  0.00  0.00    +0.000 NA
ATOM      5  C   UNL     1       1.961   6.324  19.362  0.00  0.00    +0.000 C 
ATOM      6  C   UNL     1       1.217   5.033  19.553  0.00  0.00    +0.000 C 
ATOM      7  C   UNL     1       1.832   4.199  18.412  0.00  0.00    +0.000 C 
ENDROOT
BRANCH   1  13
ATOM      8  C   UNL     1       8.416   5.838  19.817  0.00  0.00    +0.000 C 
ATOM      9  C   UNL     1       7.463   5.969  18.663  0.00  0.00    +0.000 A 
ATOM     10  C   UNL     1       7.691   6.942  17.679  0.00  0.00    +0.000 A 
ATOM     11  C   UNL     1       6.830   7.065  16.591  0.00  0.00    +0.000 A 
ATOM     12  C   UNL     1       5.722   6.225  16.479  0.00  0.00    +0.000 A 
ATOM     13  C   UNL     1       5.436   5.281  17.477  0.00  0.00    +0.000 A 
ATOM     14  C   UNL     1       6.336   5.136  18.549  0.00  0.00    +0.000 A 
BRANCH  14  15
ATOM     15  O   UNL     1       6.144   4.200  19.536  0.00  0.00    +0.000 OA
ATOM     16  H   UNL     1       5.998   4.671  20.384  0.00  0.00    +0.000 HD
ENDBRANCH  14  15
ENDBRANCH   1  13
BRANCH   5  17
ATOM     17  C   UNL     1       1.566   7.585  20.014  0.00  0.00    +0.000 A 
ATOM     18  C   UNL     1       1.260   7.669  21.369  0.00  0.00    +0.000 A 
ATOM     19  C   UNL     1       0.902   8.906  21.907  0.00  0.00    +0.000 A 
ATOM     20  C   UNL     1       0.861  10.009  21.068  0.00  0.00    +0.000 A 
ATOM     21  N   UNL     1       1.147   9.956  19.750  0.00  0.00    +0.000 NA
ATOM     22  C   UNL     1       1.497   8.748  19.252  0.00  0.00    +0.000 A 
ENDBRANCH   5  17
BRANCH   7  23
ATOM     23  C   UNL     1       1.976   2.702  18.839  0.00  0.00    +0.000 C 
ATOM     24  F   UNL     1       0.926   2.239  19.552  0.00  0.00    +0.000 F 
ATOM     25  F   UNL     1       2.066   1.892  17.747  0.00  0.00    +0.000 F 
ATOM     26  F   UNL     1       3.098   2.478  19.564  0.00  0.00    +0.000 F 
ENDBRANCH   7  23
BRANCH   7  27
ATOM     27  O   UNL     1       0.970   4.391  17.274  0.00  0.00    +0.000 OA
ATOM     28  H   UNL     1       1.413   3.928  16.542  0.00  0.00    +0.000 HD
ENDBRANCH   7  27
TORSDOF 5
ENDMDL
MODEL 8
REMARK VINA RESULT:      -7.8      2.350      5.891
REMARK  Name = 
REMARK  6 active torsions:
REMARK  status: ('A' for Active; 'I' for Inactive)
REMARK    1  A    between atoms: C_1  and  C_2
REMARK    2  A    between atoms: C_6  and  C_7
REMARK    3  A    between atoms: C_11  and  C_12
REMARK    4  A    between atoms: C_19  and  O_20
REMARK    5  A    between atoms: C_19  and  C_21
REMARK    6  A    between atoms: C_25  and  O_26
REMARK                            x       y       z     vdW  Elec       q    Type
REMARK                         _______ _______ _______ _____ _____    ______ ____
ROOT
ATOM      1  C   UNL     1       4.435   4.322  18.885  0.00  0.00    +0.000 C 
ATOM      2  O   UNL     1       4.522   3.133  18.601  0.00  0.00    +0.000 OA
ATOM      3  N   UNL     1       3.254   4.915  19.309  0.00  0.00    +0.000 N 
ATOM      4  N   UNL     1       3.159   6.270  19.503  0.00  0.00    +0.000 NA
ATOM      5  C   UNL     1       2.020   6.503  20.074  0.00  0.00    +0.000 C 
ATOM      6  C   UNL     1       1.240   5.268  20.429  0.00  0.00    +0.000 C 
ATOM      7  C   UNL     1       1.981   4.227  19.568  0.00  0.00    +0.000 C 
ENDROOT
BRANCH   1  13
ATOM      8  C   UNL     1       7.344   7.781  16.666  0.00  0.00    +0.000 C 
ATOM      9  C   UNL     1       7.108   6.785  17.766  0.00  0.00    +0.000 A 
ATOM     10  C   UNL     1       8.116   6.538  18.709  0.00  0.00    +0.000 A 
ATOM     11  C   UNL     1       7.907   5.634  19.747  0.00  0.00    +0.000 A 
ATOM     12  C   UNL     1       6.694   4.954  19.850  0.00  0.00    +0.000 A 
ATOM     13  C   UNL     1       5.688   5.138  18.889  0.00  0.00    +0.000 A 
ATOM     14  C   UNL     1       5.892   6.086  17.869  0.00  0.00    +0.000 A 
BRANCH  14  15
ATOM     15  O   UNL     1       4.933   6.351  16.922  0.00  0.00    +0.000 OA
ATOM     16  H   UNL     1       4.670   7.293  17.003  0.00  0.00    +0.000 HD
ENDBRANCH  14  15
ENDBRANCH   1  13
BRANCH   5  17
ATOM     17  C   UNL     1       1.565   7.865  20.401  0.00  0.00    +0.000 A 
ATOM     18  C   UNL     1       1.198   8.249  21.687  0.00  0.00    +0.000 A 
ATOM     19  C   UNL     1       0.785   9.562  21.911  0.00  0.00    +0.000 A 
ATOM     20  C   UNL     1       0.752  10.440  20.838  0.00  0.00    +0.000 A 
ATOM     21  N   UNL     1       1.097  10.095  19.580  0.00  0.00    +0.000 NA
ATOM     22  C   UNL     1       1.499   8.817  19.388  0.00  0.00    +0.000 A 
ENDBRANCH   5  17
BRANCH   7  23
ATOM     23  C   UNL     1       2.050   2.850  20.304  0.00  0.00    +0.000 C 
ATOM     24  F   UNL     1       3.102   2.738  21.145  0.00  0.00    +0.000 F 
ATOM     25  F   UNL     1       0.942   2.654  21.073  0.00  0.00    +0.000 F 
ATOM     26  F   UNL     1       2.096   1.806  19.443  0.00  0.00    +0.000 F 
ENDBRANCH   7  23
BRANCH   7  27
ATOM     27  O   UNL     1       1.270   4.173  18.316  0.00  0.00    +0.000 OA
ATOM     28  H   UNL     1       1.963   4.120  17.635  0.00  0.00    +0.000 HD
ENDBRANCH   7  27
TORSDOF 5
ENDMDL
MODEL 9
REMARK VINA RESULT:      -7.7      3.689      5.010
REMARK  Name = 
REMARK  6 active torsions:
REMARK  status: ('A' for Active; 'I' for Inactive)
REMARK    1  A    between atoms: C_1  and  C_2
REMARK    2  A    between atoms: C_6  and  C_7
REMARK    3  A    between atoms: C_11  and  C_12
REMARK    4  A    between atoms: C_19  and  O_20
REMARK    5  A    between atoms: C_19  and  C_21
REMARK    6  A    between atoms: C_25  and  O_26
REMARK                            x       y       z     vdW  Elec       q    Type
REMARK                         _______ _______ _______ _____ _____    ______ ____
ROOT
ATOM      1  C   UNL     1       4.768   5.053  18.666  0.00  0.00    +0.000 C 
ATOM      2  O   UNL     1       4.933   5.628  19.736  0.00  0.00    +0.000 OA
ATOM      3  N   UNL     1       5.584   5.256  17.563  0.00  0.00    +0.000 N 
ATOM      4  N   UNL     1       5.302   4.690  16.345  0.00  0.00    +0.000 NA
ATOM      5  C   UNL     1       6.323   4.893  15.575  0.00  0.00    +0.000 C 
ATOM      6  C   UNL     1       7.488   5.558  16.252  0.00  0.00    +0.000 C 
ATOM      7  C   UNL     1       6.792   6.092  17.518  0.00  0.00    +0.000 C 
ENDROOT
BRANCH   1  13
ATOM      8  C   UNL     1       0.301   3.297  20.186  0.00  0.00    +0.000 C 
ATOM      9  C   UNL     1       1.560   3.139  19.383  0.00  0.00    +0.000 A 
ATOM     10  C   UNL     1       1.791   1.950  18.676  0.00  0.00    +0.000 A 
ATOM     11  C   UNL     1       2.943   1.794  17.910  0.00  0.00    +0.000 A 
ATOM     12  C   UNL     1       3.887   2.818  17.849  0.00  0.00    +0.000 A 
ATOM     13  C   UNL     1       3.712   3.996  18.592  0.00  0.00    +0.000 A 
ATOM     14  C   UNL     1       2.524   4.162  19.328  0.00  0.00    +0.000 A 
BRANCH  14  15
ATOM     15  O   UNL     1       2.264   5.308  20.039  0.00  0.00    +0.000 OA
ATOM     16  H   UNL     1       2.523   6.078  19.489  0.00  0.00    +0.000 HD
ENDBRANCH  14  15
ENDBRANCH   1  13
BRANCH   5  17
ATOM     17  C   UNL     1       6.353   4.448  14.172  0.00  0.00    +0.000 A 
ATOM     18  C   UNL     1       5.361   3.648  13.612  0.00  0.00    +0.000 A 
ATOM     19  C   UNL     1       5.465   3.279  12.271  0.00  0.00    +0.000 A 
ATOM     20  C   UNL     1       6.558   3.721  11.542  0.00  0.00    +0.000 A 
ATOM     21  N   UNL     1       7.537   4.493  12.058  0.00  0.00    +0.000 NA
ATOM     22  C   UNL     1       7.413   4.844  13.360  0.00  0.00    +0.000 A 
ENDBRANCH   5  17
BRANCH   7  23
ATOM     23  C   UNL     1       7.755   6.022  18.748  0.00  0.00    +0.000 C 
ATOM     24  F   UNL     1       7.113   5.941  19.935  0.00  0.00    +0.000 F 
ATOM     25  F   UNL     1       8.548   4.917  18.682  0.00  0.00    +0.000 F 
ATOM     26  F   UNL     1       8.596   7.082  18.805  0.00  0.00    +0.000 F 
ENDBRANCH   7  23
BRANCH   7  27
ATOM     27  O   UNL     1       6.365   7.431  17.199  0.00  0.00    +0.000 OA
ATOM     28  H   UNL     1       5.498   7.527  17.628  0.00  0.00    +0.000 HD
ENDBRANCH   7  27
TORSDOF 5
ENDMDL
