MODEL 1
REMARK VINA RESULT:      -8.5      0.000      0.000
REMARK  Name = 
REMARK  6 active torsions:
REMARK  status: ('A' for Active; 'I' for Inactive)
REMARK    1  A    between atoms: C_1  and  O_2
REMARK    2  A    between atoms: O_2  and  C_3
REMARK    3  A    between atoms: C_6  and  C_7
REMARK    4  A    between atoms: C_7  and  O_9
REMARK    5  A    between atoms: O_9  and  C_10
REMARK    6  A    between atoms: C_19  and  N_20
REMARK                            x       y       z     vdW  Elec       q    Type
REMARK                         _______ _______ _______ _____ _____    ______ ____
ROOT
ATOM      1  C   UNL     1       6.200   6.702  16.856  0.00  0.00    +0.000 A 
ATOM      2  C   UNL     1       6.904   5.577  16.132  0.00  0.00    +0.000 A 
ATOM      3  C   UNL     1       6.230   4.462  15.757  0.00  0.00    +0.000 A 
ATOM      4  C   UNL     1       5.000   4.492  16.273  0.00  0.00    +0.000 A 
ATOM      5  C   UNL     1       4.654   5.448  17.266  0.00  0.00    +0.000 A 
ATOM      6  C   UNL     1       4.854   6.810  17.370  0.00  0.00    +0.000 A 
ATOM      7  C   UNL     1       3.208   6.904  17.986  0.00  0.00    +0.000 C 
ATOM      8  O   UNL     1       2.672   7.946  18.360  0.00  0.00    +0.000 OA
ATOM      9  C   UNL     1       2.208   5.569  18.034  0.00  0.00    +0.000 C 
ATOM     10  C   UNL     1       2.798   4.366  18.026  0.00  0.00    +0.000 C 
ATOM     11  C   UNL     1       4.117   4.793  18.465  0.00  0.00    +0.000 C 
ATOM     12  O   UNL     1       4.430   5.138  19.598  0.00  0.00    +0.000 OA
ENDROOT
BRANCH  10  13
ATOM     13  N   UNL     1       2.446   3.068  17.755  0.00  0.00    +0.000 N 
ATOM     14  C   UNL     1       3.153   1.932  18.284  0.00  0.00    +0.000 C 
ATOM     15  C   UNL     1       1.671   2.156  18.600  0.00  0.00    +0.000 C 
ENDBRANCH  10  13
BRANCH   1  16
ATOM     16  O   UNL     1       7.217   7.839  16.894  0.00  0.00    +0.000 OA
BRANCH  16  17
ATOM     17  C   UNL     1       8.078   8.084  18.003  0.00  0.00    +0.000 C 
ATOM     18  O   UNL     1       8.361   7.216  18.823  0.00  0.00    +0.000 OA
BRANCH  17  22
ATOM     19  C   UNL     1       9.307  12.183  19.098  0.00  0.00    +0.000 A 
ATOM     20  C   UNL     1       9.646  11.057  19.843  0.00  0.00    +0.000 A 
ATOM     21  C   UNL     1       9.302   9.762  19.401  0.00  0.00    +0.000 A 
ATOM     22  C   UNL     1       8.513   9.540  18.255  0.00  0.00    +0.000 A 
ATOM     23  C   UNL     1       8.266  10.672  17.455  0.00  0.00    +0.000 A 
ATOM     24  C   UNL     1       8.659  11.983  17.879  0.00  0.00    +0.000 A 
BRANCH  19  26
ATOM     25  C   UNL     1      11.145  13.556  19.779  0.00  0.00    +0.000 C 
ATOM     26  O   UNL     1       9.741  13.381  19.602  0.00  0.00    +0.000 OA
ENDBRANCH  19  26
ENDBRANCH  17  22
ENDBRANCH  16  17
ENDBRANCH   1  16
TORSDOF 5
ENDMDL
MODEL 2
REMARK VINA RESULT:      -8.5      0.471      1.035
REMARK  Name = 
REMARK  6 active torsions:
REMARK  status: ('A' for Active; 'I' for Inactive)
REMARK    1  A    between atoms: C_1  and  O_2
REMARK    2  A    between atoms: O_2  and  C_3
REMARK    3  A    between atoms: C_6  and  C_7
REMARK    4  A    between atoms: C_7  and  O_9
REMARK    5  A    between atoms: O_9  and  C_10
REMARK    6  A    between atoms: C_19  and  N_20
REMARK                            x       y       z     vdW  Elec       q    Type
REMARK                         _______ _______ _______ _____ _____    ______ ____
ROOT
ATOM      1  C   UNL     1       6.221   6.736  16.892  0.00  0.00    +0.000 A 
ATOM      2  C   UNL     1       6.927   5.606  16.177  0.00  0.00    +0.000 A 
ATOM      3  C   UNL     1       6.249   4.498  15.790  0.00  0.00    +0.000 A 
ATOM      4  C   UNL     1       5.012   4.537  16.286  0.00  0.00    +0.000 A 
ATOM      5  C   UNL     1       4.658   5.495  17.276  0.00  0.00    +0.000 A 
ATOM      6  C   UNL     1       4.868   6.855  17.385  0.00  0.00    +0.000 A 
ATOM      7  C   UNL     1       3.213   6.962  17.975  0.00  0.00    +0.000 C 
ATOM      8  O   UNL     1       2.681   8.008  18.343  0.00  0.00    +0.000 OA
ATOM      9  C   UNL     1       2.201   5.635  18.005  0.00  0.00    +0.000 C 
ATOM     10  C   UNL     1       2.781   4.427  18.004  0.00  0.00    +0.000 C 
ATOM     11  C   UNL     1       4.096   4.842  18.465  0.00  0.00    +0.000 C 
ATOM     12  O   UNL     1       4.394   5.183  19.603  0.00  0.00    +0.000 OA
ENDROOT
BRANCH  10  13
ATOM     13  N   UNL     1       2.422   3.132  17.725  0.00  0.00    +0.000 N 
ATOM     14  C   UNL     1       3.037   1.991  18.350  0.00  0.00    +0.000 C 
ATOM     15  C   UNL     1       1.537   2.262  18.503  0.00  0.00    +0.000 C 
ENDBRANCH  10  13
BRANCH   1  16
ATOM     16  O   UNL     1       7.246   7.865  16.948  0.00  0.00    +0.000 OA
BRANCH  16  17
ATOM     17  C   UNL     1       8.113   8.083  18.059  0.00  0.00    +0.000 C 
ATOM     18  O   UNL     1       8.408   7.192  18.850  0.00  0.00    +0.000 OA
BRANCH  17  22
ATOM     19  C   UNL     1       9.294  12.312  18.531  0.00  0.00    +0.000 A 
ATOM     20  C   UNL     1       8.378  11.874  17.578  0.00  0.00    +0.000 A 
ATOM     21  C   UNL     1       7.970  10.524  17.529  0.00  0.00    +0.000 A 
ATOM     22  C   UNL     1       8.537   9.533  18.354  0.00  0.00    +0.000 A 
ATOM     23  C   UNL     1       9.379  10.001  19.380  0.00  0.00    +0.000 A 
ATOM     24  C   UNL     1       9.756  11.381  19.462  0.00  0.00    +0.000 A 
BRANCH  19  26
ATOM     25  C   UNL     1      10.851  14.059  18.029  0.00  0.00    +0.000 C 
ATOM     26  O   UNL     1       9.573  13.654  18.515  0.00  0.00    +0.000 OA
ENDBRANCH  19  26
ENDBRANCH  17  22
ENDBRANCH  16  17
ENDBRANCH   1  16
TORSDOF 5
ENDMDL
MODEL 3
REMARK VINA RESULT:      -8.2      3.759      6.712
REMARK  Name = 
REMARK  6 active torsions:
REMARK  status: ('A' for Active; 'I' for Inactive)
REMARK    1  A    between atoms: C_1  and  O_2
REMARK    2  A    between atoms: O_2  and  C_3
REMARK    3  A    between atoms: C_6  and  C_7
REMARK    4  A    between atoms: C_7  and  O_9
REMARK    5  A    between atoms: O_9  and  C_10
REMARK    6  A    between atoms: C_19  and  N_20
REMARK                            x       y       z     vdW  Elec       q    Type
REMARK                         _______ _______ _______ _____ _____    ______ ____
ROOT
ATOM      1  C   UNL     1       3.542   5.946  18.319  0.00  0.00    +0.000 A 
ATOM      2  C   UNL     1       2.518   4.900  17.942  0.00  0.00    +0.000 A 
ATOM      3  C   UNL     1       2.861   3.839  17.172  0.00  0.00    +0.000 A 
ATOM      4  C   UNL     1       4.105   4.000  16.719  0.00  0.00    +0.000 A 
ATOM      5  C   UNL     1       4.768   5.250  16.856  0.00  0.00    +0.000 A 
ATOM      6  C   UNL     1       4.917   6.125  17.914  0.00  0.00    +0.000 A 
ATOM      7  C   UNL     1       6.589   6.312  17.395  0.00  0.00    +0.000 C 
ATOM      8  O   UNL     1       7.396   7.067  17.934  0.00  0.00    +0.000 OA
ATOM      9  C   UNL     1       7.233   5.399  16.155  0.00  0.00    +0.000 C 
ATOM     10  C   UNL     1       6.370   4.862  15.282  0.00  0.00    +0.000 C 
ATOM     11  C   UNL     1       5.244   5.741  15.556  0.00  0.00    +0.000 C 
ATOM     12  O   UNL     1       5.137   6.913  15.217  0.00  0.00    +0.000 OA
ENDROOT
BRANCH  10  13
ATOM     13  N   UNL     1       6.367   3.854  14.351  0.00  0.00    +0.000 N 
ATOM     14  C   UNL     1       5.349   3.713  13.344  0.00  0.00    +0.000 C 
ATOM     15  C   UNL     1       6.816   3.922  12.957  0.00  0.00    +0.000 C 
ENDBRANCH  10  13
BRANCH   1  16
ATOM     16  O   UNL     1       2.842   6.825  19.353  0.00  0.00    +0.000 OA
BRANCH  16  17
ATOM     17  C   UNL     1       2.075   7.977  19.012  0.00  0.00    +0.000 C 
ATOM     18  O   UNL     1       2.074   8.459  17.884  0.00  0.00    +0.000 OA
BRANCH  17  22
ATOM     19  C   UNL     1       0.177  10.444  22.146  0.00  0.00    +0.000 A 
ATOM     20  C   UNL     1       0.301  10.851  20.820  0.00  0.00    +0.000 A 
ATOM     21  C   UNL     1       0.837   9.988  19.841  0.00  0.00    +0.000 A 
ATOM     22  C   UNL     1       1.371   8.724  20.160  0.00  0.00    +0.000 A 
ATOM     23  C   UNL     1       1.145   8.280  21.477  0.00  0.00    +0.000 A 
ATOM     24  C   UNL     1       0.556   9.139  22.460  0.00  0.00    +0.000 A 
BRANCH  19  26
ATOM     25  C   UNL     1      -1.800  11.605  22.833  0.00  0.00    +0.000 C 
ATOM     26  O   UNL     1      -0.406  11.349  22.993  0.00  0.00    +0.000 OA
ENDBRANCH  19  26
ENDBRANCH  17  22
ENDBRANCH  16  17
ENDBRANCH   1  16
TORSDOF 5
ENDMDL
MODEL 4
REMARK VINA RESULT:      -8.0      4.324      6.338
REMARK  Name = 
REMARK  6 active torsions:
REMARK  status: ('A' for Active; 'I' for Inactive)
REMARK    1  A    between atoms: C_1  and  O_2
REMARK    2  A    between atoms: O_2  and  C_3
REMARK    3  A    between atoms: C_6  and  C_7
REMARK    4  A    between atoms: C_7  and  O_9
REMARK    5  A    between atoms: O_9  and  C_10
REMARK    6  A    between atoms: C_19  and  N_20
REMARK                            x       y       z     vdW  Elec       q    Type
REMARK                         _______ _______ _______ _____ _____    ______ ____
ROOT
ATOM      1  C   UNL     1       3.843   4.449  19.285  0.00  0.00    +0.000 A 
ATOM      2  C   UNL     1       2.814   3.719  18.454  0.00  0.00    +0.000 A 
ATOM      3  C   UNL     1       3.172   3.068  17.320  0.00  0.00    +0.000 A 
ATOM      4  C   UNL     1       4.446   3.340  17.033  0.00  0.00    +0.000 A 
ATOM      5  C   UNL     1       5.136   4.377  17.719  0.00  0.00    +0.000 A 
ATOM      6  C   UNL     1       5.246   4.710  19.055  0.00  0.00    +0.000 A 
ATOM      7  C   UNL     1       6.951   5.010  18.737  0.00  0.00    +0.000 C 
ATOM      8  O   UNL     1       7.746   5.421  19.581  0.00  0.00    +0.000 OA
ATOM      9  C   UNL     1       7.643   4.677  17.256  0.00  0.00    +0.000 C 
ATOM     10  C   UNL     1       6.819   4.610  16.201  0.00  0.00    +0.000 C 
ATOM     11  C   UNL     1       5.705   5.347  16.775  0.00  0.00    +0.000 C 
ATOM     12  O   UNL     1       5.654   6.556  16.965  0.00  0.00    +0.000 OA
ENDROOT
BRANCH  10  13
ATOM     13  N   UNL     1       6.844   4.094  14.929  0.00  0.00    +0.000 N 
ATOM     14  C   UNL     1       5.758   4.243  13.997  0.00  0.00    +0.000 C 
ATOM     15  C   UNL     1       7.149   4.802  13.683  0.00  0.00    +0.000 C 
ENDBRANCH  10  13
BRANCH   1  16
ATOM     16  O   UNL     1       3.108   4.841  20.564  0.00  0.00    +0.000 OA
BRANCH  16  17
ATOM     17  C   UNL     1       1.837   5.488  20.571  0.00  0.00    +0.000 C 
ATOM     18  O   UNL     1       0.801   4.901  20.865  0.00  0.00    +0.000 OA
BRANCH  17  22
ATOM     19  C   UNL     1       1.320   9.647  19.179  0.00  0.00    +0.000 A 
ATOM     20  C   UNL     1       0.927   9.207  20.439  0.00  0.00    +0.000 A 
ATOM     21  C   UNL     1       1.195   7.888  20.866  0.00  0.00    +0.000 A 
ATOM     22  C   UNL     1       1.769   6.922  20.016  0.00  0.00    +0.000 A 
ATOM     23  C   UNL     1       2.257   7.403  18.786  0.00  0.00    +0.000 A 
ATOM     24  C   UNL     1       2.028   8.756  18.373  0.00  0.00    +0.000 A 
BRANCH  19  26
ATOM     25  C   UNL     1       0.399  11.734  19.904  0.00  0.00    +0.000 C 
ATOM     26  O   UNL     1       1.052  10.961  18.898  0.00  0.00    +0.000 OA
ENDBRANCH  19  26
ENDBRANCH  17  22
ENDBRANCH  16  17
ENDBRANCH   1  16
TORSDOF 5
ENDMDL
MODEL 5
REMARK VINA RESULT:      -7.8      3.398      7.999
REMARK  Name = 
REMARK  6 active torsions:
REMARK  status: ('A' for Active; 'I' for Inactive)
REMARK    1  A    between atoms: C_1  and  O_2
REMARK    2  A    between atoms: O_2  and  C_3
REMARK    3  A    between atoms: C_6  and  C_7
REMARK    4  A    between atoms: C_7  and  O_9
REMARK    5  A    between atoms: O_9  and  C_10
REMARK    6  A    between atoms: C_19  and  N_20
REMARK                            x       y       z     vdW  Elec       q    Type
REMARK                         _______ _______ _______ _____ _____    ______ ____
ROOT
ATOM      1  C   UNL     1       2.695   4.673  17.417  0.00  0.00    +0.000 A 
ATOM      2  C   UNL     1       2.022   5.819  18.139  0.00  0.00    +0.000 A 
ATOM      3  C   UNL     1       2.647   7.013  18.281  0.00  0.00    +0.000 A 
ATOM      4  C   UNL     1       3.909   6.908  17.861  0.00  0.00    +0.000 A 
ATOM      5  C   UNL     1       4.477   5.634  17.589  0.00  0.00    +0.000 A 
ATOM      6  C   UNL     1       4.029   4.536  16.881  0.00  0.00    +0.000 A 
ATOM      7  C   UNL     1       5.665   4.405  16.243  0.00  0.00    +0.000 C 
ATOM      8  O   UNL     1       6.036   3.514  15.480  0.00  0.00    +0.000 OA
ATOM      9  C   UNL     1       6.833   5.549  16.574  0.00  0.00    +0.000 C 
ATOM     10  C   UNL     1       6.654   6.305  17.666  0.00  0.00    +0.000 C 
ATOM     11  C   UNL     1       5.715   5.433  18.354  0.00  0.00    +0.000 C 
ATOM     12  O   UNL     1       5.978   4.374  18.910  0.00  0.00    +0.000 OA
ENDROOT
BRANCH  10  13
ATOM     13  N   UNL     1       7.120   7.498  18.159  0.00  0.00    +0.000 N 
ATOM     14  C   UNL     1       8.485   7.704  18.565  0.00  0.00    +0.000 C 
ATOM     15  C   UNL     1       7.862   8.535  17.439  0.00  0.00    +0.000 C 
ENDBRANCH  10  13
BRANCH   1  16
ATOM     16  O   UNL     1       1.608   3.612  17.268  0.00  0.00    +0.000 OA
BRANCH  16  17
ATOM     17  C   UNL     1       1.357   2.604  18.244  0.00  0.00    +0.000 C 
ATOM     18  O   UNL     1       0.224   2.225  18.523  0.00  0.00    +0.000 OA
BRANCH  17  22
ATOM     19  C   UNL     1       4.749   1.537  20.863  0.00  0.00    +0.000 A 
ATOM     20  C   UNL     1       3.643   2.261  21.299  0.00  0.00    +0.000 A 
ATOM     21  C   UNL     1       2.546   2.500  20.443  0.00  0.00    +0.000 A 
ATOM     22  C   UNL     1       2.551   2.120  19.087  0.00  0.00    +0.000 A 
ATOM     23  C   UNL     1       3.622   1.300  18.685  0.00  0.00    +0.000 A 
ATOM     24  C   UNL     1       4.713   1.016  19.569  0.00  0.00    +0.000 A 
BRANCH  19  26
ATOM     25  C   UNL     1       6.107  -0.023  22.067  0.00  0.00    +0.000 C 
ATOM     26  O   UNL     1       5.727   1.325  21.799  0.00  0.00    +0.000 OA
ENDBRANCH  19  26
ENDBRANCH  17  22
ENDBRANCH  16  17
ENDBRANCH   1  16
TORSDOF 5
ENDMDL
MODEL 6
REMARK VINA RESULT:      -7.8      4.019      6.096
REMARK  Name = 
REMARK  6 active torsions:
REMARK  status: ('A' for Active; 'I' for Inactive)
REMARK    1  A    between atoms: C_1  and  O_2
REMARK    2  A    between atoms: O_2  and  C_3
REMARK    3  A    between atoms: C_6  and  C_7
REMARK    4  A    between atoms: C_7  and  O_9
REMARK    5  A    between atoms: O_9  and  C_10
REMARK    6  A    between atoms: C_19  and  N_20
REMARK                            x       y       z     vdW  Elec       q    Type
REMARK                         _______ _______ _______ _____ _____    ______ ____
ROOT
ATOM      1  C   UNL     1       4.190   5.244  18.470  0.00  0.00    +0.000 A 
ATOM      2  C   UNL     1       3.100   4.237  18.182  0.00  0.00    +0.000 A 
ATOM      3  C   UNL     1       3.273   3.275  17.244  0.00  0.00    +0.000 A 
ATOM      4  C   UNL     1       4.406   3.500  16.578  0.00  0.00    +0.000 A 
ATOM      5  C   UNL     1       5.099   4.733  16.726  0.00  0.00    +0.000 A 
ATOM      6  C   UNL     1       5.462   5.482  17.828  0.00  0.00    +0.000 A 
ATOM      7  C   UNL     1       7.003   5.744  17.017  0.00  0.00    +0.000 C 
ATOM      8  O   UNL     1       7.909   6.441  17.471  0.00  0.00    +0.000 OA
ATOM      9  C   UNL     1       7.381   4.987  15.579  0.00  0.00    +0.000 C 
ATOM     10  C   UNL     1       6.358   4.545  14.835  0.00  0.00    +0.000 C 
ATOM     11  C   UNL     1       5.318   5.375  15.423  0.00  0.00    +0.000 C 
ATOM     12  O   UNL     1       5.161   6.577  15.249  0.00  0.00    +0.000 OA
ENDROOT
BRANCH  10  13
ATOM     13  N   UNL     1       6.161   3.651  13.813  0.00  0.00    +0.000 N 
ATOM     14  C   UNL     1       5.136   3.806  12.816  0.00  0.00    +0.000 C 
ATOM     15  C   UNL     1       6.616   3.765  12.425  0.00  0.00    +0.000 C 
ENDBRANCH  10  13
BRANCH   1  16
ATOM     16  O   UNL     1       3.716   5.989  19.714  0.00  0.00    +0.000 OA
BRANCH  16  17
ATOM     17  C   UNL     1       2.346   6.282  19.979  0.00  0.00    +0.000 C 
ATOM     18  O   UNL     1       1.532   5.413  20.273  0.00  0.00    +0.000 OA
BRANCH  17  22
ATOM     19  C   UNL     1       1.265  10.446  18.979  0.00  0.00    +0.000 A 
ATOM     20  C   UNL     1       1.910   9.587  18.093  0.00  0.00    +0.000 A 
ATOM     21  C   UNL     1       2.154   8.239  18.432  0.00  0.00    +0.000 A 
ATOM     22  C   UNL     1       1.863   7.718  19.708  0.00  0.00    +0.000 A 
ATOM     23  C   UNL     1       1.118   8.559  20.556  0.00  0.00    +0.000 A 
ATOM     24  C   UNL     1       0.827   9.914  20.192  0.00  0.00    +0.000 A 
BRANCH  19  26
ATOM     25  C   UNL     1       2.168  12.563  18.325  0.00  0.00    +0.000 C 
ATOM     26  O   UNL     1       1.037  11.715  18.517  0.00  0.00    +0.000 OA
ENDBRANCH  19  26
ENDBRANCH  17  22
ENDBRANCH  16  17
ENDBRANCH   1  16
TORSDOF 5
ENDMDL
MODEL 7
REMARK VINA RESULT:      -7.5      4.909      7.311
REMARK  Name = 
REMARK  6 active torsions:
REMARK  status: ('A' for Active; 'I' for Inactive)
REMARK    1  A    between atoms: C_1  and  O_2
REMARK    2  A    between atoms: O_2  and  C_3
REMARK    3  A    between atoms: C_6  and  C_7
REMARK    4  A    between atoms: C_7  and  O_9
REMARK    5  A    between atoms: O_9  and  C_10
REMARK    6  A    between atoms: C_19  and  N_20
REMARK                            x       y       z     vdW  Elec       q    Type
REMARK                         _______ _______ _______ _____ _____    ______ ____
ROOT
ATOM      1  C   UNL     1       1.932   7.517  20.279  0.00  0.00    +0.000 A 
ATOM      2  C   UNL     1       1.946   8.569  19.193  0.00  0.00    +0.000 A 
ATOM      3  C   UNL     1       2.145   8.228  17.897  0.00  0.00    +0.000 A 
ATOM      4  C   UNL     1       2.474   6.937  17.822  0.00  0.00    +0.000 A 
ATOM      5  C   UNL     1       2.805   6.205  18.995  0.00  0.00    +0.000 A 
ATOM      6  C   UNL     1       2.210   6.100  20.237  0.00  0.00    +0.000 A 
ATOM      7  C   UNL     1       2.559   4.377  20.147  0.00  0.00    +0.000 C 
ATOM      8  O   UNL     1       2.302   3.576  21.044  0.00  0.00    +0.000 OA
ATOM      9  C   UNL     1       3.207   3.680  18.776  0.00  0.00    +0.000 C 
ATOM     10  C   UNL     1       3.864   4.489  17.934  0.00  0.00    +0.000 C 
ATOM     11  C   UNL     1       4.124   5.573  18.868  0.00  0.00    +0.000 C 
ATOM     12  O   UNL     1       4.939   5.565  19.782  0.00  0.00    +0.000 OA
ENDROOT
BRANCH  10  13
ATOM     13  N   UNL     1       4.271   4.471  16.624  0.00  0.00    +0.000 N 
ATOM     14  C   UNL     1       5.238   5.391  16.085  0.00  0.00    +0.000 C 
ATOM     15  C   UNL     1       5.495   3.881  16.075  0.00  0.00    +0.000 C 
ENDBRANCH  10  13
BRANCH   1  16
ATOM     16  O   UNL     1       1.460   8.252  21.530  0.00  0.00    +0.000 OA
BRANCH  16  17
ATOM     17  C   UNL     1       0.127   8.723  21.707  0.00  0.00    +0.000 C 
ATOM     18  O   UNL     1      -0.852   7.992  21.591  0.00  0.00    +0.000 OA
BRANCH  17  22
ATOM     19  C   UNL     1      -0.796  13.000  22.312  0.00  0.00    +0.000 A 
ATOM     20  C   UNL     1      -1.308  11.984  23.116  0.00  0.00    +0.000 A 
ATOM     21  C   UNL     1      -0.911  10.642  22.933  0.00  0.00    +0.000 A 
ATOM     22  C   UNL     1      -0.073  10.240  21.875  0.00  0.00    +0.000 A 
ATOM     23  C   UNL     1       0.521  11.282  21.136  0.00  0.00    +0.000 A 
ATOM     24  C   UNL     1       0.155  12.650  21.354  0.00  0.00    +0.000 A 
BRANCH  19  26
ATOM     25  C   UNL     1      -1.681  14.509  23.946  0.00  0.00    +0.000 C 
ATOM     26  O   UNL     1      -1.215  14.268  22.619  0.00  0.00    +0.000 OA
ENDBRANCH  19  26
ENDBRANCH  17  22
ENDBRANCH  16  17
ENDBRANCH   1  16
TORSDOF 5
ENDMDL
MODEL 8
REMARK VINA RESULT:      -7.3      4.734      8.180
REMARK  Name = 
REMARK  6 active torsions:
REMARK  status: ('A' for Active; 'I' for Inactive)
REMARK    1  A    between atoms: C_1  and  O_2
REMARK    2  A    between atoms: O_2  and  C_3
REMARK    3  A    between atoms: C_6  and  C_7
REMARK    4  A    between atoms: C_7  and  O_9
REMARK    5  A    between atoms: O_9  and  C_10
REMARK    6  A    between atoms: C_19  and  N_20
REMARK                            x       y       z     vdW  Elec       q    Type
REMARK                         _______ _______ _______ _____ _____    ______ ____
ROOT
ATOM      1  C   UNL     1       1.860   8.529  18.654  0.00  0.00    +0.000 A 
ATOM      2  C   UNL     1       1.140   8.527  19.984  0.00  0.00    +0.000 A 
ATOM      3  C   UNL     1       1.469   7.635  20.950  0.00  0.00    +0.000 A 
ATOM      4  C   UNL     1       2.332   6.744  20.459  0.00  0.00    +0.000 A 
ATOM      5  C   UNL     1       2.582   6.673  19.061  0.00  0.00    +0.000 A 
ATOM      6  C   UNL     1       2.850   7.632  18.105  0.00  0.00    +0.000 A 
ATOM      7  C   UNL     1       4.054   6.517  17.467  0.00  0.00    +0.000 C 
ATOM      8  O   UNL     1       4.734   6.737  16.467  0.00  0.00    +0.000 OA
ATOM      9  C   UNL     1       4.420   5.083  18.238  0.00  0.00    +0.000 C 
ATOM     10  C   UNL     1       3.497   4.586  19.072  0.00  0.00    +0.000 C 
ATOM     11  C   UNL     1       2.352   5.316  18.552  0.00  0.00    +0.000 C 
ATOM     12  O   UNL     1       1.772   5.101  17.494  0.00  0.00    +0.000 OA
ENDROOT
BRANCH  10  13
ATOM     13  N   UNL     1       3.446   3.681  20.103  0.00  0.00    +0.000 N 
ATOM     14  C   UNL     1       2.513   2.586  20.145  0.00  0.00    +0.000 C 
ATOM     15  C   UNL     1       4.024   2.336  20.142  0.00  0.00    +0.000 C 
ENDBRANCH  10  13
BRANCH   1  16
ATOM     16  O   UNL     1       1.376   9.793  17.950  0.00  0.00    +0.000 OA
BRANCH  16  17
ATOM     17  C   UNL     1       0.529  10.759  18.566  0.00  0.00    +0.000 C 
ATOM     18  O   UNL     1       0.918  11.503  19.461  0.00  0.00    +0.000 OA
BRANCH  17  22
ATOM     19  C   UNL     1      -3.832  10.803  17.864  0.00  0.00    +0.000 A 
ATOM     20  C   UNL     1      -3.174  11.738  18.659  0.00  0.00    +0.000 A 
ATOM     21  C   UNL     1      -1.768  11.731  18.779  0.00  0.00    +0.000 A 
ATOM     22  C   UNL     1      -0.966  10.727  18.200  0.00  0.00    +0.000 A 
ATOM     23  C   UNL     1      -1.626   9.852  17.316  0.00  0.00    +0.000 A 
ATOM     24  C   UNL     1      -3.050   9.891  17.156  0.00  0.00    +0.000 A 
BRANCH  19  26
ATOM     25  C   UNL     1      -5.703  12.178  17.286  0.00  0.00    +0.000 C 
ATOM     26  O   UNL     1      -5.192  10.943  17.785  0.00  0.00    +0.000 OA
ENDBRANCH  19  26
ENDBRANCH  17  22
ENDBRANCH  16  17
ENDBRANCH   1  16
TORSDOF 5
ENDMDL
MODEL 9
REMARK VINA RESULT:      -7.3      5.066      7.817
REMARK  Name = 
REMARK  6 active torsions:
REMARK  status: ('A' for Active; 'I' for Inactive)
REMARK    1  A    between atoms: C_1  and  O_2
REMARK    2  A    between atoms: O_2  and  C_3
REMARK    3  A    between atoms: C_6  and  C_7
REMARK    4  A    between atoms: C_7  and  O_9
REMARK    5  A    between atoms: O_9  and  C_10
REMARK    6  A    between atoms: C_19  and  N_20
REMARK                            x       y       z     vdW  Elec       q    Type
REMARK                         _______ _______ _______ _____ _____    ______ ____
ROOT
ATOM      1  C   UNL     1       1.867   7.617  19.913  0.00  0.00    +0.000 A 
ATOM      2  C   UNL     1       2.228   7.611  18.445  0.00  0.00    +0.000 A 
ATOM      3  C   UNL     1       2.248   8.762  17.730  0.00  0.00    +0.000 A 
ATOM      4  C   UNL     1       1.755   9.755  18.471  0.00  0.00    +0.000 A 
ATOM      5  C   UNL     1       1.089   9.482  19.697  0.00  0.00    +0.000 A 
ATOM      6  C   UNL     1       1.398   8.677  20.775  0.00  0.00    +0.000 A 
ATOM      7  C   UNL     1       0.825   9.994  21.794  0.00  0.00    +0.000 C 
ATOM      8  O   UNL     1       0.775   9.941  23.022  0.00  0.00    +0.000 OA
ATOM      9  C   UNL     1       0.374  11.469  21.157  0.00  0.00    +0.000 C 
ATOM     10  C   UNL     1       0.028  11.492  19.862  0.00  0.00    +0.000 C 
ATOM     11  C   UNL     1      -0.254  10.074  19.710  0.00  0.00    +0.000 C 
ATOM     12  O   UNL     1      -1.231   9.475  20.146  0.00  0.00    +0.000 OA
ENDROOT
BRANCH  10  13
ATOM     13  N   UNL     1      -0.103  12.427  18.866  0.00  0.00    +0.000 N 
ATOM     14  C   UNL     1      -0.449  13.801  19.115  0.00  0.00    +0.000 C 
ATOM     15  C   UNL     1       0.879  13.431  18.447  0.00  0.00    +0.000 C 
ENDBRANCH  10  13
BRANCH   1  16
ATOM     16  O   UNL     1       2.177   6.204  20.399  0.00  0.00    +0.000 OA
BRANCH  16  17
ATOM     17  C   UNL     1       2.096   5.052  19.563  0.00  0.00    +0.000 C 
ATOM     18  O   UNL     1       1.171   4.250  19.634  0.00  0.00    +0.000 OA
BRANCH  17  22
ATOM     19  C   UNL     1       5.763   4.434  17.180  0.00  0.00    +0.000 A 
ATOM     20  C   UNL     1       5.771   4.909  18.489  0.00  0.00    +0.000 A 
ATOM     21  C   UNL     1       4.577   5.004  19.235  0.00  0.00    +0.000 A 
ATOM     22  C   UNL     1       3.313   4.734  18.675  0.00  0.00    +0.000 A 
ATOM     23  C   UNL     1       3.325   4.157  17.391  0.00  0.00    +0.000 A 
ATOM     24  C   UNL     1       4.543   4.014  16.651  0.00  0.00    +0.000 A 
BRANCH  19  26
ATOM     25  C   UNL     1       7.075   4.671  15.192  0.00  0.00    +0.000 C 
ATOM     26  O   UNL     1       6.989   4.337  16.577  0.00  0.00    +0.000 OA
ENDBRANCH  19  26
ENDBRANCH  17  22
ENDBRANCH  16  17
ENDBRANCH   1  16
TORSDOF 5
ENDMDL
