MODEL 1
REMARK VINA RESULT:      -7.8      0.000      0.000
REMARK  Name = 
REMARK  4 active torsions:
REMARK  status: ('A' for Active; 'I' for Inactive)
REMARK    1  A    between atoms: C_1  and  C_2
REMARK    2  A    between atoms: C_6  and  C_7
REMARK    3  A    between atoms: C_11  and  N_12
REMARK    4  A    between atoms: C_19  and  C_20
REMARK                            x       y       z     vdW  Elec       q    Type
REMARK                         _______ _______ _______ _____ _____    ______ ____
ROOT
ATOM      1  C   UNL     1       7.399   6.937  17.517  0.00  0.00    +0.000 C 
ATOM      2  N   UNL     1       8.019   6.640  18.621  0.00  0.00    +0.000 NA
ATOM      3  N   UNL     1       8.595   7.805  18.950  0.00  0.00    +0.000 N 
ATOM      4  C   UNL     1       8.209   8.771  18.059  0.00  0.00    +0.000 C 
ATOM      5  C   UNL     1       8.554  10.070  18.122  0.00  0.00    +0.000 C 
ATOM      6  O   UNL     1       7.387   8.244  17.072  0.00  0.00    +0.000 OA
ATOM      7  H   UNL     1       8.566   8.111  19.920  0.00  0.00    +0.000 HD
ENDROOT
BRANCH   5   8
ATOM      8  N   UNL     1       9.516  10.629  18.956  0.00  0.00    +0.000 N 
ATOM      9  C   UNL     1       9.333  10.756  20.417  0.00  0.00    +0.000 C 
ATOM     10  C   UNL     1       9.346  12.229  20.819  0.00  0.00    +0.000 C 
ATOM     11  N   UNL     1      10.453  12.924  20.200  0.00  0.00    +0.000 N 
ATOM     12  C   UNL     1      11.158  12.451  19.121  0.00  0.00    +0.000 A 
ATOM     13  N   UNL     1      12.067  13.343  18.792  0.00  0.00    +0.000 NA
ATOM     14  N   UNL     1      11.908  14.434  19.629  0.00  0.00    +0.000 NA
ATOM     15  C   UNL     1      10.914  14.178  20.453  0.00  0.00    +0.000 A 
ATOM     16  C   UNL     1      10.829  11.131  18.495  0.00  0.00    +0.000 C 
BRANCH  15  17
ATOM     17  C   UNL     1      10.358  15.149  21.486  0.00  0.00    +0.000 C 
ATOM     18  C   UNL     1      10.440  16.633  21.204  0.00  0.00    +0.000 C 
ATOM     19  C   UNL     1       9.123  15.943  21.112  0.00  0.00    +0.000 C 
ENDBRANCH  15  17
ENDBRANCH   5   8
BRANCH   1  25
ATOM     20  C   UNL     1       4.394   5.807  17.750  0.00  0.00    +0.000 C 
ATOM     21  C   UNL     1       5.449   5.449  16.766  0.00  0.00    +0.000 A 
ATOM     22  C   UNL     1       5.364   4.474  15.736  0.00  0.00    +0.000 A 
ATOM     23  C   UNL     1       6.575   4.483  15.088  0.00  0.00    +0.000 A 
ATOM     24  O   UNL     1       7.410   5.393  15.650  0.00  0.00    +0.000 OA
ATOM     25  C   UNL     1       6.734   5.979  16.685  0.00  0.00    +0.000 A 
ENDBRANCH   1  25
TORSDOF 3
ENDMDL
MODEL 2
REMARK VINA RESULT:      -7.0      1.432      1.516
REMARK  Name = 
REMARK  4 active torsions:
REMARK  status: ('A' for Active; 'I' for Inactive)
REMARK    1  A    between atoms: C_1  and  C_2
REMARK    2  A    between atoms: C_6  and  C_7
REMARK    3  A    between atoms: C_11  and  N_12
REMARK    4  A    between atoms: C_19  and  C_20
REMARK                            x       y       z     vdW  Elec       q    Type
REMARK                         _______ _______ _______ _____ _____    ______ ____
ROOT
ATOM      1  C   UNL     1       7.420   7.381  17.728  0.00  0.00    +0.000 C 
ATOM      2  N   UNL     1       8.293   7.224  18.679  0.00  0.00    +0.000 NA
ATOM      3  N   UNL     1       8.825   8.450  18.787  0.00  0.00    +0.000 N 
ATOM      4  C   UNL     1       8.169   9.307  17.944  0.00  0.00    +0.000 C 
ATOM      5  C   UNL     1       8.406  10.627  17.837  0.00  0.00    +0.000 C 
ATOM      6  O   UNL     1       7.196   8.641  17.209  0.00  0.00    +0.000 OA
ATOM      7  H   UNL     1       8.986   8.835  19.715  0.00  0.00    +0.000 HD
ENDROOT
BRANCH   5   8
ATOM      8  N   UNL     1       9.477  11.320  18.390  0.00  0.00    +0.000 N 
ATOM      9  C   UNL     1       9.405  11.992  19.704  0.00  0.00    +0.000 C 
ATOM     10  C   UNL     1       9.613  13.495  19.534  0.00  0.00    +0.000 C 
ATOM     11  N   UNL     1      10.750  13.767  18.683  0.00  0.00    +0.000 N 
ATOM     12  C   UNL     1      11.325  12.847  17.841  0.00  0.00    +0.000 A 
ATOM     13  N   UNL     1      12.307  13.432  17.191  0.00  0.00    +0.000 NA
ATOM     14  N   UNL     1      12.329  14.763  17.569  0.00  0.00    +0.000 NA
ATOM     15  C   UNL     1      11.367  14.956  18.447  0.00  0.00    +0.000 A 
ATOM     16  C   UNL     1      10.807  11.444  17.752  0.00  0.00    +0.000 C 
BRANCH  15  17
ATOM     17  C   UNL     1      10.994  16.299  19.060  0.00  0.00    +0.000 C 
ATOM     18  C   UNL     1      10.675  17.453  18.136  0.00  0.00    +0.000 C 
ATOM     19  C   UNL     1       9.570  16.784  18.877  0.00  0.00    +0.000 C 
ENDBRANCH  15  17
ENDBRANCH   5   8
BRANCH   1  25
ATOM     20  C   UNL     1       4.230   7.078  17.431  0.00  0.00    +0.000 C 
ATOM     21  C   UNL     1       5.297   6.133  17.012  0.00  0.00    +0.000 A 
ATOM     22  C   UNL     1       5.122   4.849  16.428  0.00  0.00    +0.000 A 
ATOM     23  C   UNL     1       6.382   4.340  16.220  0.00  0.00    +0.000 A 
ATOM     24  O   UNL     1       7.326   5.219  16.641  0.00  0.00    +0.000 OA
ATOM     25  C   UNL     1       6.672   6.312  17.138  0.00  0.00    +0.000 A 
ENDBRANCH   1  25
TORSDOF 3
ENDMDL
MODEL 3
REMARK VINA RESULT:      -7.0      1.009      1.408
REMARK  Name = 
REMARK  4 active torsions:
REMARK  status: ('A' for Active; 'I' for Inactive)
REMARK    1  A    between atoms: C_1  and  C_2
REMARK    2  A    between atoms: C_6  and  C_7
REMARK    3  A    between atoms: C_11  and  N_12
REMARK    4  A    between atoms: C_19  and  C_20
REMARK                            x       y       z     vdW  Elec       q    Type
REMARK                         _______ _______ _______ _____ _____    ______ ____
ROOT
ATOM      1  C   UNL     1       7.053   6.552  17.644  0.00  0.00    +0.000 C 
ATOM      2  N   UNL     1       7.907   6.337  18.602  0.00  0.00    +0.000 NA
ATOM      3  N   UNL     1       8.477   7.540  18.756  0.00  0.00    +0.000 N 
ATOM      4  C   UNL     1       7.862   8.444  17.932  0.00  0.00    +0.000 C 
ATOM      5  C   UNL     1       8.144   9.759  17.869  0.00  0.00    +0.000 C 
ATOM      6  O   UNL     1       6.879   7.835  17.163  0.00  0.00    +0.000 OA
ATOM      7  H   UNL     1       8.637   7.891  19.697  0.00  0.00    +0.000 HD
ENDROOT
BRANCH   5   8
ATOM      8  N   UNL     1       9.229  10.398  18.459  0.00  0.00    +0.000 N 
ATOM      9  C   UNL     1       9.387  10.525  19.922  0.00  0.00    +0.000 C 
ATOM     10  C   UNL     1       9.380  11.999  20.322  0.00  0.00    +0.000 C 
ATOM     11  N   UNL     1      10.252  12.772  19.465  0.00  0.00    +0.000 N 
ATOM     12  C   UNL     1      10.718  12.343  18.247  0.00  0.00    +0.000 A 
ATOM     13  N   UNL     1      11.452  13.299  17.720  0.00  0.00    +0.000 NA
ATOM     14  N   UNL     1      11.411  14.384  18.580  0.00  0.00    +0.000 NA
ATOM     15  C   UNL     1      10.662  14.060  19.613  0.00  0.00    +0.000 A 
ATOM     16  C   UNL     1      10.354  10.995  17.704  0.00  0.00    +0.000 C 
BRANCH  15  17
ATOM     17  C   UNL     1      10.292  14.995  20.756  0.00  0.00    +0.000 C 
ATOM     18  C   UNL     1      10.284  16.485  20.499  0.00  0.00    +0.000 C 
ATOM     19  C   UNL     1       8.990  15.762  20.644  0.00  0.00    +0.000 C 
ENDBRANCH  15  17
ENDBRANCH   5   8
BRANCH   1  25
ATOM     20  C   UNL     1       7.431   5.259  14.721  0.00  0.00    +0.000 C 
ATOM     21  C   UNL     1       6.395   4.961  15.744  0.00  0.00    +0.000 A 
ATOM     22  C   UNL     1       5.301   4.062  15.618  0.00  0.00    +0.000 A 
ATOM     23  C   UNL     1       4.608   4.121  16.803  0.00  0.00    +0.000 A 
ATOM     24  O   UNL     1       5.194   5.001  17.654  0.00  0.00    +0.000 OA
ATOM     25  C   UNL     1       6.279   5.528  17.010  0.00  0.00    +0.000 A 
ENDBRANCH   1  25
TORSDOF 3
ENDMDL
MODEL 4
REMARK VINA RESULT:      -6.9      6.991      8.098
REMARK  Name = 
REMARK  4 active torsions:
REMARK  status: ('A' for Active; 'I' for Inactive)
REMARK    1  A    between atoms: C_1  and  C_2
REMARK    2  A    between atoms: C_6  and  C_7
REMARK    3  A    between atoms: C_11  and  N_12
REMARK    4  A    between atoms: C_19  and  C_20
REMARK                            x       y       z     vdW  Elec       q    Type
REMARK                         _______ _______ _______ _____ _____    ______ ____
ROOT
ATOM      1  C   UNL     1       4.095   6.084  17.488  0.00  0.00    +0.000 C 
ATOM      2  N   UNL     1       3.049   5.479  17.969  0.00  0.00    +0.000 NA
ATOM      3  N   UNL     1       2.272   6.503  18.348  0.00  0.00    +0.000 N 
ATOM      4  C   UNL     1       2.865   7.683  17.985  0.00  0.00    +0.000 C 
ATOM      5  C   UNL     1       2.335   8.907  18.161  0.00  0.00    +0.000 C 
ATOM      6  O   UNL     1       4.098   7.461  17.386  0.00  0.00    +0.000 OA
ATOM      7  H   UNL     1       1.277   6.467  18.140  0.00  0.00    +0.000 HD
ENDROOT
BRANCH   5   8
ATOM      8  N   UNL     1       1.210   9.218  18.916  0.00  0.00    +0.000 N 
ATOM      9  C   UNL     1       0.063   9.974  18.371  0.00  0.00    +0.000 C 
ATOM     10  C   UNL     1      -0.105  11.288  19.131  0.00  0.00    +0.000 C 
ATOM     11  N   UNL     1      -0.038  11.072  20.559  0.00  0.00    +0.000 N 
ATOM     12  C   UNL     1       0.478   9.944  21.148  0.00  0.00    +0.000 A 
ATOM     13  N   UNL     1       0.419  10.089  22.454  0.00  0.00    +0.000 NA
ATOM     14  N   UNL     1      -0.085  11.352  22.714  0.00  0.00    +0.000 NA
ATOM     15  C   UNL     1      -0.329  11.942  21.563  0.00  0.00    +0.000 A 
ATOM     16  C   UNL     1       1.015   8.812  20.326  0.00  0.00    +0.000 C 
BRANCH  15  17
ATOM     17  C   UNL     1      -0.817  13.374  21.396  0.00  0.00    +0.000 C 
ATOM     18  C   UNL     1      -0.553  14.364  22.509  0.00  0.00    +0.000 C 
ATOM     19  C   UNL     1       0.228  14.461  21.245  0.00  0.00    +0.000 C 
ENDBRANCH  15  17
ENDBRANCH   5   8
BRANCH   1  25
ATOM     20  C   UNL     1       6.750   5.453  19.193  0.00  0.00    +0.000 C 
ATOM     21  C   UNL     1       6.465   5.146  17.767  0.00  0.00    +0.000 A 
ATOM     22  C   UNL     1       7.347   4.545  16.829  0.00  0.00    +0.000 A 
ATOM     23  C   UNL     1       6.660   4.469  15.641  0.00  0.00    +0.000 A 
ATOM     24  O   UNL     1       5.414   4.988  15.777  0.00  0.00    +0.000 OA
ATOM     25  C   UNL     1       5.291   5.416  17.071  0.00  0.00    +0.000 A 
ENDBRANCH   1  25
TORSDOF 3
ENDMDL
MODEL 5
REMARK VINA RESULT:      -6.9      7.888      9.808
REMARK  Name = 
REMARK  4 active torsions:
REMARK  status: ('A' for Active; 'I' for Inactive)
REMARK    1  A    between atoms: C_1  and  C_2
REMARK    2  A    between atoms: C_6  and  C_7
REMARK    3  A    between atoms: C_11  and  N_12
REMARK    4  A    between atoms: C_19  and  C_20
REMARK                            x       y       z     vdW  Elec       q    Type
REMARK                         _______ _______ _______ _____ _____    ______ ____
ROOT
ATOM      1  C   UNL     1       2.982   6.883  18.467  0.00  0.00    +0.000 C 
ATOM      2  N   UNL     1       3.090   7.807  17.558  0.00  0.00    +0.000 NA
ATOM      3  N   UNL     1       2.289   8.771  18.031  0.00  0.00    +0.000 N 
ATOM      4  C   UNL     1       1.809   8.403  19.259  0.00  0.00    +0.000 C 
ATOM      5  C   UNL     1       1.020   9.158  20.046  0.00  0.00    +0.000 C 
ATOM      6  O   UNL     1       2.256   7.137  19.613  0.00  0.00    +0.000 OA
ATOM      7  H   UNL     1       2.607   9.737  17.991  0.00  0.00    +0.000 HD
ENDROOT
BRANCH   5   8
ATOM      8  N   UNL     1       0.383  10.339  19.683  0.00  0.00    +0.000 N 
ATOM      9  C   UNL     1       0.660  11.634  20.338  0.00  0.00    +0.000 C 
ATOM     10  C   UNL     1      -0.602  12.154  21.024  0.00  0.00    +0.000 C 
ATOM     11  N   UNL     1      -1.745  12.059  20.142  0.00  0.00    +0.000 N 
ATOM     12  C   UNL     1      -1.790  11.276  19.015  0.00  0.00    +0.000 A 
ATOM     13  N   UNL     1      -2.982  11.395  18.471  0.00  0.00    +0.000 NA
ATOM     14  N   UNL     1      -3.738  12.217  19.290  0.00  0.00    +0.000 NA
ATOM     15  C   UNL     1      -2.988  12.586  20.307  0.00  0.00    +0.000 A 
ATOM     16  C   UNL     1      -0.616  10.447  18.596  0.00  0.00    +0.000 C 
BRANCH  15  17
ATOM     17  C   UNL     1      -3.457  13.429  21.484  0.00  0.00    +0.000 C 
ATOM     18  C   UNL     1      -4.929  13.433  21.831  0.00  0.00    +0.000 C 
ATOM     19  C   UNL     1      -3.973  12.703  22.709  0.00  0.00    +0.000 C 
ENDBRANCH  15  17
ENDBRANCH   5   8
BRANCH   1  25
ATOM     20  C   UNL     1       1.535   4.120  17.671  0.00  0.00    +0.000 C 
ATOM     21  C   UNL     1       2.956   4.354  18.039  0.00  0.00    +0.000 A 
ATOM     22  C   UNL     1       3.979   3.376  18.168  0.00  0.00    +0.000 A 
ATOM     23  C   UNL     1       5.120   4.050  18.532  0.00  0.00    +0.000 A 
ATOM     24  O   UNL     1       4.873   5.380  18.642  0.00  0.00    +0.000 OA
ATOM     25  C   UNL     1       3.550   5.573  18.355  0.00  0.00    +0.000 A 
ENDBRANCH   1  25
TORSDOF 3
ENDMDL
MODEL 6
REMARK VINA RESULT:      -6.9      2.502      9.305
REMARK  Name = 
REMARK  4 active torsions:
REMARK  status: ('A' for Active; 'I' for Inactive)
REMARK    1  A    between atoms: C_1  and  C_2
REMARK    2  A    between atoms: C_6  and  C_7
REMARK    3  A    between atoms: C_11  and  N_12
REMARK    4  A    between atoms: C_19  and  C_20
REMARK                            x       y       z     vdW  Elec       q    Type
REMARK                         _______ _______ _______ _____ _____    ______ ____
ROOT
ATOM      1  C   UNL     1       8.870  10.373  18.610  0.00  0.00    +0.000 C 
ATOM      2  N   UNL     1       9.394   9.434  19.342  0.00  0.00    +0.000 NA
ATOM      3  N   UNL     1       8.794   8.332  18.870  0.00  0.00    +0.000 N 
ATOM      4  C   UNL     1       7.999   8.667  17.806  0.00  0.00    +0.000 C 
ATOM      5  C   UNL     1       7.294   7.799  17.057  0.00  0.00    +0.000 C 
ATOM      6  O   UNL     1       8.021  10.036  17.575  0.00  0.00    +0.000 OA
ATOM      7  H   UNL     1       9.354   7.497  18.712  0.00  0.00    +0.000 HD
ENDROOT
BRANCH   5   8
ATOM      8  N   UNL     1       7.072   6.456  17.341  0.00  0.00    +0.000 N 
ATOM      9  C   UNL     1       6.847   5.441  16.291  0.00  0.00    +0.000 C 
ATOM     10  C   UNL     1       5.455   4.832  16.443  0.00  0.00    +0.000 C 
ATOM     11  N   UNL     1       5.197   4.468  17.819  0.00  0.00    +0.000 N 
ATOM     12  C   UNL     1       5.914   4.938  18.891  0.00  0.00    +0.000 A 
ATOM     13  N   UNL     1       5.396   4.439  19.992  0.00  0.00    +0.000 NA
ATOM     14  N   UNL     1       4.291   3.686  19.633  0.00  0.00    +0.000 NA
ATOM     15  C   UNL     1       4.169   3.735  18.323  0.00  0.00    +0.000 A 
ATOM     16  C   UNL     1       7.061   5.884  18.706  0.00  0.00    +0.000 C 
BRANCH  15  17
ATOM     17  C   UNL     1       3.037   3.106  17.523  0.00  0.00    +0.000 C 
ATOM     18  C   UNL     1       1.835   2.568  18.268  0.00  0.00    +0.000 C 
ATOM     19  C   UNL     1       1.708   3.833  17.493  0.00  0.00    +0.000 C 
ENDBRANCH  15  17
ENDBRANCH   5   8
BRANCH   1  25
ATOM     20  C   UNL     1       9.177  11.971  21.387  0.00  0.00    +0.000 C 
ATOM     21  C   UNL     1       9.201  12.503  20.000  0.00  0.00    +0.000 A 
ATOM     22  C   UNL     1       9.314  13.864  19.607  0.00  0.00    +0.000 A 
ATOM     23  C   UNL     1       9.281  13.878  18.233  0.00  0.00    +0.000 A 
ATOM     24  O   UNL     1       9.150  12.618  17.747  0.00  0.00    +0.000 OA
ATOM     25  C   UNL     1       9.087  11.772  18.820  0.00  0.00    +0.000 A 
ENDBRANCH   1  25
TORSDOF 3
ENDMDL
MODEL 7
REMARK VINA RESULT:      -6.8      2.445      9.293
REMARK  Name = 
REMARK  4 active torsions:
REMARK  status: ('A' for Active; 'I' for Inactive)
REMARK    1  A    between atoms: C_1  and  C_2
REMARK    2  A    between atoms: C_6  and  C_7
REMARK    3  A    between atoms: C_11  and  N_12
REMARK    4  A    between atoms: C_19  and  C_20
REMARK                            x       y       z     vdW  Elec       q    Type
REMARK                         _______ _______ _______ _____ _____    ______ ____
ROOT
ATOM      1  C   UNL     1       9.007  10.806  18.932  0.00  0.00    +0.000 C 
ATOM      2  N   UNL     1       9.625   9.856  19.571  0.00  0.00    +0.000 NA
ATOM      3  N   UNL     1       9.077   8.752  19.044  0.00  0.00    +0.000 N 
ATOM      4  C   UNL     1       8.215   9.105  18.041  0.00  0.00    +0.000 C 
ATOM      5  C   UNL     1       7.535   8.245  17.260  0.00  0.00    +0.000 C 
ATOM      6  O   UNL     1       8.135  10.485  17.910  0.00  0.00    +0.000 OA
ATOM      7  H   UNL     1       9.684   7.971  18.803  0.00  0.00    +0.000 HD
ENDROOT
BRANCH   5   8
ATOM      8  N   UNL     1       7.415   6.874  17.453  0.00  0.00    +0.000 N 
ATOM      9  C   UNL     1       7.276   5.916  16.336  0.00  0.00    +0.000 C 
ATOM     10  C   UNL     1       5.934   5.193  16.431  0.00  0.00    +0.000 C 
ATOM     11  N   UNL     1       5.696   4.721  17.778  0.00  0.00    +0.000 N 
ATOM     12  C   UNL     1       6.367   5.173  18.887  0.00  0.00    +0.000 A 
ATOM     13  N   UNL     1       5.881   4.565  19.947  0.00  0.00    +0.000 NA
ATOM     14  N   UNL     1       4.841   3.754  19.526  0.00  0.00    +0.000 NA
ATOM     15  C   UNL     1       4.723   3.881  18.221  0.00  0.00    +0.000 A 
ATOM     16  C   UNL     1       7.439   6.214  18.778  0.00  0.00    +0.000 C 
BRANCH  15  17
ATOM     17  C   UNL     1       3.649   3.221  17.368  0.00  0.00    +0.000 C 
ATOM     18  C   UNL     1       2.546   2.451  18.060  0.00  0.00    +0.000 C 
ATOM     19  C   UNL     1       2.242   3.777  17.454  0.00  0.00    +0.000 C 
ENDBRANCH  15  17
ENDBRANCH   5   8
BRANCH   1  25
ATOM     20  C   UNL     1      10.599  13.080  17.302  0.00  0.00    +0.000 C 
ATOM     21  C   UNL     1       9.837  13.206  18.572  0.00  0.00    +0.000 A 
ATOM     22  C   UNL     1       9.696  14.371  19.374  0.00  0.00    +0.000 A 
ATOM     23  C   UNL     1       8.919  14.014  20.449  0.00  0.00    +0.000 A 
ATOM     24  O   UNL     1       8.573  12.704  20.373  0.00  0.00    +0.000 OA
ATOM     25  C   UNL     1       9.141  12.199  19.235  0.00  0.00    +0.000 A 
ENDBRANCH   1  25
TORSDOF 3
ENDMDL
MODEL 8
REMARK VINA RESULT:      -6.8      7.859      9.818
REMARK  Name = 
REMARK  4 active torsions:
REMARK  status: ('A' for Active; 'I' for Inactive)
REMARK    1  A    between atoms: C_1  and  C_2
REMARK    2  A    between atoms: C_6  and  C_7
REMARK    3  A    between atoms: C_11  and  N_12
REMARK    4  A    between atoms: C_19  and  C_20
REMARK                            x       y       z     vdW  Elec       q    Type
REMARK                         _______ _______ _______ _____ _____    ______ ____
ROOT
ATOM      1  C   UNL     1       2.733   6.120  19.400  0.00  0.00    +0.000 C 
ATOM      2  N   UNL     1       2.903   6.886  18.363  0.00  0.00    +0.000 NA
ATOM      3  N   UNL     1       2.243   7.998  18.715  0.00  0.00    +0.000 N 
ATOM      4  C   UNL     1       1.784   7.867  19.998  0.00  0.00    +0.000 C 
ATOM      5  C   UNL     1       1.127   8.817  20.690  0.00  0.00    +0.000 C 
ATOM      6  O   UNL     1       2.097   6.619  20.519  0.00  0.00    +0.000 OA
ATOM      7  H   UNL     1       2.669   8.903  18.525  0.00  0.00    +0.000 HD
ENDROOT
BRANCH   5   8
ATOM      8  N   UNL     1       0.614  10.004  20.179  0.00  0.00    +0.000 N 
ATOM      9  C   UNL     1       0.863  11.319  20.804  0.00  0.00    +0.000 C 
ATOM     10  C   UNL     1      -0.456  11.935  21.267  0.00  0.00    +0.000 C 
ATOM     11  N   UNL     1      -1.462  11.843  20.232  0.00  0.00    +0.000 N 
ATOM     12  C   UNL     1      -1.384  11.001  19.150  0.00  0.00    +0.000 A 
ATOM     13  N   UNL     1      -2.476  11.144  18.430  0.00  0.00    +0.000 NA
ATOM     14  N   UNL     1      -3.298  12.045  19.086  0.00  0.00    +0.000 NA
ATOM     15  C   UNL     1      -2.685  12.436  20.184  0.00  0.00    +0.000 A 
ATOM     16  C   UNL     1      -0.208  10.096  18.951  0.00  0.00    +0.000 C 
BRANCH  15  17
ATOM     17  C   UNL     1      -3.275  13.366  21.235  0.00  0.00    +0.000 C 
ATOM     18  C   UNL     1      -4.777  13.405  21.406  0.00  0.00    +0.000 C 
ATOM     19  C   UNL     1      -3.941  12.733  22.439  0.00  0.00    +0.000 C 
ENDBRANCH  15  17
ENDBRANCH   5   8
BRANCH   1  25
ATOM     20  C   UNL     1       0.999   3.541  20.241  0.00  0.00    +0.000 C 
ATOM     21  C   UNL     1       2.429   3.612  19.843  0.00  0.00    +0.000 A 
ATOM     22  C   UNL     1       3.360   2.538  19.802  0.00  0.00    +0.000 A 
ATOM     23  C   UNL     1       4.556   3.074  19.388  0.00  0.00    +0.000 A 
ATOM     24  O   UNL     1       4.432   4.408  19.175  0.00  0.00    +0.000 OA
ATOM     25  C   UNL     1       3.139   4.748  19.463  0.00  0.00    +0.000 A 
ENDBRANCH   1  25
TORSDOF 3
ENDMDL
MODEL 9
REMARK VINA RESULT:      -6.7      7.293     10.280
REMARK  Name = 
REMARK  4 active torsions:
REMARK  status: ('A' for Active; 'I' for Inactive)
REMARK    1  A    between atoms: C_1  and  C_2
REMARK    2  A    between atoms: C_6  and  C_7
REMARK    3  A    between atoms: C_11  and  N_12
REMARK    4  A    between atoms: C_19  and  C_20
REMARK                            x       y       z     vdW  Elec       q    Type
REMARK                         _______ _______ _______ _____ _____    ______ ____
ROOT
ATOM      1  C   UNL     1       1.459  10.062  18.574  0.00  0.00    +0.000 C 
ATOM      2  N   UNL     1       1.917   9.468  17.512  0.00  0.00    +0.000 NA
ATOM      3  N   UNL     1       2.201   8.240  17.969  0.00  0.00    +0.000 N 
ATOM      4  C   UNL     1       1.808   8.139  19.276  0.00  0.00    +0.000 C 
ATOM      5  C   UNL     1       1.891   7.027  20.030  0.00  0.00    +0.000 C 
ATOM      6  O   UNL     1       1.285   9.339  19.738  0.00  0.00    +0.000 OA
ATOM      7  H   UNL     1       1.944   7.434  17.403  0.00  0.00    +0.000 HD
ENDROOT
BRANCH   5   8
ATOM      8  N   UNL     1       2.570   5.858  19.704  0.00  0.00    +0.000 N 
ATOM      9  C   UNL     1       4.025   5.694  19.900  0.00  0.00    +0.000 C 
ATOM     10  C   UNL     1       4.711   5.466  18.555  0.00  0.00    +0.000 C 
ATOM     11  N   UNL     1       4.004   4.473  17.776  0.00  0.00    +0.000 N 
ATOM     12  C   UNL     1       2.713   4.072  18.020  0.00  0.00    +0.000 A 
ATOM     13  N   UNL     1       2.370   3.189  17.108  0.00  0.00    +0.000 NA
ATOM     14  N   UNL     1       3.430   3.061  16.226  0.00  0.00    +0.000 NA
ATOM     15  C   UNL     1       4.395   3.861  16.626  0.00  0.00    +0.000 A 
ATOM     16  C   UNL     1       1.922   4.645  19.156  0.00  0.00    +0.000 C 
BRANCH  15  17
ATOM     17  C   UNL     1       5.710   4.085  15.893  0.00  0.00    +0.000 C 
ATOM     18  C   UNL     1       5.724   3.984  14.383  0.00  0.00    +0.000 C 
ATOM     19  C   UNL     1       5.831   5.323  15.027  0.00  0.00    +0.000 C 
ENDBRANCH  15  17
ENDBRANCH   5   8
BRANCH   1  25
ATOM     20  C   UNL     1      -1.421  11.457  18.919  0.00  0.00    +0.000 C 
ATOM     21  C   UNL     1      -0.089  12.098  18.766  0.00  0.00    +0.000 A 
ATOM     22  C   UNL     1       0.187  13.490  18.686  0.00  0.00    +0.000 A 
ATOM     23  C   UNL     1       1.547  13.610  18.539  0.00  0.00    +0.000 A 
ATOM     24  O   UNL     1       2.135  12.387  18.517  0.00  0.00    +0.000 OA
ATOM     25  C   UNL     1       1.140  11.457  18.642  0.00  0.00    +0.000 A 
ENDBRANCH   1  25
TORSDOF 3
ENDMDL
