MODEL 1
REMARK VINA RESULT:      -8.6      0.000      0.000
REMARK  Name = 
REMARK  5 active torsions:
REMARK  status: ('A' for Active; 'I' for Inactive)
REMARK    1  A    between atoms: C_1  and  C_2
REMARK    2  A    between atoms: C_7  and  C_8
REMARK    3  A    between atoms: C_11  and  N_12
REMARK    4  A    between atoms: C_13  and  C_15
REMARK    5  A    between atoms: C_15  and  N_16
REMARK                            x       y       z     vdW  Elec       q    Type
REMARK                         _______ _______ _______ _____ _____    ______ ____
ROOT
ATOM      1  N   UNL     1       7.850   8.603  17.366  0.00  0.00    +0.000 N 
ATOM      2  C   UNL     1       7.838   7.294  17.823  0.00  0.00    +0.000 C 
ATOM      3  O   UNL     1       8.225   6.904  18.925  0.00  0.00    +0.000 OA
ATOM      4  H   UNL     1       7.392   8.776  16.481  0.00  0.00    +0.000 HD
ENDROOT
BRANCH   1   8
ATOM      5  C   UNL     1       9.460  11.961  19.403  0.00  0.00    +0.000 A 
ATOM      6  C   UNL     1       9.664  10.668  19.895  0.00  0.00    +0.000 A 
ATOM      7  C   UNL     1       9.139   9.557  19.227  0.00  0.00    +0.000 A 
ATOM      8  C   UNL     1       8.410   9.703  18.049  0.00  0.00    +0.000 A 
ATOM      9  C   UNL     1       8.244  10.984  17.517  0.00  0.00    +0.000 A 
ATOM     10  C   UNL     1       8.756  12.103  18.197  0.00  0.00    +0.000 A 
BRANCH   5  17
ATOM     11  C   UNL     1      11.614  18.096  23.441  0.00  0.00    +0.000 C 
ATOM     12  C   UNL     1      11.456  17.020  22.407  0.00  0.00    +0.000 A 
ATOM     13  C   UNL     1      12.204  17.047  21.228  0.00  0.00    +0.000 A 
ATOM     14  C   UNL     1      12.054  16.047  20.262  0.00  0.00    +0.000 A 
ATOM     15  C   UNL     1      11.136  15.004  20.473  0.00  0.00    +0.000 A 
ATOM     16  N   UNL     1      10.878  13.967  19.595  0.00  0.00    +0.000 NA
ATOM     17  C   UNL     1       9.973  13.153  20.097  0.00  0.00    +0.000 A 
ATOM     18  S   UNL     1       9.367  13.614  21.644  0.00  0.00    +0.000 S 
ATOM     19  C   UNL     1      10.397  14.986  21.654  0.00  0.00    +0.000 A 
ATOM     20  C   UNL     1      10.540  15.981  22.634  0.00  0.00    +0.000 A 
ENDBRANCH   5  17
ENDBRANCH   1   8
BRANCH   2  21
ATOM     21  C   UNL     1       7.249   6.291  16.828  0.00  0.00    +0.000 C 
BRANCH  21  22
ATOM     22  N   UNL     1       5.827   6.585  16.542  0.00  0.00    +0.000 NA
ATOM     23  C   UNL     1       5.163   5.455  15.839  0.00  0.00    +0.000 C 
ATOM     24  C   UNL     1       5.022   4.146  16.652  0.00  0.00    +0.000 C 
ATOM     25  N   UNL     1       4.413   4.398  17.961  0.00  0.00    +0.000 N 
ATOM     26  C   UNL     1       3.233   3.781  18.326  0.00  0.00    +0.000 A 
ATOM     27  C   UNL     1       2.951   2.472  17.930  0.00  0.00    +0.000 A 
ATOM     28  C   UNL     1       1.754   1.857  18.296  0.00  0.00    +0.000 A 
ATOM     29  C   UNL     1       0.848   2.562  19.068  0.00  0.00    +0.000 A 
ATOM     30  C   UNL     1       1.192   3.845  19.445  0.00  0.00    +0.000 A 
ATOM     31  N   UNL     1       2.352   4.454  19.100  0.00  0.00    +0.000 NA
ATOM     32  C   UNL     1       4.896   5.560  18.714  0.00  0.00    +0.000 C 
ATOM     33  C   UNL     1       5.078   6.805  17.810  0.00  0.00    +0.000 C 
ENDBRANCH  21  22
ENDBRANCH   2  21
TORSDOF 4
ENDMDL
MODEL 2
REMARK VINA RESULT:      -8.4      9.167     12.802
REMARK  Name = 
REMARK  5 active torsions:
REMARK  status: ('A' for Active; 'I' for Inactive)
REMARK    1  A    between atoms: C_1  and  C_2
REMARK    2  A    between atoms: C_7  and  C_8
REMARK    3  A    between atoms: C_11  and  N_12
REMARK    4  A    between atoms: C_13  and  C_15
REMARK    5  A    between atoms: C_15  and  N_16
REMARK                            x       y       z     vdW  Elec       q    Type
REMARK                         _______ _______ _______ _____ _____    ______ ____
ROOT
ATOM      1  N   UNL     1      -0.670  10.630  21.453  0.00  0.00    +0.000 N 
ATOM      2  C   UNL     1      -0.750  10.697  22.836  0.00  0.00    +0.000 C 
ATOM      3  O   UNL     1      -0.050  10.076  23.636  0.00  0.00    +0.000 OA
ATOM      4  H   UNL     1      -1.238  11.289  20.936  0.00  0.00    +0.000 HD
ENDROOT
BRANCH   1   8
ATOM      5  C   UNL     1       1.869   8.067  19.217  0.00  0.00    +0.000 A 
ATOM      6  C   UNL     1       1.541   7.762  20.541  0.00  0.00    +0.000 A 
ATOM      7  C   UNL     1       0.703   8.601  21.283  0.00  0.00    +0.000 A 
ATOM      8  C   UNL     1       0.160   9.755  20.722  0.00  0.00    +0.000 A 
ATOM      9  C   UNL     1       0.436  10.045  19.384  0.00  0.00    +0.000 A 
ATOM     10  C   UNL     1       1.292   9.212  18.643  0.00  0.00    +0.000 A 
BRANCH   5  17
ATOM     11  C   UNL     1       6.704   4.221  14.697  0.00  0.00    +0.000 C 
ATOM     12  C   UNL     1       5.669   4.627  15.707  0.00  0.00    +0.000 A 
ATOM     13  C   UNL     1       4.976   3.664  16.444  0.00  0.00    +0.000 A 
ATOM     14  C   UNL     1       4.009   4.040  17.382  0.00  0.00    +0.000 A 
ATOM     15  C   UNL     1       3.724   5.402  17.584  0.00  0.00    +0.000 A 
ATOM     16  N   UNL     1       2.783   5.907  18.463  0.00  0.00    +0.000 NA
ATOM     17  C   UNL     1       2.771   7.223  18.418  0.00  0.00    +0.000 A 
ATOM     18  S   UNL     1       3.877   7.917  17.292  0.00  0.00    +0.000 S 
ATOM     19  C   UNL     1       4.424   6.353  16.845  0.00  0.00    +0.000 A 
ATOM     20  C   UNL     1       5.399   5.990  15.903  0.00  0.00    +0.000 A 
ENDBRANCH   5  17
ENDBRANCH   1   8
BRANCH   2  21
ATOM     21  C   UNL     1      -1.809  11.674  23.353  0.00  0.00    +0.000 C 
BRANCH  21  22
ATOM     22  N   UNL     1      -2.029  12.786  22.402  0.00  0.00    +0.000 NA
ATOM     23  C   UNL     1      -3.389  12.735  21.802  0.00  0.00    +0.000 C 
ATOM     24  C   UNL     1      -4.565  12.965  22.780  0.00  0.00    +0.000 C 
ATOM     25  N   UNL     1      -4.370  14.185  23.567  0.00  0.00    +0.000 N 
ATOM     26  C   UNL     1      -5.288  15.216  23.520  0.00  0.00    +0.000 A 
ATOM     27  C   UNL     1      -6.655  14.958  23.399  0.00  0.00    +0.000 A 
ATOM     28  C   UNL     1      -7.576  16.004  23.345  0.00  0.00    +0.000 A 
ATOM     29  C   UNL     1      -7.116  17.306  23.420  0.00  0.00    +0.000 A 
ATOM     30  C   UNL     1      -5.756  17.496  23.560  0.00  0.00    +0.000 A 
ATOM     31  N   UNL     1      -4.849  16.491  23.617  0.00  0.00    +0.000 NA
ATOM     32  C   UNL     1      -3.033  14.420  24.121  0.00  0.00    +0.000 C 
ATOM     33  C   UNL     1      -1.914  14.096  23.100  0.00  0.00    +0.000 C 
ENDBRANCH  21  22
ENDBRANCH   2  21
TORSDOF 4
ENDMDL
MODEL 3
REMARK VINA RESULT:      -8.3      9.165     12.807
REMARK  Name = 
REMARK  5 active torsions:
REMARK  status: ('A' for Active; 'I' for Inactive)
REMARK    1  A    between atoms: C_1  and  C_2
REMARK    2  A    between atoms: C_7  and  C_8
REMARK    3  A    between atoms: C_11  and  N_12
REMARK    4  A    between atoms: C_13  and  C_15
REMARK    5  A    between atoms: C_15  and  N_16
REMARK                            x       y       z     vdW  Elec       q    Type
REMARK                         _______ _______ _______ _____ _____    ______ ____
ROOT
ATOM      1  N   UNL     1      -0.563  10.602  21.684  0.00  0.00    +0.000 N 
ATOM      2  C   UNL     1      -0.239  11.910  22.016  0.00  0.00    +0.000 C 
ATOM      3  O   UNL     1       0.746  12.536  21.626  0.00  0.00    +0.000 OA
ATOM      4  H   UNL     1      -1.466  10.269  21.995  0.00  0.00    +0.000 HD
ENDROOT
BRANCH   1   8
ATOM      5  C   UNL     1       1.893   8.043  19.353  0.00  0.00    +0.000 A 
ATOM      6  C   UNL     1       1.651   7.760  20.701  0.00  0.00    +0.000 A 
ATOM      7  C   UNL     1       0.840   8.597  21.474  0.00  0.00    +0.000 A 
ATOM      8  C   UNL     1       0.241   9.728  20.924  0.00  0.00    +0.000 A 
ATOM      9  C   UNL     1       0.431   9.994  19.566  0.00  0.00    +0.000 A 
ATOM     10  C   UNL     1       1.260   9.163  18.792  0.00  0.00    +0.000 A 
BRANCH   5  17
ATOM     11  C   UNL     1       6.551   4.204  14.646  0.00  0.00    +0.000 C 
ATOM     12  C   UNL     1       5.557   4.608  15.696  0.00  0.00    +0.000 A 
ATOM     13  C   UNL     1       4.897   3.644  16.462  0.00  0.00    +0.000 A 
ATOM     14  C   UNL     1       3.968   4.019  17.439  0.00  0.00    +0.000 A 
ATOM     15  C   UNL     1       3.688   5.381  17.650  0.00  0.00    +0.000 A 
ATOM     16  N   UNL     1       2.782   5.884  18.566  0.00  0.00    +0.000 NA
ATOM     17  C   UNL     1       2.765   7.200  18.520  0.00  0.00    +0.000 A 
ATOM     18  S   UNL     1       3.822   7.895  17.348  0.00  0.00    +0.000 S 
ATOM     19  C   UNL     1       4.354   6.332  16.882  0.00  0.00    +0.000 A 
ATOM     20  C   UNL     1       5.292   5.971  15.901  0.00  0.00    +0.000 A 
ENDBRANCH   5  17
ENDBRANCH   1   8
BRANCH   2  21
ATOM     21  C   UNL     1      -1.257  12.590  22.933  0.00  0.00    +0.000 C 
BRANCH  21  22
ATOM     22  N   UNL     1      -2.644  12.241  22.555  0.00  0.00    +0.000 NA
ATOM     23  C   UNL     1      -3.610  12.580  23.633  0.00  0.00    +0.000 C 
ATOM     24  C   UNL     1      -3.774  14.088  23.940  0.00  0.00    +0.000 C 
ATOM     25  N   UNL     1      -4.042  14.852  22.719  0.00  0.00    +0.000 N 
ATOM     26  C   UNL     1      -5.197  15.597  22.584  0.00  0.00    +0.000 A 
ATOM     27  C   UNL     1      -5.756  16.263  23.677  0.00  0.00    +0.000 A 
ATOM     28  C   UNL     1      -6.927  17.007  23.536  0.00  0.00    +0.000 A 
ATOM     29  C   UNL     1      -7.526  17.085  22.292  0.00  0.00    +0.000 A 
ATOM     30  C   UNL     1      -6.914  16.421  21.247  0.00  0.00    +0.000 A 
ATOM     31  N   UNL     1      -5.776  15.697  21.367  0.00  0.00    +0.000 NA
ATOM     32  C   UNL     1      -3.234  14.532  21.537  0.00  0.00    +0.000 C 
ATOM     33  C   UNL     1      -3.060  13.004  21.347  0.00  0.00    +0.000 C 
ENDBRANCH  21  22
ENDBRANCH   2  21
TORSDOF 4
ENDMDL
MODEL 4
REMARK VINA RESULT:      -8.2      8.161     11.934
REMARK  Name = 
REMARK  5 active torsions:
REMARK  status: ('A' for Active; 'I' for Inactive)
REMARK    1  A    between atoms: C_1  and  C_2
REMARK    2  A    between atoms: C_7  and  C_8
REMARK    3  A    between atoms: C_11  and  N_12
REMARK    4  A    between atoms: C_13  and  C_15
REMARK    5  A    between atoms: C_15  and  N_16
REMARK                            x       y       z     vdW  Elec       q    Type
REMARK                         _______ _______ _______ _____ _____    ______ ____
ROOT
ATOM      1  N   UNL     1      -0.483  10.261  21.268  0.00  0.00    +0.000 N 
ATOM      2  C   UNL     1      -0.156  11.513  21.768  0.00  0.00    +0.000 C 
ATOM      3  O   UNL     1       0.889  12.128  21.562  0.00  0.00    +0.000 OA
ATOM      4  H   UNL     1      -1.428   9.941  21.435  0.00  0.00    +0.000 HD
ENDROOT
BRANCH   1   8
ATOM      5  C   UNL     1       2.134   7.832  18.973  0.00  0.00    +0.000 A 
ATOM      6  C   UNL     1       1.910   7.553  20.325  0.00  0.00    +0.000 A 
ATOM      7  C   UNL     1       1.047   8.348  21.086  0.00  0.00    +0.000 A 
ATOM      8  C   UNL     1       0.376   9.429  20.520  0.00  0.00    +0.000 A 
ATOM      9  C   UNL     1       0.549   9.688  19.158  0.00  0.00    +0.000 A 
ATOM     10  C   UNL     1       1.430   8.900  18.396  0.00  0.00    +0.000 A 
BRANCH   5  17
ATOM     11  C   UNL     1       7.074   4.247  14.353  0.00  0.00    +0.000 C 
ATOM     12  C   UNL     1       6.025   4.596  15.370  0.00  0.00    +0.000 A 
ATOM     13  C   UNL     1       5.348   3.594  16.068  0.00  0.00    +0.000 A 
ATOM     14  C   UNL     1       4.368   3.917  17.013  0.00  0.00    +0.000 A 
ATOM     15  C   UNL     1       4.054   5.265  17.260  0.00  0.00    +0.000 A 
ATOM     16  N   UNL     1       3.097   5.719  18.150  0.00  0.00    +0.000 NA
ATOM     17  C   UNL     1       3.059   7.035  18.151  0.00  0.00    +0.000 A 
ATOM     18  S   UNL     1       4.156   7.790  17.057  0.00  0.00    +0.000 S 
ATOM     19  C   UNL     1       4.737   6.255  16.559  0.00  0.00    +0.000 A 
ATOM     20  C   UNL     1       5.726   5.946  15.611  0.00  0.00    +0.000 A 
ENDBRANCH   5  17
ENDBRANCH   1   8
BRANCH   2  21
ATOM     21  C   UNL     1      -1.254  12.147  22.627  0.00  0.00    +0.000 C 
BRANCH  21  22
ATOM     22  N   UNL     1      -1.728  13.421  22.044  0.00  0.00    +0.000 NA
ATOM     23  C   UNL     1      -2.015  13.288  20.591  0.00  0.00    +0.000 C 
ATOM     24  C   UNL     1      -3.192  12.355  20.220  0.00  0.00    +0.000 C 
ATOM     25  N   UNL     1      -4.399  12.696  20.978  0.00  0.00    +0.000 N 
ATOM     26  C   UNL     1      -5.565  13.060  20.333  0.00  0.00    +0.000 A 
ATOM     27  C   UNL     1      -5.931  12.471  19.121  0.00  0.00    +0.000 A 
ATOM     28  C   UNL     1      -7.106  12.848  18.471  0.00  0.00    +0.000 A 
ATOM     29  C   UNL     1      -7.911  13.813  19.049  0.00  0.00    +0.000 A 
ATOM     30  C   UNL     1      -7.506  14.343  20.258  0.00  0.00    +0.000 A 
ATOM     31  N   UNL     1      -6.369  13.985  20.903  0.00  0.00    +0.000 NA
ATOM     32  C   UNL     1      -4.237  12.970  22.409  0.00  0.00    +0.000 C 
ATOM     33  C   UNL     1      -2.995  13.850  22.697  0.00  0.00    +0.000 C 
ENDBRANCH  21  22
ENDBRANCH   2  21
TORSDOF 4
ENDMDL
MODEL 5
REMARK VINA RESULT:      -8.2      8.806     12.491
REMARK  Name = 
REMARK  5 active torsions:
REMARK  status: ('A' for Active; 'I' for Inactive)
REMARK    1  A    between atoms: C_1  and  C_2
REMARK    2  A    between atoms: C_7  and  C_8
REMARK    3  A    between atoms: C_11  and  N_12
REMARK    4  A    between atoms: C_13  and  C_15
REMARK    5  A    between atoms: C_15  and  N_16
REMARK                            x       y       z     vdW  Elec       q    Type
REMARK                         _______ _______ _______ _____ _____    ______ ____
ROOT
ATOM      1  N   UNL     1      -0.459  10.040  21.598  0.00  0.00    +0.000 N 
ATOM      2  C   UNL     1      -0.205  11.348  21.986  0.00  0.00    +0.000 C 
ATOM      3  O   UNL     1       0.733  12.049  21.608  0.00  0.00    +0.000 OA
ATOM      4  H   UNL     1      -1.334   9.639  21.910  0.00  0.00    +0.000 HD
ENDROOT
BRANCH   1   8
ATOM      5  C   UNL     1       2.103   7.742  19.113  0.00  0.00    +0.000 A 
ATOM      6  C   UNL     1       1.757   7.287  20.389  0.00  0.00    +0.000 A 
ATOM      7  C   UNL     1       0.911   8.038  21.212  0.00  0.00    +0.000 A 
ATOM      8  C   UNL     1       0.379   9.251  20.782  0.00  0.00    +0.000 A 
ATOM      9  C   UNL     1       0.673   9.693  19.490  0.00  0.00    +0.000 A 
ATOM     10  C   UNL     1       1.537   8.948  18.669  0.00  0.00    +0.000 A 
BRANCH   5  17
ATOM     11  C   UNL     1       6.908   4.404  14.178  0.00  0.00    +0.000 C 
ATOM     12  C   UNL     1       5.918   4.702  15.267  0.00  0.00    +0.000 A 
ATOM     13  C   UNL     1       5.365   3.671  16.029  0.00  0.00    +0.000 A 
ATOM     14  C   UNL     1       4.440   3.947  17.042  0.00  0.00    +0.000 A 
ATOM     15  C   UNL     1       4.055   5.275  17.294  0.00  0.00    +0.000 A 
ATOM     16  N   UNL     1       3.141   5.682  18.249  0.00  0.00    +0.000 NA
ATOM     17  C   UNL     1       3.014   6.993  18.234  0.00  0.00    +0.000 A 
ATOM     18  S   UNL     1       3.972   7.798  17.048  0.00  0.00    +0.000 S 
ATOM     19  C   UNL     1       4.616   6.295  16.528  0.00  0.00    +0.000 A 
ATOM     20  C   UNL     1       5.548   6.034  15.512  0.00  0.00    +0.000 A 
ENDBRANCH   5  17
ENDBRANCH   1   8
BRANCH   2  21
ATOM     21  C   UNL     1      -1.242  11.923  22.953  0.00  0.00    +0.000 C 
BRANCH  21  22
ATOM     22  N   UNL     1      -1.490  13.358  22.689  0.00  0.00    +0.000 NA
ATOM     23  C   UNL     1      -2.368  13.555  21.506  0.00  0.00    +0.000 C 
ATOM     24  C   UNL     1      -3.820  13.041  21.652  0.00  0.00    +0.000 C 
ATOM     25  N   UNL     1      -4.444  13.552  22.875  0.00  0.00    +0.000 N 
ATOM     26  C   UNL     1      -5.594  14.314  22.822  0.00  0.00    +0.000 A 
ATOM     27  C   UNL     1      -6.585  14.057  21.871  0.00  0.00    +0.000 A 
ATOM     28  C   UNL     1      -7.741  14.835  21.818  0.00  0.00    +0.000 A 
ATOM     29  C   UNL     1      -7.899  15.864  22.729  0.00  0.00    +0.000 A 
ATOM     30  C   UNL     1      -6.895  16.055  23.657  0.00  0.00    +0.000 A 
ATOM     31  N   UNL     1      -5.767  15.306  23.724  0.00  0.00    +0.000 NA
ATOM     32  C   UNL     1      -3.638  13.525  24.100  0.00  0.00    +0.000 C 
ATOM     33  C   UNL     1      -2.181  13.986  23.849  0.00  0.00    +0.000 C 
ENDBRANCH  21  22
ENDBRANCH   2  21
TORSDOF 4
ENDMDL
MODEL 6
REMARK VINA RESULT:      -8.1      8.773     12.711
REMARK  Name = 
REMARK  5 active torsions:
REMARK  status: ('A' for Active; 'I' for Inactive)
REMARK    1  A    between atoms: C_1  and  C_2
REMARK    2  A    between atoms: C_7  and  C_8
REMARK    3  A    between atoms: C_11  and  N_12
REMARK    4  A    between atoms: C_13  and  C_15
REMARK    5  A    between atoms: C_15  and  N_16
REMARK                            x       y       z     vdW  Elec       q    Type
REMARK                         _______ _______ _______ _____ _____    ______ ____
ROOT
ATOM      1  N   UNL     1      -0.515  10.275  21.344  0.00  0.00    +0.000 N 
ATOM      2  C   UNL     1      -0.420  10.446  22.717  0.00  0.00    +0.000 C 
ATOM      3  O   UNL     1       0.498  10.056  23.437  0.00  0.00    +0.000 OA
ATOM      4  H   UNL     1      -1.276  10.754  20.881  0.00  0.00    +0.000 HD
ENDROOT
BRANCH   1   8
ATOM      5  C   UNL     1       2.135   7.950  18.979  0.00  0.00    +0.000 A 
ATOM      6  C   UNL     1       1.662   9.180  18.513  0.00  0.00    +0.000 A 
ATOM      7  C   UNL     1       0.791   9.952  19.288  0.00  0.00    +0.000 A 
ATOM      8  C   UNL     1       0.380   9.528  20.549  0.00  0.00    +0.000 A 
ATOM      9  C   UNL     1       0.886   8.326  21.051  0.00  0.00    +0.000 A 
ATOM     10  C   UNL     1       1.748   7.541  20.265  0.00  0.00    +0.000 A 
BRANCH   5  17
ATOM     11  C   UNL     1       6.899   4.059  14.423  0.00  0.00    +0.000 C 
ATOM     12  C   UNL     1       5.888   4.475  15.453  0.00  0.00    +0.000 A 
ATOM     13  C   UNL     1       5.235   3.522  16.237  0.00  0.00    +0.000 A 
ATOM     14  C   UNL     1       4.290   3.909  17.194  0.00  0.00    +0.000 A 
ATOM     15  C   UNL     1       3.987   5.271  17.366  0.00  0.00    +0.000 A 
ATOM     16  N   UNL     1       3.065   5.785  18.259  0.00  0.00    +0.000 NA
ATOM     17  C   UNL     1       3.028   7.099  18.177  0.00  0.00    +0.000 A 
ATOM     18  S   UNL     1       4.087   7.779  16.998  0.00  0.00    +0.000 S 
ATOM     19  C   UNL     1       4.647   6.212  16.579  0.00  0.00    +0.000 A 
ATOM     20  C   UNL     1       5.600   5.839  15.618  0.00  0.00    +0.000 A 
ENDBRANCH   5  17
ENDBRANCH   1   8
BRANCH   2  21
ATOM     21  C   UNL     1      -1.586  11.226  23.329  0.00  0.00    +0.000 C 
BRANCH  21  22
ATOM     22  N   UNL     1      -2.135  12.216  22.376  0.00  0.00    +0.000 NA
ATOM     23  C   UNL     1      -3.489  12.677  22.782  0.00  0.00    +0.000 C 
ATOM     24  C   UNL     1      -3.558  13.487  24.098  0.00  0.00    +0.000 C 
ATOM     25  N   UNL     1      -2.592  14.590  24.095  0.00  0.00    +0.000 N 
ATOM     26  C   UNL     1      -3.008  15.899  24.233  0.00  0.00    +0.000 A 
ATOM     27  C   UNL     1      -4.084  16.230  25.060  0.00  0.00    +0.000 A 
ATOM     28  C   UNL     1      -4.503  17.554  25.189  0.00  0.00    +0.000 A 
ATOM     29  C   UNL     1      -3.831  18.541  24.491  0.00  0.00    +0.000 A 
ATOM     30  C   UNL     1      -2.763  18.154  23.706  0.00  0.00    +0.000 A 
ATOM     31  N   UNL     1      -2.342  16.873  23.572  0.00  0.00    +0.000 NA
ATOM     32  C   UNL     1      -1.242  14.297  23.603  0.00  0.00    +0.000 C 
ATOM     33  C   UNL     1      -1.264  13.422  22.324  0.00  0.00    +0.000 C 
ENDBRANCH  21  22
ENDBRANCH   2  21
TORSDOF 4
ENDMDL
MODEL 7
REMARK VINA RESULT:      -8.1      9.332     12.788
REMARK  Name = 
REMARK  5 active torsions:
REMARK  status: ('A' for Active; 'I' for Inactive)
REMARK    1  A    between atoms: C_1  and  C_2
REMARK    2  A    between atoms: C_7  and  C_8
REMARK    3  A    between atoms: C_11  and  N_12
REMARK    4  A    between atoms: C_13  and  C_15
REMARK    5  A    between atoms: C_15  and  N_16
REMARK                            x       y       z     vdW  Elec       q    Type
REMARK                         _______ _______ _______ _____ _____    ______ ____
ROOT
ATOM      1  N   UNL     1      -0.777  10.748  21.526  0.00  0.00    +0.000 N 
ATOM      2  C   UNL     1      -0.856  10.793  22.910  0.00  0.00    +0.000 C 
ATOM      3  O   UNL     1      -0.163  10.151  23.699  0.00  0.00    +0.000 OA
ATOM      4  H   UNL     1      -1.337  11.421  21.020  0.00  0.00    +0.000 HD
ENDROOT
BRANCH   1   8
ATOM      5  C   UNL     1       1.724   8.191  19.241  0.00  0.00    +0.000 A 
ATOM      6  C   UNL     1       1.494   7.932  20.596  0.00  0.00    +0.000 A 
ATOM      7  C   UNL     1       0.668   8.769  21.354  0.00  0.00    +0.000 A 
ATOM      8  C   UNL     1       0.043   9.874  20.781  0.00  0.00    +0.000 A 
ATOM      9  C   UNL     1       0.222  10.115  19.417  0.00  0.00    +0.000 A 
ATOM     10  C   UNL     1       1.065   9.285  18.658  0.00  0.00    +0.000 A 
BRANCH   5  17
ATOM     11  C   UNL     1       6.172   3.298  15.384  0.00  0.00    +0.000 C 
ATOM     12  C   UNL     1       5.478   4.515  15.925  0.00  0.00    +0.000 A 
ATOM     13  C   UNL     1       5.821   5.791  15.474  0.00  0.00    +0.000 A 
ATOM     14  C   UNL     1       5.178   6.926  15.980  0.00  0.00    +0.000 A 
ATOM     15  C   UNL     1       4.179   6.785  16.960  0.00  0.00    +0.000 A 
ATOM     16  N   UNL     1       3.482   7.820  17.555  0.00  0.00    +0.000 NA
ATOM     17  C   UNL     1       2.611   7.349  18.423  0.00  0.00    +0.000 A 
ATOM     18  S   UNL     1       2.609   5.632  18.584  0.00  0.00    +0.000 S 
ATOM     19  C   UNL     1       3.845   5.506  17.400  0.00  0.00    +0.000 A 
ATOM     20  C   UNL     1       4.478   4.358  16.898  0.00  0.00    +0.000 A 
ENDBRANCH   5  17
ENDBRANCH   1   8
BRANCH   2  21
ATOM     21  C   UNL     1      -1.903  11.774  23.443  0.00  0.00    +0.000 C 
BRANCH  21  22
ATOM     22  N   UNL     1      -2.105  12.907  22.513  0.00  0.00    +0.000 NA
ATOM     23  C   UNL     1      -3.427  12.833  21.836  0.00  0.00    +0.000 C 
ATOM     24  C   UNL     1      -4.663  12.997  22.752  0.00  0.00    +0.000 C 
ATOM     25  N   UNL     1      -4.551  14.198  23.584  0.00  0.00    +0.000 N 
ATOM     26  C   UNL     1      -5.498  15.202  23.514  0.00  0.00    +0.000 A 
ATOM     27  C   UNL     1      -6.847  14.906  23.309  0.00  0.00    +0.000 A 
ATOM     28  C   UNL     1      -7.797  15.924  23.232  0.00  0.00    +0.000 A 
ATOM     29  C   UNL     1      -7.384  17.237  23.371  0.00  0.00    +0.000 A 
ATOM     30  C   UNL     1      -6.041  17.464  23.592  0.00  0.00    +0.000 A 
ATOM     31  N   UNL     1      -5.107  16.486  23.673  0.00  0.00    +0.000 NA
ATOM     32  C   UNL     1      -3.255  14.456  24.219  0.00  0.00    +0.000 C 
ATOM     33  C   UNL     1      -2.071  14.198  23.254  0.00  0.00    +0.000 C 
ENDBRANCH  21  22
ENDBRANCH   2  21
TORSDOF 4
ENDMDL
MODEL 8
REMARK VINA RESULT:      -8.1      8.868     12.763
REMARK  Name = 
REMARK  5 active torsions:
REMARK  status: ('A' for Active; 'I' for Inactive)
REMARK    1  A    between atoms: C_1  and  C_2
REMARK    2  A    between atoms: C_7  and  C_8
REMARK    3  A    between atoms: C_11  and  N_12
REMARK    4  A    between atoms: C_13  and  C_15
REMARK    5  A    between atoms: C_15  and  N_16
REMARK                            x       y       z     vdW  Elec       q    Type
REMARK                         _______ _______ _______ _____ _____    ______ ____
ROOT
ATOM      1  N   UNL     1      -0.108  11.797  21.431  0.00  0.00    +0.000 N 
ATOM      2  C   UNL     1       0.590  12.982  21.618  0.00  0.00    +0.000 C 
ATOM      3  O   UNL     1       1.764  13.190  21.316  0.00  0.00    +0.000 OA
ATOM      4  H   UNL     1      -1.100  11.822  21.627  0.00  0.00    +0.000 HD
ENDROOT
BRANCH   1   8
ATOM      5  C   UNL     1       1.498   8.115  20.061  0.00  0.00    +0.000 A 
ATOM      6  C   UNL     1       1.322   9.184  19.177  0.00  0.00    +0.000 A 
ATOM      7  C   UNL     1       0.796  10.401  19.623  0.00  0.00    +0.000 A 
ATOM      8  C   UNL     1       0.445  10.589  20.958  0.00  0.00    +0.000 A 
ATOM      9  C   UNL     1       0.665   9.547  21.863  0.00  0.00    +0.000 A 
ATOM     10  C   UNL     1       1.177   8.318  21.412  0.00  0.00    +0.000 A 
BRANCH   5  17
ATOM     11  C   UNL     1       4.053   1.100  18.371  0.00  0.00    +0.000 C 
ATOM     12  C   UNL     1       3.722   2.565  18.374  0.00  0.00    +0.000 A 
ATOM     13  C   UNL     1       4.179   3.402  17.354  0.00  0.00    +0.000 A 
ATOM     14  C   UNL     1       3.874   4.767  17.358  0.00  0.00    +0.000 A 
ATOM     15  C   UNL     1       3.105   5.308  18.403  0.00  0.00    +0.000 A 
ATOM     16  N   UNL     1       2.750   6.638  18.537  0.00  0.00    +0.000 NA
ATOM     17  C   UNL     1       2.020   6.812  19.619  0.00  0.00    +0.000 A 
ATOM     18  S   UNL     1       1.749   5.382  20.545  0.00  0.00    +0.000 S 
ATOM     19  C   UNL     1       2.654   4.463  19.414  0.00  0.00    +0.000 A 
ATOM     20  C   UNL     1       2.948   3.090  19.421  0.00  0.00    +0.000 A 
ENDBRANCH   5  17
ENDBRANCH   1   8
BRANCH   2  21
ATOM     21  C   UNL     1      -0.246  14.106  22.236  0.00  0.00    +0.000 C 
BRANCH  21  22
ATOM     22  N   UNL     1      -0.871  13.679  23.507  0.00  0.00    +0.000 NA
ATOM     23  C   UNL     1      -1.692  14.763  24.107  0.00  0.00    +0.000 C 
ATOM     24  C   UNL     1      -2.947  15.180  23.304  0.00  0.00    +0.000 C 
ATOM     25  N   UNL     1      -3.765  14.014  22.955  0.00  0.00    +0.000 N 
ATOM     26  C   UNL     1      -5.078  13.917  23.373  0.00  0.00    +0.000 A 
ATOM     27  C   UNL     1      -5.895  15.047  23.453  0.00  0.00    +0.000 A 
ATOM     28  C   UNL     1      -7.217  14.943  23.882  0.00  0.00    +0.000 A 
ATOM     29  C   UNL     1      -7.715  13.698  24.222  0.00  0.00    +0.000 A 
ATOM     30  C   UNL     1      -6.865  12.616  24.103  0.00  0.00    +0.000 A 
ATOM     31  N   UNL     1      -5.579  12.701  23.684  0.00  0.00    +0.000 NA
ATOM     32  C   UNL     1      -3.064  12.826  22.460  0.00  0.00    +0.000 C 
ATOM     33  C   UNL     1      -1.781  12.524  23.276  0.00  0.00    +0.000 C 
ENDBRANCH  21  22
ENDBRANCH   2  21
TORSDOF 4
ENDMDL
MODEL 9
REMARK VINA RESULT:      -8.1      8.930     12.676
REMARK  Name = 
REMARK  5 active torsions:
REMARK  status: ('A' for Active; 'I' for Inactive)
REMARK    1  A    between atoms: C_1  and  C_2
REMARK    2  A    between atoms: C_7  and  C_8
REMARK    3  A    between atoms: C_11  and  N_12
REMARK    4  A    between atoms: C_13  and  C_15
REMARK    5  A    between atoms: C_15  and  N_16
REMARK                            x       y       z     vdW  Elec       q    Type
REMARK                         _______ _______ _______ _____ _____    ______ ____
ROOT
ATOM      1  N   UNL     1      -0.746  10.416  21.412  0.00  0.00    +0.000 N 
ATOM      2  C   UNL     1      -0.607  10.692  22.764  0.00  0.00    +0.000 C 
ATOM      3  O   UNL     1       0.357  10.399  23.471  0.00  0.00    +0.000 OA
ATOM      4  H   UNL     1      -1.547  10.824  20.948  0.00  0.00    +0.000 HD
ENDROOT
BRANCH   1   8
ATOM      5  C   UNL     1       1.919   8.050  19.106  0.00  0.00    +0.000 A 
ATOM      6  C   UNL     1       1.423   9.256  18.601  0.00  0.00    +0.000 A 
ATOM      7  C   UNL     1       0.547  10.042  19.357  0.00  0.00    +0.000 A 
ATOM      8  C   UNL     1       0.153   9.655  20.635  0.00  0.00    +0.000 A 
ATOM      9  C   UNL     1       0.681   8.479  21.174  0.00  0.00    +0.000 A 
ATOM     10  C   UNL     1       1.548   7.680  20.408  0.00  0.00    +0.000 A 
BRANCH   5  17
ATOM     11  C   UNL     1       6.753   4.089  14.686  0.00  0.00    +0.000 C 
ATOM     12  C   UNL     1       5.708   4.519  15.674  0.00  0.00    +0.000 A 
ATOM     13  C   UNL     1       4.978   3.574  16.398  0.00  0.00    +0.000 A 
ATOM     14  C   UNL     1       4.001   3.973  17.316  0.00  0.00    +0.000 A 
ATOM     15  C   UNL     1       3.744   5.342  17.512  0.00  0.00    +0.000 A 
ATOM     16  N   UNL     1       2.798   5.869  18.371  0.00  0.00    +0.000 NA
ATOM     17  C   UNL     1       2.817   7.185  18.326  0.00  0.00    +0.000 A 
ATOM     18  S   UNL     1       3.962   7.852  17.221  0.00  0.00    +0.000 S 
ATOM     19  C   UNL     1       4.480   6.275  16.786  0.00  0.00    +0.000 A 
ATOM     20  C   UNL     1       5.466   5.889  15.864  0.00  0.00    +0.000 A 
ENDBRANCH   5  17
ENDBRANCH   1   8
BRANCH   2  21
ATOM     21  C   UNL     1      -1.785  11.460  23.368  0.00  0.00    +0.000 C 
BRANCH  21  22
ATOM     22  N   UNL     1      -1.865  12.837  22.832  0.00  0.00    +0.000 NA
ATOM     23  C   UNL     1      -2.843  12.936  21.716  0.00  0.00    +0.000 C 
ATOM     24  C   UNL     1      -4.324  12.695  22.095  0.00  0.00    +0.000 C 
ATOM     25  N   UNL     1      -4.722  13.526  23.234  0.00  0.00    +0.000 N 
ATOM     26  C   UNL     1      -5.756  14.435  23.124  0.00  0.00    +0.000 A 
ATOM     27  C   UNL     1      -6.878  14.158  22.340  0.00  0.00    +0.000 A 
ATOM     28  C   UNL     1      -7.915  15.083  22.228  0.00  0.00    +0.000 A 
ATOM     29  C   UNL     1      -7.822  16.282  22.913  0.00  0.00    +0.000 A 
ATOM     30  C   UNL     1      -6.698  16.488  23.687  0.00  0.00    +0.000 A 
ATOM     31  N   UNL     1      -5.683  15.598  23.810  0.00  0.00    +0.000 NA
ATOM     32  C   UNL     1      -3.787  13.612  24.361  0.00  0.00    +0.000 C 
ATOM     33  C   UNL     1      -2.321  13.779  23.890  0.00  0.00    +0.000 C 
ENDBRANCH  21  22
ENDBRANCH   2  21
TORSDOF 4
ENDMDL
