MODEL 1
REMARK VINA RESULT:      -8.5      0.000      0.000
REMARK  Name = 
REMARK  7 active torsions:
REMARK  status: ('A' for Active; 'I' for Inactive)
REMARK    1  A    between atoms: C_1  and  C_2
REMARK    2  A    between atoms: C_6  and  C_7
REMARK    3  A    between atoms: C_8  and  C_9
REMARK    4  A    between atoms: C_9  and  N_10
REMARK    5  A    between atoms: C_12  and  C_13
REMARK    6  A    between atoms: C_17  and  C_18
REMARK    7  A    between atoms: C_18  and  O_20
REMARK                            x       y       z     vdW  Elec       q    Type
REMARK                         _______ _______ _______ _____ _____    ______ ____
ROOT
ATOM      1  N   UNL     1       5.143   3.612  17.462  0.00  0.00    +0.000 N 
ATOM      2  N   UNL     1       5.746   4.301  18.461  0.00  0.00    +0.000 NA
ATOM      3  C   UNL     1       6.662   5.055  17.840  0.00  0.00    +0.000 A 
ATOM      4  C   UNL     1       7.492   6.012  18.611  0.00  0.00    +0.000 C 
ATOM      5  C   UNL     1       6.674   4.830  16.437  0.00  0.00    +0.000 A 
ATOM      6  C   UNL     1       7.412   5.323  15.344  0.00  0.00    +0.000 A 
ATOM      7  C   UNL     1       7.117   4.859  14.054  0.00  0.00    +0.000 A 
ATOM      8  C   UNL     1       6.090   3.932  13.849  0.00  0.00    +0.000 A 
ATOM      9  C   UNL     1       5.300   3.492  14.923  0.00  0.00    +0.000 A 
ATOM     10  C   UNL     1       5.643   3.926  16.212  0.00  0.00    +0.000 A 
ENDROOT
BRANCH   8  11
ATOM     11  C   UNL     1       5.771   3.381  12.506  0.00  0.00    +0.000 C 
ATOM     12  O   UNL     1       4.677   3.507  11.983  0.00  0.00    +0.000 OA
BRANCH  11  13
ATOM     13  O   UNL     1       6.775   2.674  11.947  0.00  0.00    +0.000 OA
ATOM     14  H   UNL     1       6.881   1.765  12.279  0.00  0.00    +0.000 HD
ENDBRANCH  11  13
ENDBRANCH   8  11
BRANCH   1  15
ATOM     15  C   UNL     1       3.899   2.892  17.742  0.00  0.00    +0.000 C 
BRANCH  15  23
ATOM     16  C   UNL     1       4.703   1.745  20.596  0.00  0.00    +0.000 C 
ATOM     17  C   UNL     1       3.477   2.568  20.309  0.00  0.00    +0.000 A 
ATOM     18  C   UNL     1       2.586   2.700  21.396  0.00  0.00    +0.000 A 
ATOM     19  C   UNL     1       1.403   3.414  21.287  0.00  0.00    +0.000 A 
ATOM     20  C   UNL     1       1.086   4.021  20.084  0.00  0.00    +0.000 A 
ATOM     21  C   UNL     1       1.934   3.897  18.969  0.00  0.00    +0.000 A 
ATOM     22  C   UNL     1       1.480   4.572  17.696  0.00  0.00    +0.000 C 
ATOM     23  C   UNL     1       3.154   3.151  19.053  0.00  0.00    +0.000 A 
ENDBRANCH  15  23
ENDBRANCH   1  15
TORSDOF 4
ENDMDL
MODEL 2
REMARK VINA RESULT:      -8.5      1.151      1.362
REMARK  Name = 
REMARK  7 active torsions:
REMARK  status: ('A' for Active; 'I' for Inactive)
REMARK    1  A    between atoms: C_1  and  C_2
REMARK    2  A    between atoms: C_6  and  C_7
REMARK    3  A    between atoms: C_8  and  C_9
REMARK    4  A    between atoms: C_9  and  N_10
REMARK    5  A    between atoms: C_12  and  C_13
REMARK    6  A    between atoms: C_17  and  C_18
REMARK    7  A    between atoms: C_18  and  O_20
REMARK                            x       y       z     vdW  Elec       q    Type
REMARK                         _______ _______ _______ _____ _____    ______ ____
ROOT
ATOM      1  N   UNL     1       4.719   5.069  17.259  0.00  0.00    +0.000 N 
ATOM      2  N   UNL     1       5.453   5.733  18.185  0.00  0.00    +0.000 NA
ATOM      3  C   UNL     1       6.633   5.942  17.587  0.00  0.00    +0.000 A 
ATOM      4  C   UNL     1       7.696   6.714  18.276  0.00  0.00    +0.000 C 
ATOM      5  C   UNL     1       6.673   5.385  16.281  0.00  0.00    +0.000 A 
ATOM      6  C   UNL     1       7.629   5.302  15.250  0.00  0.00    +0.000 A 
ATOM      7  C   UNL     1       7.289   4.662  14.050  0.00  0.00    +0.000 A 
ATOM      8  C   UNL     1       6.008   4.128  13.867  0.00  0.00    +0.000 A 
ATOM      9  C   UNL     1       5.027   4.272  14.860  0.00  0.00    +0.000 A 
ATOM     10  C   UNL     1       5.401   4.867  16.074  0.00  0.00    +0.000 A 
ENDROOT
BRANCH   8  11
ATOM     11  C   UNL     1       5.617   3.404  12.630  0.00  0.00    +0.000 C 
ATOM     12  O   UNL     1       4.524   3.538  12.104  0.00  0.00    +0.000 OA
BRANCH  11  13
ATOM     13  O   UNL     1       6.548   2.540  12.177  0.00  0.00    +0.000 OA
ATOM     14  H   UNL     1       6.309   2.053  11.369  0.00  0.00    +0.000 HD
ENDBRANCH  11  13
ENDBRANCH   8  11
BRANCH   1  15
ATOM     15  C   UNL     1       3.277   4.919  17.466  0.00  0.00    +0.000 C 
BRANCH  15  23
ATOM     16  C   UNL     1       3.092   1.803  18.070  0.00  0.00    +0.000 C 
ATOM     17  C   UNL     1       2.609   2.892  18.988  0.00  0.00    +0.000 A 
ATOM     18  C   UNL     1       1.911   2.438  20.128  0.00  0.00    +0.000 A 
ATOM     19  C   UNL     1       1.388   3.317  21.062  0.00  0.00    +0.000 A 
ATOM     20  C   UNL     1       1.556   4.678  20.879  0.00  0.00    +0.000 A 
ATOM     21  C   UNL     1       2.225   5.177  19.747  0.00  0.00    +0.000 A 
ATOM     22  C   UNL     1       2.327   6.679  19.628  0.00  0.00    +0.000 C 
ATOM     23  C   UNL     1       2.761   4.287  18.760  0.00  0.00    +0.000 A 
ENDBRANCH  15  23
ENDBRANCH   1  15
TORSDOF 4
ENDMDL
MODEL 3
REMARK VINA RESULT:      -8.3      1.156      1.817
REMARK  Name = 
REMARK  7 active torsions:
REMARK  status: ('A' for Active; 'I' for Inactive)
REMARK    1  A    between atoms: C_1  and  C_2
REMARK    2  A    between atoms: C_6  and  C_7
REMARK    3  A    between atoms: C_8  and  C_9
REMARK    4  A    between atoms: C_9  and  N_10
REMARK    5  A    between atoms: C_12  and  C_13
REMARK    6  A    between atoms: C_17  and  C_18
REMARK    7  A    between atoms: C_18  and  O_20
REMARK                            x       y       z     vdW  Elec       q    Type
REMARK                         _______ _______ _______ _____ _____    ______ ____
ROOT
ATOM      1  N   UNL     1       4.629   5.008  17.275  0.00  0.00    +0.000 N 
ATOM      2  N   UNL     1       5.359   5.615  18.240  0.00  0.00    +0.000 NA
ATOM      3  C   UNL     1       6.567   5.786  17.688  0.00  0.00    +0.000 A 
ATOM      4  C   UNL     1       7.639   6.492  18.431  0.00  0.00    +0.000 C 
ATOM      5  C   UNL     1       6.628   5.258  16.369  0.00  0.00    +0.000 A 
ATOM      6  C   UNL     1       7.613   5.157  15.369  0.00  0.00    +0.000 A 
ATOM      7  C   UNL     1       7.286   4.562  14.143  0.00  0.00    +0.000 A 
ATOM      8  C   UNL     1       5.990   4.090  13.904  0.00  0.00    +0.000 A 
ATOM      9  C   UNL     1       4.983   4.255  14.867  0.00  0.00    +0.000 A 
ATOM     10  C   UNL     1       5.341   4.803  16.108  0.00  0.00    +0.000 A 
ENDROOT
BRANCH   8  11
ATOM     11  C   UNL     1       5.609   3.414  12.637  0.00  0.00    +0.000 C 
ATOM     12  O   UNL     1       4.526   3.579  12.100  0.00  0.00    +0.000 OA
BRANCH  11  13
ATOM     13  O   UNL     1       6.538   2.555  12.168  0.00  0.00    +0.000 OA
ATOM     14  H   UNL     1       6.990   2.019  12.844  0.00  0.00    +0.000 HD
ENDBRANCH  11  13
ENDBRANCH   8  11
BRANCH   1  15
ATOM     15  C   UNL     1       3.176   4.917  17.430  0.00  0.00    +0.000 C 
BRANCH  15  23
ATOM     16  C   UNL     1       2.302   6.799  19.840  0.00  0.00    +0.000 C 
ATOM     17  C   UNL     1       2.273   5.296  19.862  0.00  0.00    +0.000 A 
ATOM     18  C   UNL     1       1.949   4.730  21.114  0.00  0.00    +0.000 A 
ATOM     19  C   UNL     1       1.897   3.358  21.304  0.00  0.00    +0.000 A 
ATOM     20  C   UNL     1       2.161   2.517  20.237  0.00  0.00    +0.000 A 
ATOM     21  C   UNL     1       2.509   3.037  18.977  0.00  0.00    +0.000 A 
ATOM     22  C   UNL     1       2.808   2.032  17.890  0.00  0.00    +0.000 C 
ATOM     23  C   UNL     1       2.585   4.451  18.762  0.00  0.00    +0.000 A 
ENDBRANCH  15  23
ENDBRANCH   1  15
TORSDOF 4
ENDMDL
MODEL 4
REMARK VINA RESULT:      -7.8      1.076      2.060
REMARK  Name = 
REMARK  7 active torsions:
REMARK  status: ('A' for Active; 'I' for Inactive)
REMARK    1  A    between atoms: C_1  and  C_2
REMARK    2  A    between atoms: C_6  and  C_7
REMARK    3  A    between atoms: C_8  and  C_9
REMARK    4  A    between atoms: C_9  and  N_10
REMARK    5  A    between atoms: C_12  and  C_13
REMARK    6  A    between atoms: C_17  and  C_18
REMARK    7  A    between atoms: C_18  and  O_20
REMARK                            x       y       z     vdW  Elec       q    Type
REMARK                         _______ _______ _______ _____ _____    ______ ____
ROOT
ATOM      1  N   UNL     1       4.780   4.448  16.813  0.00  0.00    +0.000 N 
ATOM      2  N   UNL     1       5.398   5.221  17.738  0.00  0.00    +0.000 NA
ATOM      3  C   UNL     1       6.492   5.677  17.114  0.00  0.00    +0.000 A 
ATOM      4  C   UNL     1       7.403   6.627  17.797  0.00  0.00    +0.000 C 
ATOM      5  C   UNL     1       6.598   5.172  15.790  0.00  0.00    +0.000 A 
ATOM      6  C   UNL     1       7.516   5.308  14.731  0.00  0.00    +0.000 A 
ATOM      7  C   UNL     1       7.269   4.644  13.521  0.00  0.00    +0.000 A 
ATOM      8  C   UNL     1       6.115   3.869  13.358  0.00  0.00    +0.000 A 
ATOM      9  C   UNL     1       5.159   3.789  14.382  0.00  0.00    +0.000 A 
ATOM     10  C   UNL     1       5.448   4.416  15.603  0.00  0.00    +0.000 A 
ENDROOT
BRANCH   8  11
ATOM     11  C   UNL     1       5.834   3.114  12.110  0.00  0.00    +0.000 C 
ATOM     12  O   UNL     1       6.674   2.433  11.546  0.00  0.00    +0.000 OA
BRANCH  11  13
ATOM     13  O   UNL     1       4.590   3.299  11.620  0.00  0.00    +0.000 OA
ATOM     14  H   UNL     1       3.867   2.971  12.183  0.00  0.00    +0.000 HD
ENDBRANCH  11  13
ENDBRANCH   8  11
BRANCH   1  15
ATOM     15  C   UNL     1       3.405   4.007  17.055  0.00  0.00    +0.000 C 
BRANCH  15  23
ATOM     16  C   UNL     1       2.226   6.595  18.477  0.00  0.00    +0.000 C 
ATOM     17  C   UNL     1       2.379   5.247  19.125  0.00  0.00    +0.000 A 
ATOM     18  C   UNL     1       2.084   5.217  20.505  0.00  0.00    +0.000 A 
ATOM     19  C   UNL     1       2.193   4.054  21.250  0.00  0.00    +0.000 A 
ATOM     20  C   UNL     1       2.595   2.886  20.627  0.00  0.00    +0.000 A 
ATOM     21  C   UNL     1       2.920   2.873  19.258  0.00  0.00    +0.000 A 
ATOM     22  C   UNL     1       3.376   1.553  18.683  0.00  0.00    +0.000 C 
ATOM     23  C   UNL     1       2.830   4.067  18.472  0.00  0.00    +0.000 A 
ENDBRANCH  15  23
ENDBRANCH   1  15
TORSDOF 4
ENDMDL
MODEL 5
REMARK VINA RESULT:      -7.7      0.337      1.890
REMARK  Name = 
REMARK  7 active torsions:
REMARK  status: ('A' for Active; 'I' for Inactive)
REMARK    1  A    between atoms: C_1  and  C_2
REMARK    2  A    between atoms: C_6  and  C_7
REMARK    3  A    between atoms: C_8  and  C_9
REMARK    4  A    between atoms: C_9  and  N_10
REMARK    5  A    between atoms: C_12  and  C_13
REMARK    6  A    between atoms: C_17  and  C_18
REMARK    7  A    between atoms: C_18  and  O_20
REMARK                            x       y       z     vdW  Elec       q    Type
REMARK                         _______ _______ _______ _____ _____    ______ ____
ROOT
ATOM      1  N   UNL     1       5.136   3.650  17.317  0.00  0.00    +0.000 N 
ATOM      2  N   UNL     1       5.692   4.395  18.303  0.00  0.00    +0.000 NA
ATOM      3  C   UNL     1       6.582   5.171  17.672  0.00  0.00    +0.000 A 
ATOM      4  C   UNL     1       7.357   6.188  18.425  0.00  0.00    +0.000 C 
ATOM      5  C   UNL     1       6.625   4.906  16.277  0.00  0.00    +0.000 A 
ATOM      6  C   UNL     1       7.356   5.400  15.179  0.00  0.00    +0.000 A 
ATOM      7  C   UNL     1       7.102   4.885  13.900  0.00  0.00    +0.000 A 
ATOM      8  C   UNL     1       6.120   3.906  13.709  0.00  0.00    +0.000 A 
ATOM      9  C   UNL     1       5.336   3.463  14.785  0.00  0.00    +0.000 A 
ATOM     10  C   UNL     1       5.640   3.949  16.066  0.00  0.00    +0.000 A 
ENDROOT
BRANCH   8  11
ATOM     11  C   UNL     1       5.847   3.301  12.380  0.00  0.00    +0.000 C 
ATOM     12  O   UNL     1       4.779   3.426  11.804  0.00  0.00    +0.000 OA
BRANCH  11  13
ATOM     13  O   UNL     1       6.857   2.549  11.896  0.00  0.00    +0.000 OA
ATOM     14  H   UNL     1       6.651   2.040  11.092  0.00  0.00    +0.000 HD
ENDBRANCH  11  13
ENDBRANCH   8  11
BRANCH   1  15
ATOM     15  C   UNL     1       3.922   2.883  17.603  0.00  0.00    +0.000 C 
BRANCH  15  23
ATOM     16  C   UNL     1       1.520   4.964  17.690  0.00  0.00    +0.000 C 
ATOM     17  C   UNL     1       2.061   4.218  18.878  0.00  0.00    +0.000 A 
ATOM     18  C   UNL     1       1.513   4.606  20.120  0.00  0.00    +0.000 A 
ATOM     19  C   UNL     1       1.918   4.026  21.311  0.00  0.00    +0.000 A 
ATOM     20  C   UNL     1       2.883   3.033  21.286  0.00  0.00    +0.000 A 
ATOM     21  C   UNL     1       3.473   2.630  20.074  0.00  0.00    +0.000 A 
ATOM     22  C   UNL     1       4.537   1.562  20.162  0.00  0.00    +0.000 C 
ATOM     23  C   UNL     1       3.080   3.228  18.833  0.00  0.00    +0.000 A 
ENDBRANCH  15  23
ENDBRANCH   1  15
TORSDOF 4
ENDMDL
MODEL 6
REMARK VINA RESULT:      -7.5      1.663      2.507
REMARK  Name = 
REMARK  7 active torsions:
REMARK  status: ('A' for Active; 'I' for Inactive)
REMARK    1  A    between atoms: C_1  and  C_2
REMARK    2  A    between atoms: C_6  and  C_7
REMARK    3  A    between atoms: C_8  and  C_9
REMARK    4  A    between atoms: C_9  and  N_10
REMARK    5  A    between atoms: C_12  and  C_13
REMARK    6  A    between atoms: C_17  and  C_18
REMARK    7  A    between atoms: C_18  and  O_20
REMARK                            x       y       z     vdW  Elec       q    Type
REMARK                         _______ _______ _______ _____ _____    ______ ____
ROOT
ATOM      1  N   UNL     1       4.709   4.521  17.747  0.00  0.00    +0.000 N 
ATOM      2  N   UNL     1       5.458   4.949  18.792  0.00  0.00    +0.000 NA
ATOM      3  C   UNL     1       6.659   5.203  18.259  0.00  0.00    +0.000 A 
ATOM      4  C   UNL     1       7.748   5.763  19.096  0.00  0.00    +0.000 C 
ATOM      5  C   UNL     1       6.697   4.910  16.869  0.00  0.00    +0.000 A 
ATOM      6  C   UNL     1       7.669   4.975  15.852  0.00  0.00    +0.000 A 
ATOM      7  C   UNL     1       7.319   4.602  14.546  0.00  0.00    +0.000 A 
ATOM      8  C   UNL     1       6.016   4.187  14.250  0.00  0.00    +0.000 A 
ATOM      9  C   UNL     1       5.023   4.191  15.241  0.00  0.00    +0.000 A 
ATOM     10  C   UNL     1       5.403   4.516  16.552  0.00  0.00    +0.000 A 
ENDROOT
BRANCH   8  11
ATOM     11  C   UNL     1       5.612   3.742  12.891  0.00  0.00    +0.000 C 
ATOM     12  O   UNL     1       4.446   3.603  12.560  0.00  0.00    +0.000 OA
BRANCH  11  13
ATOM     13  O   UNL     1       6.646   3.443  12.077  0.00  0.00    +0.000 OA
ATOM     14  H   UNL     1       7.365   4.099  12.057  0.00  0.00    +0.000 HD
ENDBRANCH  11  13
ENDBRANCH   8  11
BRANCH   1  15
ATOM     15  C   UNL     1       3.257   4.415  17.906  0.00  0.00    +0.000 C 
BRANCH  15  23
ATOM     16  C   UNL     1       3.204   7.566  17.480  0.00  0.00    +0.000 C 
ATOM     17  C   UNL     1       2.566   6.838  18.631  0.00  0.00    +0.000 A 
ATOM     18  C   UNL     1       2.030   7.674  19.634  0.00  0.00    +0.000 A 
ATOM     19  C   UNL     1       1.424   7.157  20.768  0.00  0.00    +0.000 A 
ATOM     20  C   UNL     1       1.332   5.785  20.921  0.00  0.00    +0.000 A 
ATOM     21  C   UNL     1       1.871   4.914  19.957  0.00  0.00    +0.000 A 
ATOM     22  C   UNL     1       1.744   3.435  20.236  0.00  0.00    +0.000 C 
ATOM     23  C   UNL     1       2.517   5.426  18.785  0.00  0.00    +0.000 A 
ENDBRANCH  15  23
ENDBRANCH   1  15
TORSDOF 4
ENDMDL
MODEL 7
REMARK VINA RESULT:      -7.5      4.305      6.032
REMARK  Name = 
REMARK  7 active torsions:
REMARK  status: ('A' for Active; 'I' for Inactive)
REMARK    1  A    between atoms: C_1  and  C_2
REMARK    2  A    between atoms: C_6  and  C_7
REMARK    3  A    between atoms: C_8  and  C_9
REMARK    4  A    between atoms: C_9  and  N_10
REMARK    5  A    between atoms: C_12  and  C_13
REMARK    6  A    between atoms: C_17  and  C_18
REMARK    7  A    between atoms: C_18  and  O_20
REMARK                            x       y       z     vdW  Elec       q    Type
REMARK                         _______ _______ _______ _____ _____    ______ ____
ROOT
ATOM      1  N   UNL     1       2.002   6.447  19.867  0.00  0.00    +0.000 N 
ATOM      2  N   UNL     1       1.253   5.506  20.491  0.00  0.00    +0.000 NA
ATOM      3  C   UNL     1       1.609   4.355  19.906  0.00  0.00    +0.000 A 
ATOM      4  C   UNL     1       1.041   3.068  20.375  0.00  0.00    +0.000 C 
ATOM      5  C   UNL     1       2.570   4.556  18.878  0.00  0.00    +0.000 A 
ATOM      6  C   UNL     1       3.256   3.733  17.966  0.00  0.00    +0.000 A 
ATOM      7  C   UNL     1       4.175   4.311  17.077  0.00  0.00    +0.000 A 
ATOM      8  C   UNL     1       4.423   5.688  17.108  0.00  0.00    +0.000 A 
ATOM      9  C   UNL     1       3.799   6.504  18.063  0.00  0.00    +0.000 A 
ATOM     10  C   UNL     1       2.844   5.918  18.908  0.00  0.00    +0.000 A 
ENDROOT
BRANCH   8  11
ATOM     11  C   UNL     1       5.355   6.350  16.158  0.00  0.00    +0.000 C 
ATOM     12  O   UNL     1       4.970   7.015  15.211  0.00  0.00    +0.000 OA
BRANCH  11  13
ATOM     13  O   UNL     1       6.658   6.096  16.396  0.00  0.00    +0.000 OA
ATOM     14  H   UNL     1       6.908   6.039  17.335  0.00  0.00    +0.000 HD
ENDBRANCH  11  13
ENDBRANCH   8  11
BRANCH   1  15
ATOM     15  C   UNL     1       2.078   7.792  20.441  0.00  0.00    +0.000 C 
BRANCH  15  23
ATOM     16  C   UNL     1       2.024   9.253  17.617  0.00  0.00    +0.000 C 
ATOM     17  C   UNL     1       1.106   9.561  18.768  0.00  0.00    +0.000 A 
ATOM     18  C   UNL     1       0.266  10.678  18.571  0.00  0.00    +0.000 A 
ATOM     19  C   UNL     1      -0.626  11.102  19.543  0.00  0.00    +0.000 A 
ATOM     20  C   UNL     1      -0.702  10.411  20.740  0.00  0.00    +0.000 A 
ATOM     21  C   UNL     1       0.131   9.305  20.988  0.00  0.00    +0.000 A 
ATOM     22  C   UNL     1      -0.011   8.640  22.337  0.00  0.00    +0.000 C 
ATOM     23  C   UNL     1       1.072   8.859  20.003  0.00  0.00    +0.000 A 
ENDBRANCH  15  23
ENDBRANCH   1  15
TORSDOF 4
ENDMDL
MODEL 8
REMARK VINA RESULT:      -7.5      1.486      1.662
REMARK  Name = 
REMARK  7 active torsions:
REMARK  status: ('A' for Active; 'I' for Inactive)
REMARK    1  A    between atoms: C_1  and  C_2
REMARK    2  A    between atoms: C_6  and  C_7
REMARK    3  A    between atoms: C_8  and  C_9
REMARK    4  A    between atoms: C_9  and  N_10
REMARK    5  A    between atoms: C_12  and  C_13
REMARK    6  A    between atoms: C_17  and  C_18
REMARK    7  A    between atoms: C_18  and  O_20
REMARK                            x       y       z     vdW  Elec       q    Type
REMARK                         _______ _______ _______ _____ _____    ______ ____
ROOT
ATOM      1  N   UNL     1       4.953   4.928  17.069  0.00  0.00    +0.000 N 
ATOM      2  N   UNL     1       5.688   5.667  17.935  0.00  0.00    +0.000 NA
ATOM      3  C   UNL     1       6.798   5.976  17.251  0.00  0.00    +0.000 A 
ATOM      4  C   UNL     1       7.833   6.849  17.856  0.00  0.00    +0.000 C 
ATOM      5  C   UNL     1       6.794   5.408  15.948  0.00  0.00    +0.000 A 
ATOM      6  C   UNL     1       7.677   5.400  14.851  0.00  0.00    +0.000 A 
ATOM      7  C   UNL     1       7.310   4.717  13.683  0.00  0.00    +0.000 A 
ATOM      8  C   UNL     1       6.074   4.066  13.597  0.00  0.00    +0.000 A 
ATOM      9  C   UNL     1       5.158   4.133  14.658  0.00  0.00    +0.000 A 
ATOM     10  C   UNL     1       5.563   4.775  15.838  0.00  0.00    +0.000 A 
ENDROOT
BRANCH   8  11
ATOM     11  C   UNL     1       5.662   3.295  12.396  0.00  0.00    +0.000 C 
ATOM     12  O   UNL     1       4.553   3.391  11.897  0.00  0.00    +0.000 OA
BRANCH  11  13
ATOM     13  O   UNL     1       6.596   2.432  11.946  0.00  0.00    +0.000 OA
ATOM     14  H   UNL     1       6.281   1.527  11.774  0.00  0.00    +0.000 HD
ENDBRANCH  11  13
ENDBRANCH   8  11
BRANCH   1  15
ATOM     15  C   UNL     1       3.550   4.650  17.382  0.00  0.00    +0.000 C 
BRANCH  15  23
ATOM     16  C   UNL     1       3.001   2.691  19.825  0.00  0.00    +0.000 C 
ATOM     17  C   UNL     1       2.669   4.158  19.801  0.00  0.00    +0.000 A 
ATOM     18  C   UNL     1       1.943   4.618  20.921  0.00  0.00    +0.000 A 
ATOM     19  C   UNL     1       1.546   5.940  21.042  0.00  0.00    +0.000 A 
ATOM     20  C   UNL     1       1.875   6.839  20.042  0.00  0.00    +0.000 A 
ATOM     21  C   UNL     1       2.579   6.420  18.898  0.00  0.00    +0.000 A 
ATOM     22  C   UNL     1       2.859   7.474  17.853  0.00  0.00    +0.000 C 
ATOM     23  C   UNL     1       2.984   5.055  18.745  0.00  0.00    +0.000 A 
ENDBRANCH  15  23
ENDBRANCH   1  15
TORSDOF 4
ENDMDL
MODEL 9
REMARK VINA RESULT:      -7.4      4.022      5.742
REMARK  Name = 
REMARK  7 active torsions:
REMARK  status: ('A' for Active; 'I' for Inactive)
REMARK    1  A    between atoms: C_1  and  C_2
REMARK    2  A    between atoms: C_6  and  C_7
REMARK    3  A    between atoms: C_8  and  C_9
REMARK    4  A    between atoms: C_9  and  N_10
REMARK    5  A    between atoms: C_12  and  C_13
REMARK    6  A    between atoms: C_17  and  C_18
REMARK    7  A    between atoms: C_18  and  O_20
REMARK                            x       y       z     vdW  Elec       q    Type
REMARK                         _______ _______ _______ _____ _____    ______ ____
ROOT
ATOM      1  N   UNL     1       2.144   6.352  19.794  0.00  0.00    +0.000 N 
ATOM      2  N   UNL     1       1.372   5.531  20.547  0.00  0.00    +0.000 NA
ATOM      3  C   UNL     1       1.614   4.307  20.060  0.00  0.00    +0.000 A 
ATOM      4  C   UNL     1       0.990   3.115  20.684  0.00  0.00    +0.000 C 
ATOM      5  C   UNL     1       2.523   4.339  18.968  0.00  0.00    +0.000 A 
ATOM      6  C   UNL     1       3.097   3.384  18.107  0.00  0.00    +0.000 A 
ATOM      7  C   UNL     1       3.997   3.807  17.118  0.00  0.00    +0.000 A 
ATOM      8  C   UNL     1       4.339   5.159  16.999  0.00  0.00    +0.000 A 
ATOM      9  C   UNL     1       3.830   6.106  17.901  0.00  0.00    +0.000 A 
ATOM     10  C   UNL     1       2.890   5.674  18.848  0.00  0.00    +0.000 A 
ENDROOT
BRANCH   8  11
ATOM     11  C   UNL     1       5.255   5.658  15.941  0.00  0.00    +0.000 C 
ATOM     12  O   UNL     1       5.197   6.793  15.498  0.00  0.00    +0.000 OA
BRANCH  11  13
ATOM     13  O   UNL     1       6.110   4.728  15.467  0.00  0.00    +0.000 OA
ATOM     14  H   UNL     1       6.304   3.992  16.073  0.00  0.00    +0.000 HD
ENDBRANCH  11  13
ENDBRANCH   8  11
BRANCH   1  15
ATOM     15  C   UNL     1       2.344   7.736  20.226  0.00  0.00    +0.000 C 
BRANCH  15  23
ATOM     16  C   UNL     1       0.111   8.701  22.273  0.00  0.00    +0.000 C 
ATOM     17  C   UNL     1       0.221   9.145  20.841  0.00  0.00    +0.000 A 
ATOM     18  C   UNL     1      -0.848   9.948  20.388  0.00  0.00    +0.000 A 
ATOM     19  C   UNL     1      -0.903  10.425  19.088  0.00  0.00    +0.000 A 
ATOM     20  C   UNL     1       0.119  10.112  18.208  0.00  0.00    +0.000 A 
ATOM     21  C   UNL     1       1.193   9.297  18.610  0.00  0.00    +0.000 A 
ATOM     22  C   UNL     1       2.239   8.992  17.564  0.00  0.00    +0.000 C 
ATOM     23  C   UNL     1       1.262   8.781  19.945  0.00  0.00    +0.000 A 
ENDBRANCH  15  23
ENDBRANCH   1  15
TORSDOF 4
ENDMDL
