MODEL 1
REMARK VINA RESULT:      -6.5      0.000      0.000
REMARK  Name = 
REMARK  15 active torsions:
REMARK  status: ('A' for Active; 'I' for Inactive)
REMARK    1  A    between atoms: C_1  and  C_2
REMARK    2  A    between atoms: C_2  and  C_3
REMARK    3  A    between atoms: C_3  and  C_4
REMARK    4  A    between atoms: C_4  and  C_5
REMARK    5  A    between atoms: C_5  and  C_6
REMARK    6  A    between atoms: C_6  and  C_7
REMARK    7  A    between atoms: C_7  and  C_8
REMARK    8  A    between atoms: C_8  and  O_9
REMARK    9  A    between atoms: O_9  and  C_10
REMARK   10  A    between atoms: C_13  and  C_14
REMARK   11  A    between atoms: C_17  and  C_18
REMARK   12  A    between atoms: C_18  and  C_19
REMARK   13  A    between atoms: C_18  and  N_20
REMARK   14  A    between atoms: C_18  and  C_21
REMARK   15  A    between atoms: C_21  and  O_22
REMARK                            x       y       z     vdW  Elec       q    Type
REMARK                         _______ _______ _______ _____ _____    ______ ____
ROOT
ATOM      1  C   UNL     1       4.227   5.958  18.330  0.00  0.00    +0.000 A 
ATOM      2  C   UNL     1       3.508   5.887  19.519  0.00  0.00    +0.000 A 
ATOM      3  C   UNL     1       2.477   6.787  19.769  0.00  0.00    +0.000 A 
ATOM      4  C   UNL     1       2.244   7.864  18.906  0.00  0.00    +0.000 A 
ATOM      5  C   UNL     1       3.003   7.946  17.729  0.00  0.00    +0.000 A 
ATOM      6  C   UNL     1       3.989   6.997  17.432  0.00  0.00    +0.000 A 
ENDROOT
BRANCH   4   7
ATOM      7  C   UNL     1       1.287   8.895  19.248  0.00  0.00    +0.000 A 
ATOM      8  C   UNL     1       0.803   9.119  20.519  0.00  0.00    +0.000 A 
ATOM      9  N   UNL     1      -0.078  10.163  20.396  0.00  0.00    +0.000 N 
ATOM     10  C   UNL     1      -0.134  10.507  19.064  0.00  0.00    +0.000 A 
ATOM     11  N   UNL     1       0.696   9.753  18.354  0.00  0.00    +0.000 NA
ATOM     12  H   UNL     1      -0.595  10.605  21.128  0.00  0.00    +0.000 HD
BRANCH  10  13
ATOM     13  C   UNL     1      -1.018  11.621  18.547  0.00  0.00    +0.000 C 
ATOM     14  C   UNL     1      -0.195  12.915  18.414  0.00  0.00    +0.000 C 
BRANCH  13  15
ATOM     15  N   UNL     1      -1.583  11.259  17.223  0.00  0.00    +0.000 NA
ATOM     16  H   UNL     1      -1.185  11.867  16.505  0.00  0.00    +0.000 HD
ATOM     17  H   UNL     1      -2.580  11.479  17.235  0.00  0.00    +0.000 HD
ENDBRANCH  13  15
BRANCH  13  18
ATOM     18  C   UNL     1      -2.187  11.855  19.548  0.00  0.00    +0.000 C 
BRANCH  18  19
ATOM     19  O   UNL     1      -3.161  12.789  19.081  0.00  0.00    +0.000 OA
ATOM     20  H   UNL     1      -3.171  13.523  19.733  0.00  0.00    +0.000 HD
ENDBRANCH  18  19
ENDBRANCH  13  18
ENDBRANCH  10  13
ENDBRANCH   4   7
BRANCH   1  21
ATOM     21  O   UNL     1       5.144   4.975  18.009  0.00  0.00    +0.000 OA
BRANCH  21  22
ATOM     22  C   UNL     1       4.610   4.003  17.081  0.00  0.00    +0.000 C 
BRANCH  22  23
ATOM     23  C   UNL     1       3.872   2.926  17.853  0.00  0.00    +0.000 C 
BRANCH  23  24
ATOM     24  C   UNL     1       2.493   2.678  17.254  0.00  0.00    +0.000 C 
BRANCH  24  25
ATOM     25  C   UNL     1       1.446   3.529  17.958  0.00  0.00    +0.000 C 
BRANCH  25  26
ATOM     26  C   UNL     1       0.805   2.746  19.095  0.00  0.00    +0.000 C 
BRANCH  26  27
ATOM     27  C   UNL     1       0.788   3.581  20.365  0.00  0.00    +0.000 C 
BRANCH  27  29
ATOM     28  C   UNL     1       2.863   2.684  21.417  0.00  0.00    +0.000 C 
ATOM     29  C   UNL     1       1.357   2.787  21.533  0.00  0.00    +0.000 C 
ENDBRANCH  27  29
ENDBRANCH  26  27
ENDBRANCH  25  26
ENDBRANCH  24  25
ENDBRANCH  23  24
ENDBRANCH  22  23
ENDBRANCH  21  22
ENDBRANCH   1  21
TORSDOF 13
ENDMDL
MODEL 2
REMARK VINA RESULT:      -6.5      1.006      1.242
REMARK  Name = 
REMARK  15 active torsions:
REMARK  status: ('A' for Active; 'I' for Inactive)
REMARK    1  A    between atoms: C_1  and  C_2
REMARK    2  A    between atoms: C_2  and  C_3
REMARK    3  A    between atoms: C_3  and  C_4
REMARK    4  A    between atoms: C_4  and  C_5
REMARK    5  A    between atoms: C_5  and  C_6
REMARK    6  A    between atoms: C_6  and  C_7
REMARK    7  A    between atoms: C_7  and  C_8
REMARK    8  A    between atoms: C_8  and  O_9
REMARK    9  A    between atoms: O_9  and  C_10
REMARK   10  A    between atoms: C_13  and  C_14
REMARK   11  A    between atoms: C_17  and  C_18
REMARK   12  A    between atoms: C_18  and  C_19
REMARK   13  A    between atoms: C_18  and  N_20
REMARK   14  A    between atoms: C_18  and  C_21
REMARK   15  A    between atoms: C_21  and  O_22
REMARK                            x       y       z     vdW  Elec       q    Type
REMARK                         _______ _______ _______ _____ _____    ______ ____
ROOT
ATOM      1  C   UNL     1       3.931   6.507  18.326  0.00  0.00    +0.000 A 
ATOM      2  C   UNL     1       3.158   6.343  19.471  0.00  0.00    +0.000 A 
ATOM      3  C   UNL     1       2.095   7.203  19.728  0.00  0.00    +0.000 A 
ATOM      4  C   UNL     1       1.878   8.329  18.926  0.00  0.00    +0.000 A 
ATOM      5  C   UNL     1       2.691   8.505  17.796  0.00  0.00    +0.000 A 
ATOM      6  C   UNL     1       3.712   7.598  17.487  0.00  0.00    +0.000 A 
ENDROOT
BRANCH   4   7
ATOM      7  C   UNL     1       0.882   9.316  19.286  0.00  0.00    +0.000 A 
ATOM      8  C   UNL     1       0.521   9.623  20.581  0.00  0.00    +0.000 A 
ATOM      9  N   UNL     1      -0.451  10.584  20.472  0.00  0.00    +0.000 N 
ATOM     10  C   UNL     1      -0.680  10.795  19.130  0.00  0.00    +0.000 A 
ATOM     11  N   UNL     1       0.129  10.040  18.397  0.00  0.00    +0.000 NA
ATOM     12  H   UNL     1      -0.921  11.054  21.218  0.00  0.00    +0.000 HD
BRANCH  10  13
ATOM     13  C   UNL     1      -1.704  11.789  18.625  0.00  0.00    +0.000 C 
ATOM     14  C   UNL     1      -2.080  12.763  19.757  0.00  0.00    +0.000 C 
BRANCH  13  15
ATOM     15  N   UNL     1      -1.156  12.555  17.478  0.00  0.00    +0.000 NA
ATOM     16  H   UNL     1      -1.253  12.006  16.623  0.00  0.00    +0.000 HD
ATOM     17  H   UNL     1      -0.149  12.655  17.618  0.00  0.00    +0.000 HD
ENDBRANCH  13  15
BRANCH  13  18
ATOM     18  C   UNL     1      -2.977  11.023  18.160  0.00  0.00    +0.000 C 
BRANCH  18  19
ATOM     19  O   UNL     1      -2.699   9.738  17.603  0.00  0.00    +0.000 OA
ATOM     20  H   UNL     1      -3.084   9.743  16.700  0.00  0.00    +0.000 HD
ENDBRANCH  18  19
ENDBRANCH  13  18
ENDBRANCH  10  13
ENDBRANCH   4   7
BRANCH   1  21
ATOM     21  O   UNL     1       4.886   5.566  17.988  0.00  0.00    +0.000 OA
BRANCH  21  22
ATOM     22  C   UNL     1       4.523   4.810  16.810  0.00  0.00    +0.000 C 
BRANCH  22  23
ATOM     23  C   UNL     1       4.747   3.333  17.074  0.00  0.00    +0.000 C 
BRANCH  23  24
ATOM     24  C   UNL     1       3.657   2.774  17.981  0.00  0.00    +0.000 C 
BRANCH  24  25
ATOM     25  C   UNL     1       2.297   2.883  17.309  0.00  0.00    +0.000 C 
BRANCH  25  26
ATOM     26  C   UNL     1       1.333   3.667  18.188  0.00  0.00    +0.000 C 
BRANCH  26  27
ATOM     27  C   UNL     1       0.909   2.829  19.383  0.00  0.00    +0.000 C 
BRANCH  27  29
ATOM     28  C   UNL     1       2.102   2.910  21.570  0.00  0.00    +0.000 C 
ATOM     29  C   UNL     1       1.099   3.608  20.677  0.00  0.00    +0.000 C 
ENDBRANCH  27  29
ENDBRANCH  26  27
ENDBRANCH  25  26
ENDBRANCH  24  25
ENDBRANCH  23  24
ENDBRANCH  22  23
ENDBRANCH  21  22
ENDBRANCH   1  21
TORSDOF 13
ENDMDL
MODEL 3
REMARK VINA RESULT:      -6.4      1.199      1.700
REMARK  Name = 
REMARK  15 active torsions:
REMARK  status: ('A' for Active; 'I' for Inactive)
REMARK    1  A    between atoms: C_1  and  C_2
REMARK    2  A    between atoms: C_2  and  C_3
REMARK    3  A    between atoms: C_3  and  C_4
REMARK    4  A    between atoms: C_4  and  C_5
REMARK    5  A    between atoms: C_5  and  C_6
REMARK    6  A    between atoms: C_6  and  C_7
REMARK    7  A    between atoms: C_7  and  C_8
REMARK    8  A    between atoms: C_8  and  O_9
REMARK    9  A    between atoms: O_9  and  C_10
REMARK   10  A    between atoms: C_13  and  C_14
REMARK   11  A    between atoms: C_17  and  C_18
REMARK   12  A    between atoms: C_18  and  C_19
REMARK   13  A    between atoms: C_18  and  N_20
REMARK   14  A    between atoms: C_18  and  C_21
REMARK   15  A    between atoms: C_21  and  O_22
REMARK                            x       y       z     vdW  Elec       q    Type
REMARK                         _______ _______ _______ _____ _____    ______ ____
ROOT
ATOM      1  C   UNL     1       3.955   6.145  18.218  0.00  0.00    +0.000 A 
ATOM      2  C   UNL     1       3.701   7.202  17.350  0.00  0.00    +0.000 A 
ATOM      3  C   UNL     1       2.858   8.240  17.736  0.00  0.00    +0.000 A 
ATOM      4  C   UNL     1       2.138   8.165  18.933  0.00  0.00    +0.000 A 
ATOM      5  C   UNL     1       2.372   7.074  19.782  0.00  0.00    +0.000 A 
ATOM      6  C   UNL     1       3.280   6.066  19.436  0.00  0.00    +0.000 A 
ENDROOT
BRANCH   4   7
ATOM      7  C   UNL     1       1.136   9.159  19.258  0.00  0.00    +0.000 A 
ATOM      8  C   UNL     1       0.747   9.485  20.540  0.00  0.00    +0.000 A 
ATOM      9  N   UNL     1      -0.220  10.446  20.396  0.00  0.00    +0.000 N 
ATOM     10  C   UNL     1      -0.418  10.640  19.046  0.00  0.00    +0.000 A 
ATOM     11  N   UNL     1       0.405   9.873  18.342  0.00  0.00    +0.000 NA
ATOM     12  H   UNL     1      -0.705  10.928  21.124  0.00  0.00    +0.000 HD
BRANCH  10  13
ATOM     13  C   UNL     1      -1.428  11.628  18.505  0.00  0.00    +0.000 C 
ATOM     14  C   UNL     1      -2.132  11.028  17.275  0.00  0.00    +0.000 C 
BRANCH  13  15
ATOM     15  N   UNL     1      -2.440  11.951  19.542  0.00  0.00    +0.000 NA
ATOM     16  H   UNL     1      -3.360  11.640  19.229  0.00  0.00    +0.000 HD
ATOM     17  H   UNL     1      -2.511  12.968  19.608  0.00  0.00    +0.000 HD
ENDBRANCH  13  15
BRANCH  13  18
ATOM     18  C   UNL     1      -0.694  12.937  18.090  0.00  0.00    +0.000 C 
BRANCH  18  19
ATOM     19  O   UNL     1       0.730  12.828  18.120  0.00  0.00    +0.000 OA
ATOM     20  H   UNL     1       0.930  11.989  18.588  0.00  0.00    +0.000 HD
ENDBRANCH  18  19
ENDBRANCH  13  18
ENDBRANCH  10  13
ENDBRANCH   4   7
BRANCH   1  21
ATOM     21  O   UNL     1       4.908   5.195  17.902  0.00  0.00    +0.000 OA
BRANCH  21  22
ATOM     22  C   UNL     1       4.636   3.914  18.516  0.00  0.00    +0.000 C 
BRANCH  22  23
ATOM     23  C   UNL     1       3.756   3.093  17.593  0.00  0.00    +0.000 C 
BRANCH  23  24
ATOM     24  C   UNL     1       3.315   1.802  18.272  0.00  0.00    +0.000 C 
BRANCH  24  25
ATOM     25  C   UNL     1       1.815   1.817  18.523  0.00  0.00    +0.000 C 
BRANCH  25  26
ATOM     26  C   UNL     1       1.278   3.238  18.443  0.00  0.00    +0.000 C 
BRANCH  26  27
ATOM     27  C   UNL     1       0.774   3.689  19.804  0.00  0.00    +0.000 C 
BRANCH  27  29
ATOM     28  C   UNL     1       2.236   3.427  21.807  0.00  0.00    +0.000 C 
ATOM     29  C   UNL     1       1.248   2.734  20.892  0.00  0.00    +0.000 C 
ENDBRANCH  27  29
ENDBRANCH  26  27
ENDBRANCH  25  26
ENDBRANCH  24  25
ENDBRANCH  23  24
ENDBRANCH  22  23
ENDBRANCH  21  22
ENDBRANCH   1  21
TORSDOF 13
ENDMDL
MODEL 4
REMARK VINA RESULT:      -6.3      1.377      1.607
REMARK  Name = 
REMARK  15 active torsions:
REMARK  status: ('A' for Active; 'I' for Inactive)
REMARK    1  A    between atoms: C_1  and  C_2
REMARK    2  A    between atoms: C_2  and  C_3
REMARK    3  A    between atoms: C_3  and  C_4
REMARK    4  A    between atoms: C_4  and  C_5
REMARK    5  A    between atoms: C_5  and  C_6
REMARK    6  A    between atoms: C_6  and  C_7
REMARK    7  A    between atoms: C_7  and  C_8
REMARK    8  A    between atoms: C_8  and  O_9
REMARK    9  A    between atoms: O_9  and  C_10
REMARK   10  A    between atoms: C_13  and  C_14
REMARK   11  A    between atoms: C_17  and  C_18
REMARK   12  A    between atoms: C_18  and  C_19
REMARK   13  A    between atoms: C_18  and  N_20
REMARK   14  A    between atoms: C_18  and  C_21
REMARK   15  A    between atoms: C_21  and  O_22
REMARK                            x       y       z     vdW  Elec       q    Type
REMARK                         _______ _______ _______ _____ _____    ______ ____
ROOT
ATOM      1  C   UNL     1       4.331   5.892  18.438  0.00  0.00    +0.000 A 
ATOM      2  C   UNL     1       3.418   6.174  19.449  0.00  0.00    +0.000 A 
ATOM      3  C   UNL     1       2.507   7.215  19.300  0.00  0.00    +0.000 A 
ATOM      4  C   UNL     1       2.589   8.085  18.207  0.00  0.00    +0.000 A 
ATOM      5  C   UNL     1       3.541   7.813  17.213  0.00  0.00    +0.000 A 
ATOM      6  C   UNL     1       4.409   6.719  17.318  0.00  0.00    +0.000 A 
ENDROOT
BRANCH   4   7
ATOM      7  C   UNL     1       1.754   9.265  18.134  0.00  0.00    +0.000 A 
ATOM      8  C   UNL     1       2.224  10.559  18.206  0.00  0.00    +0.000 A 
ATOM      9  N   UNL     1       1.113  11.358  18.112  0.00  0.00    +0.000 N 
ATOM     10  C   UNL     1       0.013  10.533  18.033  0.00  0.00    +0.000 A 
ATOM     11  N   UNL     1       0.385   9.260  18.035  0.00  0.00    +0.000 NA
ATOM     12  H   UNL     1       1.087  12.356  18.104  0.00  0.00    +0.000 HD
BRANCH  10  13
ATOM     13  C   UNL     1      -1.399  11.069  17.928  0.00  0.00    +0.000 C 
ATOM     14  C   UNL     1      -2.039  11.119  19.327  0.00  0.00    +0.000 C 
BRANCH  13  15
ATOM     15  N   UNL     1      -1.391  12.433  17.342  0.00  0.00    +0.000 NA
ATOM     16  H   UNL     1      -2.007  12.459  16.529  0.00  0.00    +0.000 HD
ATOM     17  H   UNL     1      -0.455  12.611  16.972  0.00  0.00    +0.000 HD
ENDBRANCH  13  15
BRANCH  13  18
ATOM     18  C   UNL     1      -2.238  10.130  17.012  0.00  0.00    +0.000 C 
BRANCH  18  19
ATOM     19  O   UNL     1      -2.409  10.630  15.685  0.00  0.00    +0.000 OA
ATOM     20  H   UNL     1      -3.377  10.702  15.543  0.00  0.00    +0.000 HD
ENDBRANCH  18  19
ENDBRANCH  13  18
ENDBRANCH  10  13
ENDBRANCH   4   7
BRANCH   1  21
ATOM     21  O   UNL     1       5.131   4.767  18.513  0.00  0.00    +0.000 OA
BRANCH  21  22
ATOM     22  C   UNL     1       4.364   3.555  18.697  0.00  0.00    +0.000 C 
BRANCH  22  23
ATOM     23  C   UNL     1       3.744   3.150  17.373  0.00  0.00    +0.000 C 
BRANCH  23  24
ATOM     24  C   UNL     1       2.431   2.408  17.595  0.00  0.00    +0.000 C 
BRANCH  24  25
ATOM     25  C   UNL     1       1.376   3.350  18.157  0.00  0.00    +0.000 C 
BRANCH  25  26
ATOM     26  C   UNL     1       0.889   2.853  19.510  0.00  0.00    +0.000 C 
BRANCH  26  27
ATOM     27  C   UNL     1       0.899   3.987  20.522  0.00  0.00    +0.000 C 
BRANCH  27  29
ATOM     28  C   UNL     1       2.354   2.314  21.662  0.00  0.00    +0.000 C 
ATOM     29  C   UNL     1       2.012   3.785  21.540  0.00  0.00    +0.000 C 
ENDBRANCH  27  29
ENDBRANCH  26  27
ENDBRANCH  25  26
ENDBRANCH  24  25
ENDBRANCH  23  24
ENDBRANCH  22  23
ENDBRANCH  21  22
ENDBRANCH   1  21
TORSDOF 13
ENDMDL
MODEL 5
REMARK VINA RESULT:      -6.2      1.256      1.844
REMARK  Name = 
REMARK  15 active torsions:
REMARK  status: ('A' for Active; 'I' for Inactive)
REMARK    1  A    between atoms: C_1  and  C_2
REMARK    2  A    between atoms: C_2  and  C_3
REMARK    3  A    between atoms: C_3  and  C_4
REMARK    4  A    between atoms: C_4  and  C_5
REMARK    5  A    between atoms: C_5  and  C_6
REMARK    6  A    between atoms: C_6  and  C_7
REMARK    7  A    between atoms: C_7  and  C_8
REMARK    8  A    between atoms: C_8  and  O_9
REMARK    9  A    between atoms: O_9  and  C_10
REMARK   10  A    between atoms: C_13  and  C_14
REMARK   11  A    between atoms: C_17  and  C_18
REMARK   12  A    between atoms: C_18  and  C_19
REMARK   13  A    between atoms: C_18  and  N_20
REMARK   14  A    between atoms: C_18  and  C_21
REMARK   15  A    between atoms: C_21  and  O_22
REMARK                            x       y       z     vdW  Elec       q    Type
REMARK                         _______ _______ _______ _____ _____    ______ ____
ROOT
ATOM      1  C   UNL     1       3.366   6.746  18.238  0.00  0.00    +0.000 A 
ATOM      2  C   UNL     1       3.009   7.810  17.415  0.00  0.00    +0.000 A 
ATOM      3  C   UNL     1       2.196   8.829  17.901  0.00  0.00    +0.000 A 
ATOM      4  C   UNL     1       1.605   8.729  19.165  0.00  0.00    +0.000 A 
ATOM      5  C   UNL     1       1.941   7.630  19.970  0.00  0.00    +0.000 A 
ATOM      6  C   UNL     1       2.823   6.641  19.517  0.00  0.00    +0.000 A 
ENDROOT
BRANCH   4   7
ATOM      7  C   UNL     1       0.628   9.702  19.605  0.00  0.00    +0.000 A 
ATOM      8  C   UNL     1       0.270   9.909  20.921  0.00  0.00    +0.000 A 
ATOM      9  N   UNL     1      -0.682  10.896  20.891  0.00  0.00    +0.000 N 
ATOM     10  C   UNL     1      -0.902  11.222  19.571  0.00  0.00    +0.000 A 
ATOM     11  N   UNL     1      -0.108  10.514  18.778  0.00  0.00    +0.000 NA
ATOM     12  H   UNL     1      -1.144  11.312  21.673  0.00  0.00    +0.000 HD
BRANCH  10  13
ATOM     13  C   UNL     1      -1.904  12.275  19.149  0.00  0.00    +0.000 C 
ATOM     14  C   UNL     1      -2.875  12.560  20.311  0.00  0.00    +0.000 C 
BRANCH  13  15
ATOM     15  N   UNL     1      -1.206  13.530  18.774  0.00  0.00    +0.000 NA
ATOM     16  H   UNL     1      -1.793  14.331  19.009  0.00  0.00    +0.000 HD
ATOM     17  H   UNL     1      -1.123  13.551  17.756  0.00  0.00    +0.000 HD
ENDBRANCH  13  15
BRANCH  13  18
ATOM     18  C   UNL     1      -2.709  11.757  17.922  0.00  0.00    +0.000 C 
BRANCH  18  19
ATOM     19  O   UNL     1      -1.985  11.828  16.693  0.00  0.00    +0.000 OA
ATOM     20  H   UNL     1      -2.168  10.989  16.219  0.00  0.00    +0.000 HD
ENDBRANCH  18  19
ENDBRANCH  13  18
ENDBRANCH  10  13
ENDBRANCH   4   7
BRANCH   1  21
ATOM     21  O   UNL     1       4.295   5.815  17.812  0.00  0.00    +0.000 OA
BRANCH  21  22
ATOM     22  C   UNL     1       4.808   5.011  18.898  0.00  0.00    +0.000 C 
BRANCH  22  23
ATOM     23  C   UNL     1       4.839   3.555  18.472  0.00  0.00    +0.000 C 
BRANCH  23  24
ATOM     24  C   UNL     1       3.625   3.216  17.615  0.00  0.00    +0.000 C 
BRANCH  24  25
ATOM     25  C   UNL     1       2.625   2.389  18.410  0.00  0.00    +0.000 C 
BRANCH  25  26
ATOM     26  C   UNL     1       1.265   3.071  18.423  0.00  0.00    +0.000 C 
BRANCH  26  27
ATOM     27  C   UNL     1       0.985   3.664  19.794  0.00  0.00    +0.000 C 
BRANCH  27  29
ATOM     28  C   UNL     1       1.422   2.469  21.938  0.00  0.00    +0.000 C 
ATOM     29  C   UNL     1       2.052   3.232  20.791  0.00  0.00    +0.000 C 
ENDBRANCH  27  29
ENDBRANCH  26  27
ENDBRANCH  25  26
ENDBRANCH  24  25
ENDBRANCH  23  24
ENDBRANCH  22  23
ENDBRANCH  21  22
ENDBRANCH   1  21
TORSDOF 13
ENDMDL
MODEL 6
REMARK VINA RESULT:      -6.2      1.196      1.691
REMARK  Name = 
REMARK  15 active torsions:
REMARK  status: ('A' for Active; 'I' for Inactive)
REMARK    1  A    between atoms: C_1  and  C_2
REMARK    2  A    between atoms: C_2  and  C_3
REMARK    3  A    between atoms: C_3  and  C_4
REMARK    4  A    between atoms: C_4  and  C_5
REMARK    5  A    between atoms: C_5  and  C_6
REMARK    6  A    between atoms: C_6  and  C_7
REMARK    7  A    between atoms: C_7  and  C_8
REMARK    8  A    between atoms: C_8  and  O_9
REMARK    9  A    between atoms: O_9  and  C_10
REMARK   10  A    between atoms: C_13  and  C_14
REMARK   11  A    between atoms: C_17  and  C_18
REMARK   12  A    between atoms: C_18  and  C_19
REMARK   13  A    between atoms: C_18  and  N_20
REMARK   14  A    between atoms: C_18  and  C_21
REMARK   15  A    between atoms: C_21  and  O_22
REMARK                            x       y       z     vdW  Elec       q    Type
REMARK                         _______ _______ _______ _____ _____    ______ ____
ROOT
ATOM      1  C   UNL     1       4.186   6.092  18.524  0.00  0.00    +0.000 A 
ATOM      2  C   UNL     1       4.178   6.968  17.444  0.00  0.00    +0.000 A 
ATOM      3  C   UNL     1       3.310   8.055  17.430  0.00  0.00    +0.000 A 
ATOM      4  C   UNL     1       2.333   8.201  18.421  0.00  0.00    +0.000 A 
ATOM      5  C   UNL     1       2.325   7.287  19.485  0.00  0.00    +0.000 A 
ATOM      6  C   UNL     1       3.250   6.236  19.547  0.00  0.00    +0.000 A 
ENDROOT
BRANCH   4   7
ATOM      7  C   UNL     1       1.321   9.232  18.320  0.00  0.00    +0.000 A 
ATOM      8  C   UNL     1       0.146   9.105  17.610  0.00  0.00    +0.000 A 
ATOM      9  N   UNL     1      -0.505  10.302  17.764  0.00  0.00    +0.000 N 
ATOM     10  C   UNL     1       0.305  11.124  18.516  0.00  0.00    +0.000 A 
ATOM     11  N   UNL     1       1.413  10.486  18.869  0.00  0.00    +0.000 NA
ATOM     12  H   UNL     1      -1.403  10.551  17.402  0.00  0.00    +0.000 HD
BRANCH  10  13
ATOM     13  C   UNL     1      -0.087  12.540  18.880  0.00  0.00    +0.000 C 
ATOM     14  C   UNL     1       1.180  13.386  19.102  0.00  0.00    +0.000 C 
BRANCH  13  15
ATOM     15  N   UNL     1      -0.899  13.145  17.795  0.00  0.00    +0.000 NA
ATOM     16  H   UNL     1      -0.523  14.065  17.560  0.00  0.00    +0.000 HD
ATOM     17  H   UNL     1      -1.833  13.327  18.165  0.00  0.00    +0.000 HD
ENDBRANCH  13  15
BRANCH  13  18
ATOM     18  C   UNL     1      -0.928  12.519  20.190  0.00  0.00    +0.000 C 
BRANCH  18  19
ATOM     19  O   UNL     1      -1.081  11.214  20.750  0.00  0.00    +0.000 OA
ATOM     20  H   UNL     1      -0.915  11.309  21.713  0.00  0.00    +0.000 HD
ENDBRANCH  18  19
ENDBRANCH  13  18
ENDBRANCH  10  13
ENDBRANCH   4   7
BRANCH   1  21
ATOM     21  O   UNL     1       5.150   5.105  18.616  0.00  0.00    +0.000 OA
BRANCH  21  22
ATOM     22  C   UNL     1       4.577   3.779  18.693  0.00  0.00    +0.000 C 
BRANCH  22  23
ATOM     23  C   UNL     1       4.121   3.350  17.311  0.00  0.00    +0.000 C 
BRANCH  23  24
ATOM     24  C   UNL     1       2.601   3.249  17.250  0.00  0.00    +0.000 C 
BRANCH  24  25
ATOM     25  C   UNL     1       2.118   2.020  18.005  0.00  0.00    +0.000 C 
BRANCH  25  26
ATOM     26  C   UNL     1       0.828   2.329  18.751  0.00  0.00    +0.000 C 
BRANCH  26  27
ATOM     27  C   UNL     1       1.049   3.467  19.735  0.00  0.00    +0.000 C 
BRANCH  27  29
ATOM     28  C   UNL     1       2.563   2.830  21.610  0.00  0.00    +0.000 C 
ATOM     29  C   UNL     1       1.120   2.935  21.159  0.00  0.00    +0.000 C 
ENDBRANCH  27  29
ENDBRANCH  26  27
ENDBRANCH  25  26
ENDBRANCH  24  25
ENDBRANCH  23  24
ENDBRANCH  22  23
ENDBRANCH  21  22
ENDBRANCH   1  21
TORSDOF 13
ENDMDL
MODEL 7
REMARK VINA RESULT:      -6.2      1.116      1.666
REMARK  Name = 
REMARK  15 active torsions:
REMARK  status: ('A' for Active; 'I' for Inactive)
REMARK    1  A    between atoms: C_1  and  C_2
REMARK    2  A    between atoms: C_2  and  C_3
REMARK    3  A    between atoms: C_3  and  C_4
REMARK    4  A    between atoms: C_4  and  C_5
REMARK    5  A    between atoms: C_5  and  C_6
REMARK    6  A    between atoms: C_6  and  C_7
REMARK    7  A    between atoms: C_7  and  C_8
REMARK    8  A    between atoms: C_8  and  O_9
REMARK    9  A    between atoms: O_9  and  C_10
REMARK   10  A    between atoms: C_13  and  C_14
REMARK   11  A    between atoms: C_17  and  C_18
REMARK   12  A    between atoms: C_18  and  C_19
REMARK   13  A    between atoms: C_18  and  N_20
REMARK   14  A    between atoms: C_18  and  C_21
REMARK   15  A    between atoms: C_21  and  O_22
REMARK                            x       y       z     vdW  Elec       q    Type
REMARK                         _______ _______ _______ _____ _____    ______ ____
ROOT
ATOM      1  C   UNL     1       3.317   6.586  18.377  0.00  0.00    +0.000 A 
ATOM      2  C   UNL     1       3.043   7.668  17.547  0.00  0.00    +0.000 A 
ATOM      3  C   UNL     1       2.282   8.735  18.015  0.00  0.00    +0.000 A 
ATOM      4  C   UNL     1       1.658   8.672  19.266  0.00  0.00    +0.000 A 
ATOM      5  C   UNL     1       1.911   7.556  20.078  0.00  0.00    +0.000 A 
ATOM      6  C   UNL     1       2.741   6.515  19.645  0.00  0.00    +0.000 A 
ENDROOT
BRANCH   4   7
ATOM      7  C   UNL     1       0.732   9.702  19.685  0.00  0.00    +0.000 A 
ATOM      8  C   UNL     1       0.280   9.867  20.977  0.00  0.00    +0.000 A 
ATOM      9  N   UNL     1      -0.580  10.934  20.931  0.00  0.00    +0.000 N 
ATOM     10  C   UNL     1      -0.657  11.351  19.621  0.00  0.00    +0.000 A 
ATOM     11  N   UNL     1       0.141  10.620  18.853  0.00  0.00    +0.000 NA
ATOM     12  H   UNL     1      -1.071  11.346  21.698  0.00  0.00    +0.000 HD
BRANCH  10  13
ATOM     13  C   UNL     1      -1.526  12.511  19.186  0.00  0.00    +0.000 C 
ATOM     14  C   UNL     1      -0.810  13.839  19.492  0.00  0.00    +0.000 C 
BRANCH  13  15
ATOM     15  N   UNL     1      -1.806  12.428  17.730  0.00  0.00    +0.000 NA
ATOM     16  H   UNL     1      -1.287  13.158  17.241  0.00  0.00    +0.000 HD
ATOM     17  H   UNL     1      -2.790  12.658  17.585  0.00  0.00    +0.000 HD
ENDBRANCH  13  15
BRANCH  13  18
ATOM     18  C   UNL     1      -2.874  12.462  19.963  0.00  0.00    +0.000 C 
BRANCH  18  19
ATOM     19  O   UNL     1      -2.770  12.907  21.316  0.00  0.00    +0.000 OA
ATOM     20  H   UNL     1      -3.307  13.727  21.376  0.00  0.00    +0.000 HD
ENDBRANCH  18  19
ENDBRANCH  13  18
ENDBRANCH  10  13
ENDBRANCH   4   7
BRANCH   1  21
ATOM     21  O   UNL     1       4.198   5.601  17.972  0.00  0.00    +0.000 OA
BRANCH  21  22
ATOM     22  C   UNL     1       4.795   4.900  19.087  0.00  0.00    +0.000 C 
BRANCH  22  23
ATOM     23  C   UNL     1       4.647   3.405  18.876  0.00  0.00    +0.000 C 
BRANCH  23  24
ATOM     24  C   UNL     1       3.899   3.112  17.581  0.00  0.00    +0.000 C 
BRANCH  24  25
ATOM     25  C   UNL     1       2.900   1.983  17.786  0.00  0.00    +0.000 C 
BRANCH  25  26
ATOM     26  C   UNL     1       2.286   2.065  19.176  0.00  0.00    +0.000 C 
BRANCH  26  27
ATOM     27  C   UNL     1       1.203   3.132  19.211  0.00  0.00    +0.000 C 
BRANCH  27  29
ATOM     28  C   UNL     1       2.127   3.285  21.522  0.00  0.00    +0.000 C 
ATOM     29  C   UNL     1       0.924   3.562  20.645  0.00  0.00    +0.000 C 
ENDBRANCH  27  29
ENDBRANCH  26  27
ENDBRANCH  25  26
ENDBRANCH  24  25
ENDBRANCH  23  24
ENDBRANCH  22  23
ENDBRANCH  21  22
ENDBRANCH   1  21
TORSDOF 13
ENDMDL
MODEL 8
REMARK VINA RESULT:      -6.1      1.777      2.515
REMARK  Name = 
REMARK  15 active torsions:
REMARK  status: ('A' for Active; 'I' for Inactive)
REMARK    1  A    between atoms: C_1  and  C_2
REMARK    2  A    between atoms: C_2  and  C_3
REMARK    3  A    between atoms: C_3  and  C_4
REMARK    4  A    between atoms: C_4  and  C_5
REMARK    5  A    between atoms: C_5  and  C_6
REMARK    6  A    between atoms: C_6  and  C_7
REMARK    7  A    between atoms: C_7  and  C_8
REMARK    8  A    between atoms: C_8  and  O_9
REMARK    9  A    between atoms: O_9  and  C_10
REMARK   10  A    between atoms: C_13  and  C_14
REMARK   11  A    between atoms: C_17  and  C_18
REMARK   12  A    between atoms: C_18  and  C_19
REMARK   13  A    between atoms: C_18  and  N_20
REMARK   14  A    between atoms: C_18  and  C_21
REMARK   15  A    between atoms: C_21  and  O_22
REMARK                            x       y       z     vdW  Elec       q    Type
REMARK                         _______ _______ _______ _____ _____    ______ ____
ROOT
ATOM      1  C   UNL     1       3.016   6.913  18.385  0.00  0.00    +0.000 A 
ATOM      2  C   UNL     1       2.466   6.936  19.663  0.00  0.00    +0.000 A 
ATOM      3  C   UNL     1       1.636   7.984  20.050  0.00  0.00    +0.000 A 
ATOM      4  C   UNL     1       1.462   9.099  19.223  0.00  0.00    +0.000 A 
ATOM      5  C   UNL     1       2.055   9.082  17.952  0.00  0.00    +0.000 A 
ATOM      6  C   UNL     1       2.826   7.994  17.525  0.00  0.00    +0.000 A 
ENDROOT
BRANCH   4   7
ATOM      7  C   UNL     1       0.737  10.262  19.690  0.00  0.00    +0.000 A 
ATOM      8  C   UNL     1       0.591  11.430  18.973  0.00  0.00    +0.000 A 
ATOM      9  N   UNL     1      -0.141  12.265  19.778  0.00  0.00    +0.000 N 
ATOM     10  C   UNL     1      -0.375  11.602  20.962  0.00  0.00    +0.000 A 
ATOM     11  N   UNL     1       0.143  10.381  20.922  0.00  0.00    +0.000 NA
ATOM     12  H   UNL     1      -0.454  13.189  19.563  0.00  0.00    +0.000 HD
BRANCH  10  13
ATOM     13  C   UNL     1      -1.150  12.224  22.104  0.00  0.00    +0.000 C 
ATOM     14  C   UNL     1      -2.614  12.440  21.678  0.00  0.00    +0.000 C 
BRANCH  13  15
ATOM     15  N   UNL     1      -1.111  11.340  23.296  0.00  0.00    +0.000 NA
ATOM     16  H   UNL     1      -1.835  10.626  23.215  0.00  0.00    +0.000 HD
ATOM     17  H   UNL     1      -1.377  11.897  24.110  0.00  0.00    +0.000 HD
ENDBRANCH  13  15
BRANCH  13  18
ATOM     18  C   UNL     1      -0.513  13.596  22.470  0.00  0.00    +0.000 C 
BRANCH  18  19
ATOM     19  O   UNL     1      -0.821  14.636  21.540  0.00  0.00    +0.000 OA
ATOM     20  H   UNL     1      -0.574  14.292  20.655  0.00  0.00    +0.000 HD
ENDBRANCH  18  19
ENDBRANCH  13  18
ENDBRANCH  10  13
ENDBRANCH   4   7
BRANCH   1  21
ATOM     21  O   UNL     1       3.711   5.804  17.944  0.00  0.00    +0.000 OA
BRANCH  21  22
ATOM     22  C   UNL     1       4.609   5.278  18.948  0.00  0.00    +0.000 C 
BRANCH  22  23
ATOM     23  C   UNL     1       4.496   3.766  18.980  0.00  0.00    +0.000 C 
BRANCH  23  24
ATOM     24  C   UNL     1       3.911   3.239  17.675  0.00  0.00    +0.000 C 
BRANCH  24  25
ATOM     25  C   UNL     1       2.688   2.376  17.948  0.00  0.00    +0.000 C 
BRANCH  25  26
ATOM     26  C   UNL     1       1.465   3.250  18.183  0.00  0.00    +0.000 C 
BRANCH  26  27
ATOM     27  C   UNL     1       0.752   2.826  19.458  0.00  0.00    +0.000 C 
BRANCH  27  29
ATOM     28  C   UNL     1       2.002   2.973  21.610  0.00  0.00    +0.000 C 
ATOM     29  C   UNL     1       1.147   3.732  20.616  0.00  0.00    +0.000 C 
ENDBRANCH  27  29
ENDBRANCH  26  27
ENDBRANCH  25  26
ENDBRANCH  24  25
ENDBRANCH  23  24
ENDBRANCH  22  23
ENDBRANCH  21  22
ENDBRANCH   1  21
TORSDOF 13
ENDMDL
MODEL 9
REMARK VINA RESULT:      -6.1      1.071      1.640
REMARK  Name = 
REMARK  15 active torsions:
REMARK  status: ('A' for Active; 'I' for Inactive)
REMARK    1  A    between atoms: C_1  and  C_2
REMARK    2  A    between atoms: C_2  and  C_3
REMARK    3  A    between atoms: C_3  and  C_4
REMARK    4  A    between atoms: C_4  and  C_5
REMARK    5  A    between atoms: C_5  and  C_6
REMARK    6  A    between atoms: C_6  and  C_7
REMARK    7  A    between atoms: C_7  and  C_8
REMARK    8  A    between atoms: C_8  and  O_9
REMARK    9  A    between atoms: O_9  and  C_10
REMARK   10  A    between atoms: C_13  and  C_14
REMARK   11  A    between atoms: C_17  and  C_18
REMARK   12  A    between atoms: C_18  and  C_19
REMARK   13  A    between atoms: C_18  and  N_20
REMARK   14  A    between atoms: C_18  and  C_21
REMARK   15  A    between atoms: C_21  and  O_22
REMARK                            x       y       z     vdW  Elec       q    Type
REMARK                         _______ _______ _______ _____ _____    ______ ____
ROOT
ATOM      1  C   UNL     1       3.695   6.287  18.531  0.00  0.00    +0.000 A 
ATOM      2  C   UNL     1       3.580   7.330  17.618  0.00  0.00    +0.000 A 
ATOM      3  C   UNL     1       2.746   8.410  17.889  0.00  0.00    +0.000 A 
ATOM      4  C   UNL     1       1.900   8.396  19.005  0.00  0.00    +0.000 A 
ATOM      5  C   UNL     1       1.998   7.319  19.898  0.00  0.00    +0.000 A 
ATOM      6  C   UNL     1       2.894   6.267  19.672  0.00  0.00    +0.000 A 
ENDROOT
BRANCH   4   7
ATOM      7  C   UNL     1       0.913   9.437  19.199  0.00  0.00    +0.000 A 
ATOM      8  C   UNL     1       0.545   9.945  20.427  0.00  0.00    +0.000 A 
ATOM      9  N   UNL     1      -0.414  10.887  20.161  0.00  0.00    +0.000 N 
ATOM     10  C   UNL     1      -0.628  10.892  18.800  0.00  0.00    +0.000 A 
ATOM     11  N   UNL     1       0.177  10.024  18.201  0.00  0.00    +0.000 NA
ATOM     12  H   UNL     1      -0.885  11.472  20.821  0.00  0.00    +0.000 HD
BRANCH  10  13
ATOM     13  C   UNL     1      -1.636  11.807  18.138  0.00  0.00    +0.000 C 
ATOM     14  C   UNL     1      -2.712  12.218  19.160  0.00  0.00    +0.000 C 
BRANCH  13  15
ATOM     15  N   UNL     1      -0.962  13.023  17.617  0.00  0.00    +0.000 NA
ATOM     16  H   UNL     1      -1.384  13.292  16.728  0.00  0.00    +0.000 HD
ATOM     17  H   UNL     1       0.003  12.776  17.390  0.00  0.00    +0.000 HD
ENDBRANCH  13  15
BRANCH  13  18
ATOM     18  C   UNL     1      -2.311  11.056  16.954  0.00  0.00    +0.000 C 
BRANCH  18  19
ATOM     19  O   UNL     1      -3.737  11.041  17.025  0.00  0.00    +0.000 OA
ATOM     20  H   UNL     1      -4.011  11.964  17.217  0.00  0.00    +0.000 HD
ENDBRANCH  18  19
ENDBRANCH  13  18
ENDBRANCH  10  13
ENDBRANCH   4   7
BRANCH   1  21
ATOM     21  O   UNL     1       4.635   5.292  18.340  0.00  0.00    +0.000 OA
BRANCH  21  22
ATOM     22  C   UNL     1       4.897   5.040  16.941  0.00  0.00    +0.000 C 
BRANCH  22  23
ATOM     23  C   UNL     1       4.544   3.601  16.616  0.00  0.00    +0.000 C 
BRANCH  23  24
ATOM     24  C   UNL     1       3.602   3.024  17.667  0.00  0.00    +0.000 C 
BRANCH  24  25
ATOM     25  C   UNL     1       2.153   3.302  17.294  0.00  0.00    +0.000 C 
BRANCH  25  26
ATOM     26  C   UNL     1       1.218   2.771  18.370  0.00  0.00    +0.000 C 
BRANCH  26  27
ATOM     27  C   UNL     1       2.012   2.344  19.595  0.00  0.00    +0.000 C 
BRANCH  27  29
ATOM     28  C   UNL     1       2.306   3.326  21.868  0.00  0.00    +0.000 C 
ATOM     29  C   UNL     1       1.305   2.782  20.870  0.00  0.00    +0.000 C 
ENDBRANCH  27  29
ENDBRANCH  26  27
ENDBRANCH  25  26
ENDBRANCH  24  25
ENDBRANCH  23  24
ENDBRANCH  22  23
ENDBRANCH  21  22
ENDBRANCH   1  21
TORSDOF 13
ENDMDL
