MODEL 1
REMARK VINA RESULT:      -9.0      0.000      0.000
REMARK  Name = 
REMARK  5 active torsions:
REMARK  status: ('A' for Active; 'I' for Inactive)
REMARK    1  A    between atoms: N_3  and  C_4
REMARK    2  A    between atoms: C_4  and  C_5
REMARK    3  A    between atoms: C_8  and  S_9
REMARK    4  A    between atoms: S_9  and  C_12
REMARK    5  A    between atoms: N_15  and  C_16
REMARK                            x       y       z     vdW  Elec       q    Type
REMARK                         _______ _______ _______ _____ _____    ______ ____
ROOT
ATOM      1  C   UNL     1       2.408   7.532  18.507  0.00  0.00    +0.000 A 
ATOM      2  C   UNL     1       2.263   7.286  19.874  0.00  0.00    +0.000 A 
ATOM      3  C   UNL     1       1.892   6.021  20.312  0.00  0.00    +0.000 A 
ATOM      4  C   UNL     1       1.696   5.006  19.383  0.00  0.00    +0.000 A 
ATOM      5  C   UNL     1       1.993   5.271  18.056  0.00  0.00    +0.000 A 
ATOM      6  N   UNL     1       2.305   6.518  17.598  0.00  0.00    +0.000 NA
ENDROOT
BRANCH   4   7
ATOM      7  S   UNL     1       1.325   3.352  19.934  0.00  0.00    +0.000 S 
ATOM      8  O   UNL     1       1.135   3.463  21.370  0.00  0.00    +0.000 OA
ATOM      9  O   UNL     1       0.215   2.909  19.111  0.00  0.00    +0.000 OA
BRANCH   7  10
ATOM     10  C   UNL     1       2.657   2.198  19.678  0.00  0.00    +0.000 C 
ATOM     11  C   UNL     1       3.984   2.537  20.329  0.00  0.00    +0.000 C 
ATOM     12  C   UNL     1       4.775   3.541  19.509  0.00  0.00    +0.000 C 
ATOM     13  N   UNL     1       4.980   3.167  18.108  0.00  0.00    +0.000 NA
ATOM     14  C   UNL     1       3.846   2.538  17.421  0.00  0.00    +0.000 C 
ATOM     15  C   UNL     1       2.891   1.690  18.262  0.00  0.00    +0.000 C 
BRANCH  13  16
ATOM     16  C   UNL     1       5.625   4.272  17.326  0.00  0.00    +0.000 C 
ATOM     17  C   UNL     1       5.651   5.617  18.076  0.00  0.00    +0.000 C 
ATOM     18  C   UNL     1       6.157   6.769  17.228  0.00  0.00    +0.000 C 
ATOM     19  O   UNL     1       5.431   6.853  16.012  0.00  0.00    +0.000 OA
ATOM     20  C   UNL     1       5.624   5.685  15.218  0.00  0.00    +0.000 C 
ATOM     21  C   UNL     1       5.031   4.464  15.914  0.00  0.00    +0.000 C 
ENDBRANCH  13  16
ENDBRANCH   7  10
ENDBRANCH   4   7
BRANCH   1  22
ATOM     22  C   UNL     1       2.506   8.961  18.020  0.00  0.00    +0.000 C 
BRANCH  22  25
ATOM     23  O   UNL     1       1.351  10.978  19.655  0.00  0.00    +0.000 OA
ATOM     24  C   UNL     1       0.716  10.530  18.704  0.00  0.00    +0.000 C 
ATOM     25  N   UNL     1       1.249   9.638  17.808  0.00  0.00    +0.000 N 
ATOM     26  N   UNL     1      -0.611  10.836  18.489  0.00  0.00    +0.000 N 
ATOM     27  C   UNL     1      -1.508  10.095  17.601  0.00  0.00    +0.000 C 
ATOM     28  C   UNL     1      -2.865  10.561  18.005  0.00  0.00    +0.000 A 
ATOM     29  C   UNL     1      -4.103  10.096  17.610  0.00  0.00    +0.000 A 
ATOM     30  C   UNL     1      -5.201  10.783  18.102  0.00  0.00    +0.000 A 
ATOM     31  N   UNL     1      -5.125  11.884  18.895  0.00  0.00    +0.000 NA
ATOM     32  C   UNL     1      -3.892  12.285  19.291  0.00  0.00    +0.000 A 
ATOM     33  C   UNL     1      -2.754  11.618  18.904  0.00  0.00    +0.000 A 
ATOM     34  C   UNL     1      -1.339  11.764  19.355  0.00  0.00    +0.000 C 
ATOM     35  H   UNL     1       0.854   9.594  16.887  0.00  0.00    +0.000 HD
ENDBRANCH  22  25
ENDBRANCH   1  22
TORSDOF 5
ENDMDL
MODEL 2
REMARK VINA RESULT:      -8.8      0.884      1.361
REMARK  Name = 
REMARK  5 active torsions:
REMARK  status: ('A' for Active; 'I' for Inactive)
REMARK    1  A    between atoms: N_3  and  C_4
REMARK    2  A    between atoms: C_4  and  C_5
REMARK    3  A    between atoms: C_8  and  S_9
REMARK    4  A    between atoms: S_9  and  C_12
REMARK    5  A    between atoms: N_15  and  C_16
REMARK                            x       y       z     vdW  Elec       q    Type
REMARK                         _______ _______ _______ _____ _____    ______ ____
ROOT
ATOM      1  C   UNL     1       1.972   7.522  18.778  0.00  0.00    +0.000 A 
ATOM      2  C   UNL     1       1.945   6.411  17.932  0.00  0.00    +0.000 A 
ATOM      3  C   UNL     1       1.969   5.132  18.472  0.00  0.00    +0.000 A 
ATOM      4  C   UNL     1       1.990   4.972  19.852  0.00  0.00    +0.000 A 
ATOM      5  C   UNL     1       1.870   6.104  20.640  0.00  0.00    +0.000 A 
ATOM      6  N   UNL     1       1.901   7.372  20.133  0.00  0.00    +0.000 NA
ENDROOT
BRANCH   4   7
ATOM      7  S   UNL     1       1.912   3.340  20.562  0.00  0.00    +0.000 S 
ATOM      8  O   UNL     1       2.222   3.520  21.969  0.00  0.00    +0.000 OA
ATOM      9  O   UNL     1       0.609   2.818  20.191  0.00  0.00    +0.000 OA
BRANCH   7  10
ATOM     10  C   UNL     1       3.127   2.216  19.906  0.00  0.00    +0.000 C 
ATOM     11  C   UNL     1       4.579   2.538  20.204  0.00  0.00    +0.000 C 
ATOM     12  C   UNL     1       5.130   3.591  19.258  0.00  0.00    +0.000 C 
ATOM     13  N   UNL     1       4.959   3.291  17.835  0.00  0.00    +0.000 NA
ATOM     14  C   UNL     1       3.685   2.684  17.437  0.00  0.00    +0.000 C 
ATOM     15  C   UNL     1       2.981   1.783  18.453  0.00  0.00    +0.000 C 
BRANCH  13  16
ATOM     16  C   UNL     1       5.379   4.442  16.970  0.00  0.00    +0.000 C 
ATOM     17  C   UNL     1       6.292   4.028  15.800  0.00  0.00    +0.000 C 
ATOM     18  C   UNL     1       6.845   5.206  15.021  0.00  0.00    +0.000 C 
ATOM     19  O   UNL     1       7.483   6.127  15.891  0.00  0.00    +0.000 OA
ATOM     20  C   UNL     1       6.554   6.687  16.816  0.00  0.00    +0.000 C 
ATOM     21  C   UNL     1       6.019   5.608  17.754  0.00  0.00    +0.000 C 
ENDBRANCH  13  16
ENDBRANCH   7  10
ENDBRANCH   4   7
BRANCH   1  22
ATOM     22  C   UNL     1       2.255   8.889  18.195  0.00  0.00    +0.000 C 
BRANCH  22  25
ATOM     23  O   UNL     1       0.954  10.565  20.087  0.00  0.00    +0.000 OA
ATOM     24  C   UNL     1       0.472  10.425  18.966  0.00  0.00    +0.000 C 
ATOM     25  N   UNL     1       1.099   9.724  17.967  0.00  0.00    +0.000 N 
ATOM     26  N   UNL     1      -0.774  10.910  18.630  0.00  0.00    +0.000 N 
ATOM     27  C   UNL     1      -1.544  10.500  17.454  0.00  0.00    +0.000 C 
ATOM     28  C   UNL     1      -2.920  10.994  17.745  0.00  0.00    +0.000 A 
ATOM     29  C   UNL     1      -4.094  10.768  17.056  0.00  0.00    +0.000 A 
ATOM     30  C   UNL     1      -5.218  11.428  17.528  0.00  0.00    +0.000 A 
ATOM     31  N   UNL     1      -5.216  12.293  18.577  0.00  0.00    +0.000 NA
ATOM     32  C   UNL     1      -4.050  12.457  19.249  0.00  0.00    +0.000 A 
ATOM     33  C   UNL     1      -2.905  11.788  18.889  0.00  0.00    +0.000 A 
ATOM     34  C   UNL     1      -1.586  11.674  19.578  0.00  0.00    +0.000 C 
ATOM     35  H   UNL     1       0.872   9.943  17.016  0.00  0.00    +0.000 HD
ENDBRANCH  22  25
ENDBRANCH   1  22
TORSDOF 5
ENDMDL
MODEL 3
REMARK VINA RESULT:      -8.5      1.402      1.815
REMARK  Name = 
REMARK  5 active torsions:
REMARK  status: ('A' for Active; 'I' for Inactive)
REMARK    1  A    between atoms: N_3  and  C_4
REMARK    2  A    between atoms: C_4  and  C_5
REMARK    3  A    between atoms: C_8  and  S_9
REMARK    4  A    between atoms: S_9  and  C_12
REMARK    5  A    between atoms: N_15  and  C_16
REMARK                            x       y       z     vdW  Elec       q    Type
REMARK                         _______ _______ _______ _____ _____    ______ ____
ROOT
ATOM      1  C   UNL     1       2.005   7.216  20.102  0.00  0.00    +0.000 A 
ATOM      2  C   UNL     1       1.693   6.292  21.103  0.00  0.00    +0.000 A 
ATOM      3  C   UNL     1       1.538   4.950  20.778  0.00  0.00    +0.000 A 
ATOM      4  C   UNL     1       1.724   4.539  19.463  0.00  0.00    +0.000 A 
ATOM      5  C   UNL     1       2.172   5.474  18.546  0.00  0.00    +0.000 A 
ATOM      6  N   UNL     1       2.277   6.805  18.830  0.00  0.00    +0.000 NA
ENDROOT
BRANCH   4   7
ATOM      7  S   UNL     1       1.635   2.808  19.051  0.00  0.00    +0.000 S 
ATOM      8  O   UNL     1       1.183   2.149  20.264  0.00  0.00    +0.000 OA
ATOM      9  O   UNL     1       0.806   2.735  17.862  0.00  0.00    +0.000 OA
BRANCH   7  10
ATOM     10  C   UNL     1       3.210   2.091  18.632  0.00  0.00    +0.000 C 
ATOM     11  C   UNL     1       4.305   2.201  19.676  0.00  0.00    +0.000 C 
ATOM     12  C   UNL     1       4.982   3.560  19.643  0.00  0.00    +0.000 C 
ATOM     13  N   UNL     1       5.491   3.964  18.331  0.00  0.00    +0.000 NA
ATOM     14  C   UNL     1       4.652   3.644  17.171  0.00  0.00    +0.000 C 
ATOM     15  C   UNL     1       3.780   2.390  17.252  0.00  0.00    +0.000 C 
BRANCH  13  16
ATOM     16  C   UNL     1       5.999   5.375  18.342  0.00  0.00    +0.000 C 
ATOM     17  C   UNL     1       5.579   6.186  17.101  0.00  0.00    +0.000 C 
ATOM     18  C   UNL     1       6.221   7.558  17.033  0.00  0.00    +0.000 C 
ATOM     19  O   UNL     1       7.631   7.458  17.149  0.00  0.00    +0.000 OA
ATOM     20  C   UNL     1       8.006   6.927  18.418  0.00  0.00    +0.000 C 
ATOM     21  C   UNL     1       7.524   5.486  18.556  0.00  0.00    +0.000 C 
ENDBRANCH  13  16
ENDBRANCH   7  10
ENDBRANCH   4   7
BRANCH   1  22
ATOM     22  C   UNL     1       1.870   8.695  20.395  0.00  0.00    +0.000 C 
BRANCH  22  25
ATOM     23  O   UNL     1      -0.385  10.268  21.113  0.00  0.00    +0.000 OA
ATOM     24  C   UNL     1      -0.125  10.085  19.927  0.00  0.00    +0.000 C 
ATOM     25  N   UNL     1       1.005   9.432  19.505  0.00  0.00    +0.000 N 
ATOM     26  N   UNL     1      -0.979  10.465  18.913  0.00  0.00    +0.000 N 
ATOM     27  C   UNL     1      -0.905   9.989  17.532  0.00  0.00    +0.000 C 
ATOM     28  C   UNL     1      -2.226  10.371  16.957  0.00  0.00    +0.000 A 
ATOM     29  C   UNL     1      -2.773  10.048  15.731  0.00  0.00    +0.000 A 
ATOM     30  C   UNL     1      -4.003  10.617  15.441  0.00  0.00    +0.000 A 
ATOM     31  N   UNL     1      -4.660  11.484  16.256  0.00  0.00    +0.000 NA
ATOM     32  C   UNL     1      -4.106  11.745  17.466  0.00  0.00    +0.000 A 
ATOM     33  C   UNL     1      -2.922  11.169  17.861  0.00  0.00    +0.000 A 
ATOM     34  C   UNL     1      -2.236  11.166  19.186  0.00  0.00    +0.000 C 
ATOM     35  H   UNL     1       1.353   9.628  18.585  0.00  0.00    +0.000 HD
ENDBRANCH  22  25
ENDBRANCH   1  22
TORSDOF 5
ENDMDL
MODEL 4
REMARK VINA RESULT:      -8.4      2.256      2.726
REMARK  Name = 
REMARK  5 active torsions:
REMARK  status: ('A' for Active; 'I' for Inactive)
REMARK    1  A    between atoms: N_3  and  C_4
REMARK    2  A    between atoms: C_4  and  C_5
REMARK    3  A    between atoms: C_8  and  S_9
REMARK    4  A    between atoms: S_9  and  C_12
REMARK    5  A    between atoms: N_15  and  C_16
REMARK                            x       y       z     vdW  Elec       q    Type
REMARK                         _______ _______ _______ _____ _____    ______ ____
ROOT
ATOM      1  C   UNL     1       2.259   7.495  18.636  0.00  0.00    +0.000 A 
ATOM      2  C   UNL     1       2.145   7.252  20.007  0.00  0.00    +0.000 A 
ATOM      3  C   UNL     1       1.872   5.967  20.459  0.00  0.00    +0.000 A 
ATOM      4  C   UNL     1       1.743   4.932  19.540  0.00  0.00    +0.000 A 
ATOM      5  C   UNL     1       2.009   5.205  18.209  0.00  0.00    +0.000 A 
ATOM      6  N   UNL     1       2.225   6.468  17.737  0.00  0.00    +0.000 NA
ENDROOT
BRANCH   4   7
ATOM      7  S   UNL     1       1.500   3.261  20.110  0.00  0.00    +0.000 S 
ATOM      8  O   UNL     1       1.398   3.362  21.555  0.00  0.00    +0.000 OA
ATOM      9  O   UNL     1       0.364   2.757  19.360  0.00  0.00    +0.000 OA
BRANCH   7  10
ATOM     10  C   UNL     1       2.872   2.181  19.764  0.00  0.00    +0.000 C 
ATOM     11  C   UNL     1       4.228   2.618  20.286  0.00  0.00    +0.000 C 
ATOM     12  C   UNL     1       4.881   3.642  19.374  0.00  0.00    +0.000 C 
ATOM     13  N   UNL     1       4.985   3.240  17.970  0.00  0.00    +0.000 NA
ATOM     14  C   UNL     1       3.837   2.525  17.403  0.00  0.00    +0.000 C 
ATOM     15  C   UNL     1       3.013   1.646  18.345  0.00  0.00    +0.000 C 
BRANCH  13  16
ATOM     16  C   UNL     1       5.490   4.358  17.108  0.00  0.00    +0.000 C 
ATOM     17  C   UNL     1       5.866   3.909  15.682  0.00  0.00    +0.000 C 
ATOM     18  C   UNL     1       6.524   5.002  14.861  0.00  0.00    +0.000 C 
ATOM     19  O   UNL     1       7.633   5.551  15.555  0.00  0.00    +0.000 OA
ATOM     20  C   UNL     1       7.220   6.182  16.764  0.00  0.00    +0.000 C 
ATOM     21  C   UNL     1       6.654   5.153  17.737  0.00  0.00    +0.000 C 
ENDBRANCH  13  16
ENDBRANCH   7  10
ENDBRANCH   4   7
BRANCH   1  22
ATOM     22  C   UNL     1       2.249   8.924  18.136  0.00  0.00    +0.000 C 
BRANCH  22  25
ATOM     23  O   UNL     1       2.275  11.766  18.139  0.00  0.00    +0.000 OA
ATOM     24  C   UNL     1       1.439  11.165  18.809  0.00  0.00    +0.000 C 
ATOM     25  N   UNL     1       1.294   9.801  18.770  0.00  0.00    +0.000 N 
ATOM     26  N   UNL     1       0.611  11.804  19.707  0.00  0.00    +0.000 N 
ATOM     27  C   UNL     1      -0.153  11.138  20.762  0.00  0.00    +0.000 C 
ATOM     28  C   UNL     1      -0.555  12.256  21.664  0.00  0.00    +0.000 A 
ATOM     29  C   UNL     1      -1.168  12.205  22.899  0.00  0.00    +0.000 A 
ATOM     30  C   UNL     1      -1.490  13.426  23.473  0.00  0.00    +0.000 A 
ATOM     31  N   UNL     1      -1.279  14.631  22.882  0.00  0.00    +0.000 NA
ATOM     32  C   UNL     1      -0.640  14.638  21.686  0.00  0.00    +0.000 A 
ATOM     33  C   UNL     1      -0.225  13.476  21.080  0.00  0.00    +0.000 A 
ATOM     34  C   UNL     1       0.638  13.257  19.882  0.00  0.00    +0.000 C 
ATOM     35  H   UNL     1       0.406   9.409  19.021  0.00  0.00    +0.000 HD
ENDBRANCH  22  25
ENDBRANCH   1  22
TORSDOF 5
ENDMDL
MODEL 5
REMARK VINA RESULT:      -8.4      2.038      2.289
REMARK  Name = 
REMARK  5 active torsions:
REMARK  status: ('A' for Active; 'I' for Inactive)
REMARK    1  A    between atoms: N_3  and  C_4
REMARK    2  A    between atoms: C_4  and  C_5
REMARK    3  A    between atoms: C_8  and  S_9
REMARK    4  A    between atoms: S_9  and  C_12
REMARK    5  A    between atoms: N_15  and  C_16
REMARK                            x       y       z     vdW  Elec       q    Type
REMARK                         _______ _______ _______ _____ _____    ______ ____
ROOT
ATOM      1  C   UNL     1       2.275   7.431  18.671  0.00  0.00    +0.000 A 
ATOM      2  C   UNL     1       2.192   7.099  20.025  0.00  0.00    +0.000 A 
ATOM      3  C   UNL     1       1.907   5.792  20.398  0.00  0.00    +0.000 A 
ATOM      4  C   UNL     1       1.735   4.822  19.417  0.00  0.00    +0.000 A 
ATOM      5  C   UNL     1       1.972   5.179  18.101  0.00  0.00    +0.000 A 
ATOM      6  N   UNL     1       2.199   6.467  17.707  0.00  0.00    +0.000 NA
ENDROOT
BRANCH   4   7
ATOM      7  S   UNL     1       1.476   3.121  19.881  0.00  0.00    +0.000 S 
ATOM      8  O   UNL     1       1.199   3.153  21.306  0.00  0.00    +0.000 OA
ATOM      9  O   UNL     1       0.455   2.625  18.978  0.00  0.00    +0.000 OA
BRANCH   7  10
ATOM     10  C   UNL     1       2.912   2.093  19.658  0.00  0.00    +0.000 C 
ATOM     11  C   UNL     1       4.195   2.567  20.315  0.00  0.00    +0.000 C 
ATOM     12  C   UNL     1       4.897   3.625  19.482  0.00  0.00    +0.000 C 
ATOM     13  N   UNL     1       5.151   3.247  18.091  0.00  0.00    +0.000 NA
ATOM     14  C   UNL     1       4.089   2.503  17.406  0.00  0.00    +0.000 C 
ATOM     15  C   UNL     1       3.208   1.584  18.254  0.00  0.00    +0.000 C 
BRANCH  13  16
ATOM     16  C   UNL     1       5.698   4.394  17.294  0.00  0.00    +0.000 C 
ATOM     17  C   UNL     1       5.629   5.742  18.036  0.00  0.00    +0.000 C 
ATOM     18  C   UNL     1       6.033   6.925  17.175  0.00  0.00    +0.000 C 
ATOM     19  O   UNL     1       5.287   6.944  15.969  0.00  0.00    +0.000 OA
ATOM     20  C   UNL     1       5.558   5.790  15.178  0.00  0.00    +0.000 C 
ATOM     21  C   UNL     1       5.072   4.531  15.889  0.00  0.00    +0.000 C 
ENDBRANCH  13  16
ENDBRANCH   7  10
ENDBRANCH   4   7
BRANCH   1  22
ATOM     22  C   UNL     1       2.278   8.890  18.267  0.00  0.00    +0.000 C 
BRANCH  22  25
ATOM     23  O   UNL     1       2.124  11.728  18.303  0.00  0.00    +0.000 OA
ATOM     24  C   UNL     1       1.274  11.065  18.892  0.00  0.00    +0.000 C 
ATOM     25  N   UNL     1       1.220   9.696  18.827  0.00  0.00    +0.000 N 
ATOM     26  N   UNL     1       0.333  11.636  19.724  0.00  0.00    +0.000 N 
ATOM     27  C   UNL     1      -0.473  10.907  20.702  0.00  0.00    +0.000 C 
ATOM     28  C   UNL     1      -1.020  11.982  21.578  0.00  0.00    +0.000 A 
ATOM     29  C   UNL     1      -1.732  11.874  22.756  0.00  0.00    +0.000 A 
ATOM     30  C   UNL     1      -2.178  13.062  23.313  0.00  0.00    +0.000 A 
ATOM     31  N   UNL     1      -1.994  14.288  22.756  0.00  0.00    +0.000 NA
ATOM     32  C   UNL     1      -1.258  14.354  21.619  0.00  0.00    +0.000 A 
ATOM     33  C   UNL     1      -0.720  13.230  21.038  0.00  0.00    +0.000 A 
ATOM     34  C   UNL     1       0.254  13.085  19.917  0.00  0.00    +0.000 C 
ATOM     35  H   UNL     1       0.340   9.245  18.996  0.00  0.00    +0.000 HD
ENDBRANCH  22  25
ENDBRANCH   1  22
TORSDOF 5
ENDMDL
MODEL 6
REMARK VINA RESULT:      -8.1      1.842      2.709
REMARK  Name = 
REMARK  5 active torsions:
REMARK  status: ('A' for Active; 'I' for Inactive)
REMARK    1  A    between atoms: N_3  and  C_4
REMARK    2  A    between atoms: C_4  and  C_5
REMARK    3  A    between atoms: C_8  and  S_9
REMARK    4  A    between atoms: S_9  and  C_12
REMARK    5  A    between atoms: N_15  and  C_16
REMARK                            x       y       z     vdW  Elec       q    Type
REMARK                         _______ _______ _______ _____ _____    ______ ____
ROOT
ATOM      1  C   UNL     1       2.155   7.412  18.789  0.00  0.00    +0.000 A 
ATOM      2  C   UNL     1       2.057   7.085  20.143  0.00  0.00    +0.000 A 
ATOM      3  C   UNL     1       1.818   5.769  20.519  0.00  0.00    +0.000 A 
ATOM      4  C   UNL     1       1.708   4.787  19.541  0.00  0.00    +0.000 A 
ATOM      5  C   UNL     1       1.958   5.146  18.228  0.00  0.00    +0.000 A 
ATOM      6  N   UNL     1       2.139   6.440  17.831  0.00  0.00    +0.000 NA
ENDROOT
BRANCH   4   7
ATOM      7  S   UNL     1       1.510   3.080  20.012  0.00  0.00    +0.000 S 
ATOM      8  O   UNL     1       1.330   3.100  21.452  0.00  0.00    +0.000 OA
ATOM      9  O   UNL     1       0.439   2.570  19.177  0.00  0.00    +0.000 OA
BRANCH   7  10
ATOM     10  C   UNL     1       2.946   2.077  19.685  0.00  0.00    +0.000 C 
ATOM     11  C   UNL     1       4.263   2.575  20.249  0.00  0.00    +0.000 C 
ATOM     12  C   UNL     1       4.885   3.646  19.369  0.00  0.00    +0.000 C 
ATOM     13  N   UNL     1       5.045   3.272  17.962  0.00  0.00    +0.000 NA
ATOM     14  C   UNL     1       3.950   2.508  17.355  0.00  0.00    +0.000 C 
ATOM     15  C   UNL     1       3.149   1.573  18.263  0.00  0.00    +0.000 C 
BRANCH  13  16
ATOM     16  C   UNL     1       5.512   4.428  17.130  0.00  0.00    +0.000 C 
ATOM     17  C   UNL     1       5.982   4.018  15.721  0.00  0.00    +0.000 C 
ATOM     18  C   UNL     1       6.602   5.158  14.936  0.00  0.00    +0.000 C 
ATOM     19  O   UNL     1       7.639   5.775  15.683  0.00  0.00    +0.000 OA
ATOM     20  C   UNL     1       7.130   6.367  16.875  0.00  0.00    +0.000 C 
ATOM     21  C   UNL     1       6.591   5.294  17.816  0.00  0.00    +0.000 C 
ENDBRANCH  13  16
ENDBRANCH   7  10
ENDBRANCH   4   7
BRANCH   1  22
ATOM     22  C   UNL     1       2.106   8.867  18.375  0.00  0.00    +0.000 C 
BRANCH  22  25
ATOM     23  O   UNL     1      -0.457  10.012  17.926  0.00  0.00    +0.000 OA
ATOM     24  C   UNL     1       0.188  10.335  18.920  0.00  0.00    +0.000 C 
ATOM     25  N   UNL     1       1.378   9.745  19.260  0.00  0.00    +0.000 N 
ATOM     26  N   UNL     1      -0.199  11.365  19.751  0.00  0.00    +0.000 N 
ATOM     27  C   UNL     1       0.666  12.019  20.733  0.00  0.00    +0.000 C 
ATOM     28  C   UNL     1      -0.072  13.268  21.075  0.00  0.00    +0.000 A 
ATOM     29  C   UNL     1       0.335  14.343  21.841  0.00  0.00    +0.000 A 
ATOM     30  C   UNL     1      -0.608  15.338  22.048  0.00  0.00    +0.000 A 
ATOM     31  N   UNL     1      -1.885  15.294  21.586  0.00  0.00    +0.000 NA
ATOM     32  C   UNL     1      -2.232  14.240  20.807  0.00  0.00    +0.000 A 
ATOM     33  C   UNL     1      -1.338  13.243  20.496  0.00  0.00    +0.000 A 
ATOM     34  C   UNL     1      -1.439  12.110  19.530  0.00  0.00    +0.000 C 
ATOM     35  H   UNL     1       1.663   9.765  20.221  0.00  0.00    +0.000 HD
ENDBRANCH  22  25
ENDBRANCH   1  22
TORSDOF 5
ENDMDL
MODEL 7
REMARK VINA RESULT:      -8.1      1.710      2.467
REMARK  Name = 
REMARK  5 active torsions:
REMARK  status: ('A' for Active; 'I' for Inactive)
REMARK    1  A    between atoms: N_3  and  C_4
REMARK    2  A    between atoms: C_4  and  C_5
REMARK    3  A    between atoms: C_8  and  S_9
REMARK    4  A    between atoms: S_9  and  C_12
REMARK    5  A    between atoms: N_15  and  C_16
REMARK                            x       y       z     vdW  Elec       q    Type
REMARK                         _______ _______ _______ _____ _____    ______ ____
ROOT
ATOM      1  C   UNL     1       2.176   7.367  18.720  0.00  0.00    +0.000 A 
ATOM      2  C   UNL     1       2.114   7.007  20.068  0.00  0.00    +0.000 A 
ATOM      3  C   UNL     1       1.859   5.687  20.418  0.00  0.00    +0.000 A 
ATOM      4  C   UNL     1       1.696   4.734  19.420  0.00  0.00    +0.000 A 
ATOM      5  C   UNL     1       1.911   5.122  18.108  0.00  0.00    +0.000 A 
ATOM      6  N   UNL     1       2.108   6.421  17.738  0.00  0.00    +0.000 NA
ENDROOT
BRANCH   4   7
ATOM      7  S   UNL     1       1.476   3.020  19.853  0.00  0.00    +0.000 S 
ATOM      8  O   UNL     1       1.166   3.021  21.272  0.00  0.00    +0.000 OA
ATOM      9  O   UNL     1       0.490   2.508  18.919  0.00  0.00    +0.000 OA
BRANCH   7  10
ATOM     10  C   UNL     1       2.946   2.036  19.649  0.00  0.00    +0.000 C 
ATOM     11  C   UNL     1       4.206   2.552  20.317  0.00  0.00    +0.000 C 
ATOM     12  C   UNL     1       4.884   3.630  19.490  0.00  0.00    +0.000 C 
ATOM     13  N   UNL     1       5.164   3.257  18.102  0.00  0.00    +0.000 NA
ATOM     14  C   UNL     1       4.134   2.477  17.408  0.00  0.00    +0.000 C 
ATOM     15  C   UNL     1       3.273   1.533  18.249  0.00  0.00    +0.000 C 
BRANCH  13  16
ATOM     16  C   UNL     1       5.683   4.418  17.308  0.00  0.00    +0.000 C 
ATOM     17  C   UNL     1       5.542   5.769  18.036  0.00  0.00    +0.000 C 
ATOM     18  C   UNL     1       5.918   6.959  17.174  0.00  0.00    +0.000 C 
ATOM     19  O   UNL     1       5.202   6.938  15.950  0.00  0.00    +0.000 OA
ATOM     20  C   UNL     1       5.540   5.789  15.177  0.00  0.00    +0.000 C 
ATOM     21  C   UNL     1       5.088   4.517  15.887  0.00  0.00    +0.000 C 
ENDBRANCH  13  16
ENDBRANCH   7  10
ENDBRANCH   4   7
BRANCH   1  22
ATOM     22  C   UNL     1       2.145   8.833  18.344  0.00  0.00    +0.000 C 
BRANCH  22  25
ATOM     23  O   UNL     1      -0.422   9.953  17.862  0.00  0.00    +0.000 OA
ATOM     24  C   UNL     1       0.199  10.270  18.874  0.00  0.00    +0.000 C 
ATOM     25  N   UNL     1       1.390   9.689  19.228  0.00  0.00    +0.000 N 
ATOM     26  N   UNL     1      -0.216  11.284  19.711  0.00  0.00    +0.000 N 
ATOM     27  C   UNL     1       0.622  11.934  20.719  0.00  0.00    +0.000 C 
ATOM     28  C   UNL     1      -0.138  13.169  21.065  0.00  0.00    +0.000 A 
ATOM     29  C   UNL     1       0.240  14.237  21.853  0.00  0.00    +0.000 A 
ATOM     30  C   UNL     1      -0.718  15.218  22.056  0.00  0.00    +0.000 A 
ATOM     31  N   UNL     1      -1.986  15.164  21.569  0.00  0.00    +0.000 NA
ATOM     32  C   UNL     1      -2.305  14.118  20.768  0.00  0.00    +0.000 A 
ATOM     33  C   UNL     1      -1.392  13.136  20.461  0.00  0.00    +0.000 A 
ATOM     34  C   UNL     1      -1.461  12.016  19.477  0.00  0.00    +0.000 C 
ATOM     35  H   UNL     1       1.656   9.699  20.195  0.00  0.00    +0.000 HD
ENDBRANCH  22  25
ENDBRANCH   1  22
TORSDOF 5
ENDMDL
MODEL 8
REMARK VINA RESULT:      -8.0      1.300      1.714
REMARK  Name = 
REMARK  5 active torsions:
REMARK  status: ('A' for Active; 'I' for Inactive)
REMARK    1  A    between atoms: N_3  and  C_4
REMARK    2  A    between atoms: C_4  and  C_5
REMARK    3  A    between atoms: C_8  and  S_9
REMARK    4  A    between atoms: S_9  and  C_12
REMARK    5  A    between atoms: N_15  and  C_16
REMARK                            x       y       z     vdW  Elec       q    Type
REMARK                         _______ _______ _______ _____ _____    ______ ____
ROOT
ATOM      1  C   UNL     1       1.695   7.275  19.698  0.00  0.00    +0.000 A 
ATOM      2  C   UNL     1       1.856   6.663  18.452  0.00  0.00    +0.000 A 
ATOM      3  C   UNL     1       1.909   5.277  18.367  0.00  0.00    +0.000 A 
ATOM      4  C   UNL     1       1.772   4.515  19.521  0.00  0.00    +0.000 A 
ATOM      5  C   UNL     1       1.471   5.171  20.703  0.00  0.00    +0.000 A 
ATOM      6  N   UNL     1       1.469   6.531  20.820  0.00  0.00    +0.000 NA
ENDROOT
BRANCH   4   7
ATOM      7  S   UNL     1       1.729   2.737  19.414  0.00  0.00    +0.000 S 
ATOM      8  O   UNL     1       1.457   2.280  20.766  0.00  0.00    +0.000 OA
ATOM      9  O   UNL     1       0.774   2.435  18.365  0.00  0.00    +0.000 OA
BRANCH   7  10
ATOM     10  C   UNL     1       3.282   2.012  18.929  0.00  0.00    +0.000 C 
ATOM     11  C   UNL     1       4.431   2.152  19.909  0.00  0.00    +0.000 C 
ATOM     12  C   UNL     1       5.101   3.510  19.804  0.00  0.00    +0.000 C 
ATOM     13  N   UNL     1       5.537   3.881  18.456  0.00  0.00    +0.000 NA
ATOM     14  C   UNL     1       4.638   3.529  17.353  0.00  0.00    +0.000 C 
ATOM     15  C   UNL     1       3.775   2.276  17.513  0.00  0.00    +0.000 C 
BRANCH  13  16
ATOM     16  C   UNL     1       6.040   5.292  18.403  0.00  0.00    +0.000 C 
ATOM     17  C   UNL     1       5.630   6.040  17.120  0.00  0.00    +0.000 C 
ATOM     18  C   UNL     1       6.268   7.410  16.990  0.00  0.00    +0.000 C 
ATOM     19  O   UNL     1       7.678   7.321  17.125  0.00  0.00    +0.000 OA
ATOM     20  C   UNL     1       8.041   6.854  18.422  0.00  0.00    +0.000 C 
ATOM     21  C   UNL     1       7.563   5.420  18.626  0.00  0.00    +0.000 C 
ENDBRANCH  13  16
ENDBRANCH   7  10
ENDBRANCH   4   7
BRANCH   1  22
ATOM     22  C   UNL     1       1.945   8.762  19.828  0.00  0.00    +0.000 C 
BRANCH  22  25
ATOM     23  O   UNL     1       0.113  10.405  21.250  0.00  0.00    +0.000 OA
ATOM     24  C   UNL     1       0.016  10.301  20.030  0.00  0.00    +0.000 C 
ATOM     25  N   UNL     1       0.927   9.619  19.266  0.00  0.00    +0.000 N 
ATOM     26  N   UNL     1      -1.054  10.812  19.326  0.00  0.00    +0.000 N 
ATOM     27  C   UNL     1      -1.407  10.445  17.954  0.00  0.00    +0.000 C 
ATOM     28  C   UNL     1      -2.801  10.949  17.802  0.00  0.00    +0.000 A 
ATOM     29  C   UNL     1      -3.693  10.758  16.766  0.00  0.00    +0.000 A 
ATOM     30  C   UNL     1      -4.906  11.421  16.872  0.00  0.00    +0.000 A 
ATOM     31  N   UNL     1      -5.236  12.258  17.890  0.00  0.00    +0.000 NA
ATOM     32  C   UNL     1      -4.348  12.388  18.906  0.00  0.00    +0.000 A 
ATOM     33  C   UNL     1      -3.151  11.713  18.913  0.00  0.00    +0.000 A 
ATOM     34  C   UNL     1      -2.124  11.562  19.985  0.00  0.00    +0.000 C 
ATOM     35  H   UNL     1       1.019   9.866  18.298  0.00  0.00    +0.000 HD
ENDBRANCH  22  25
ENDBRANCH   1  22
TORSDOF 5
ENDMDL
MODEL 9
REMARK VINA RESULT:      -7.8      2.175      3.185
REMARK  Name = 
REMARK  5 active torsions:
REMARK  status: ('A' for Active; 'I' for Inactive)
REMARK    1  A    between atoms: N_3  and  C_4
REMARK    2  A    between atoms: C_4  and  C_5
REMARK    3  A    between atoms: C_8  and  S_9
REMARK    4  A    between atoms: S_9  and  C_12
REMARK    5  A    between atoms: N_15  and  C_16
REMARK                            x       y       z     vdW  Elec       q    Type
REMARK                         _______ _______ _______ _____ _____    ______ ____
ROOT
ATOM      1  C   UNL     1       2.006   7.591  18.546  0.00  0.00    +0.000 A 
ATOM      2  C   UNL     1       1.773   6.434  17.798  0.00  0.00    +0.000 A 
ATOM      3  C   UNL     1       1.784   5.194  18.423  0.00  0.00    +0.000 A 
ATOM      4  C   UNL     1       2.000   5.122  19.794  0.00  0.00    +0.000 A 
ATOM      5  C   UNL     1       2.081   6.308  20.504  0.00  0.00    +0.000 A 
ATOM      6  N   UNL     1       2.127   7.533  19.904  0.00  0.00    +0.000 NA
ENDROOT
BRANCH   4   7
ATOM      7  S   UNL     1       1.910   3.550  20.629  0.00  0.00    +0.000 S 
ATOM      8  O   UNL     1       2.281   3.826  22.005  0.00  0.00    +0.000 OA
ATOM      9  O   UNL     1       0.581   3.038  20.348  0.00  0.00    +0.000 OA
BRANCH   7  10
ATOM     10  C   UNL     1       3.070   2.347  20.014  0.00  0.00    +0.000 C 
ATOM     11  C   UNL     1       4.535   2.739  20.046  0.00  0.00    +0.000 C 
ATOM     12  C   UNL     1       4.910   3.617  18.865  0.00  0.00    +0.000 C 
ATOM     13  N   UNL     1       4.562   3.067  17.553  0.00  0.00    +0.000 NA
ATOM     14  C   UNL     1       3.271   2.379  17.448  0.00  0.00    +0.000 C 
ATOM     15  C   UNL     1       2.748   1.661  18.693  0.00  0.00    +0.000 C 
BRANCH  13  16
ATOM     16  C   UNL     1       4.815   4.053  16.452  0.00  0.00    +0.000 C 
ATOM     17  C   UNL     1       5.941   3.624  15.492  0.00  0.00    +0.000 C 
ATOM     18  C   UNL     1       6.305   4.689  14.476  0.00  0.00    +0.000 C 
ATOM     19  O   UNL     1       6.598   5.918  15.121  0.00  0.00    +0.000 OA
ATOM     20  C   UNL     1       5.454   6.423  15.806  0.00  0.00    +0.000 C 
ATOM     21  C   UNL     1       5.065   5.493  16.951  0.00  0.00    +0.000 C 
ENDBRANCH  13  16
ENDBRANCH   7  10
ENDBRANCH   4   7
BRANCH   1  22
ATOM     22  C   UNL     1       2.298   8.890  17.826  0.00  0.00    +0.000 C 
BRANCH  22  25
ATOM     23  O   UNL     1      -0.264  10.088  18.112  0.00  0.00    +0.000 OA
ATOM     24  C   UNL     1       0.727  10.660  18.558  0.00  0.00    +0.000 C 
ATOM     25  N   UNL     1       1.977  10.094  18.556  0.00  0.00    +0.000 N 
ATOM     26  N   UNL     1       0.682  11.949  19.044  0.00  0.00    +0.000 N 
ATOM     27  C   UNL     1       1.851  12.801  19.269  0.00  0.00    +0.000 C 
ATOM     28  C   UNL     1       1.268  14.165  19.415  0.00  0.00    +0.000 A 
ATOM     29  C   UNL     1       1.908  15.385  19.500  0.00  0.00    +0.000 A 
ATOM     30  C   UNL     1       1.097  16.489  19.710  0.00  0.00    +0.000 A 
ATOM     31  N   UNL     1      -0.251  16.430  19.874  0.00  0.00    +0.000 NA
ATOM     32  C   UNL     1      -0.845  15.218  19.745  0.00  0.00    +0.000 A 
ATOM     33  C   UNL     1      -0.121  14.083  19.469  0.00  0.00    +0.000 A 
ATOM     34  C   UNL     1      -0.569  12.705  19.111  0.00  0.00    +0.000 C 
ATOM     35  H   UNL     1       2.645  10.412  19.232  0.00  0.00    +0.000 HD
ENDBRANCH  22  25
ENDBRANCH   1  22
TORSDOF 5
ENDMDL
