MODEL 1
REMARK VINA RESULT:      -8.4      0.000      0.000
REMARK  Name = 
REMARK  3 active torsions:
REMARK  status: ('A' for Active; 'I' for Inactive)
REMARK    1  A    between atoms: C_3  and  C_4
REMARK    2  A    between atoms: N_9  and  C_10
REMARK    3  A    between atoms: C_13  and  C_14
REMARK                            x       y       z     vdW  Elec       q    Type
REMARK                         _______ _______ _______ _____ _____    ______ ____
ROOT
ATOM      1  C   UNL     1       6.208   5.381  16.907  0.00  0.00    +0.000 A 
ATOM      2  C   UNL     1       6.617   4.757  18.090  0.00  0.00    +0.000 A 
ATOM      3  C   UNL     1       5.698   4.449  19.100  0.00  0.00    +0.000 A 
ATOM      4  C   UNL     1       4.337   4.753  18.948  0.00  0.00    +0.000 A 
ATOM      5  C   UNL     1       3.923   5.377  17.769  0.00  0.00    +0.000 A 
ATOM      6  C   UNL     1       4.845   5.675  16.766  0.00  0.00    +0.000 A 
ENDROOT
BRANCH   1  12
ATOM      7  C   UNL     1       8.060   5.266  12.474  0.00  0.00    +0.000 A 
ATOM      8  C   UNL     1       7.173   4.337  11.980  0.00  0.00    +0.000 A 
ATOM      9  C   UNL     1       6.255   3.829  12.872  0.00  0.00    +0.000 A 
ATOM     10  N   UNL     1       6.251   4.245  14.151  0.00  0.00    +0.000 NA
ATOM     11  C   UNL     1       7.139   5.162  14.560  0.00  0.00    +0.000 A 
ATOM     12  N   UNL     1       7.138   5.590  15.882  0.00  0.00    +0.000 N 
ATOM     13  N   UNL     1       8.069   5.688  13.753  0.00  0.00    +0.000 NA
ATOM     14  H   UNL     1       7.911   6.210  16.067  0.00  0.00    +0.000 HD
BRANCH   9  15
ATOM     15  C   UNL     1       5.186   2.847  12.461  0.00  0.00    +0.000 C 
ATOM     16  C   UNL     1       4.374   3.042  11.204  0.00  0.00    +0.000 C 
ATOM     17  C   UNL     1       5.415   1.964  11.254  0.00  0.00    +0.000 C 
ENDBRANCH   9  15
ENDBRANCH   1  12
BRANCH   4  18
ATOM     18  C   UNL     1       3.328   4.465  20.037  0.00  0.00    +0.000 C 
ATOM     19  C   UNL     1       3.531   3.032  20.596  0.00  0.00    +0.000 C 
ATOM     20  N   UNL     1       2.525   2.664  21.616  0.00  0.00    +0.000 NA
ATOM     21  C   UNL     1       1.187   2.891  21.040  0.00  0.00    +0.000 C 
ATOM     22  C   UNL     1       1.017   4.324  20.515  0.00  0.00    +0.000 C 
ATOM     23  O   UNL     1       1.996   4.631  19.517  0.00  0.00    +0.000 OA
ATOM     24  H   UNL     1       2.641   3.281  22.420  0.00  0.00    +0.000 HD
ENDBRANCH   4  18
TORSDOF 3
ENDMDL
MODEL 2
REMARK VINA RESULT:      -8.3      0.220      1.025
REMARK  Name = 
REMARK  3 active torsions:
REMARK  status: ('A' for Active; 'I' for Inactive)
REMARK    1  A    between atoms: C_3  and  C_4
REMARK    2  A    between atoms: N_9  and  C_10
REMARK    3  A    between atoms: C_13  and  C_14
REMARK                            x       y       z     vdW  Elec       q    Type
REMARK                         _______ _______ _______ _____ _____    ______ ____
ROOT
ATOM      1  C   UNL     1       6.181   5.111  16.918  0.00  0.00    +0.000 A 
ATOM      2  C   UNL     1       4.810   5.144  16.645  0.00  0.00    +0.000 A 
ATOM      3  C   UNL     1       3.866   4.933  17.657  0.00  0.00    +0.000 A 
ATOM      4  C   UNL     1       4.272   4.689  18.978  0.00  0.00    +0.000 A 
ATOM      5  C   UNL     1       5.641   4.655  19.256  0.00  0.00    +0.000 A 
ATOM      6  C   UNL     1       6.574   4.871  18.242  0.00  0.00    +0.000 A 
ENDROOT
BRANCH   1  12
ATOM      7  C   UNL     1       8.014   5.294  12.479  0.00  0.00    +0.000 A 
ATOM      8  C   UNL     1       7.178   4.338  11.948  0.00  0.00    +0.000 A 
ATOM      9  C   UNL     1       6.295   3.741  12.820  0.00  0.00    +0.000 A 
ATOM     10  N   UNL     1       6.274   4.100  14.115  0.00  0.00    +0.000 NA
ATOM     11  C   UNL     1       7.111   5.047  14.562  0.00  0.00    +0.000 A 
ATOM     12  N   UNL     1       7.093   5.417  15.901  0.00  0.00    +0.000 N 
ATOM     13  N   UNL     1       8.005   5.660  13.776  0.00  0.00    +0.000 NA
ATOM     14  H   UNL     1       7.831   6.072  16.110  0.00  0.00    +0.000 HD
BRANCH   9  15
ATOM     15  C   UNL     1       5.281   2.718  12.370  0.00  0.00    +0.000 C 
ATOM     16  C   UNL     1       4.493   2.894  11.095  0.00  0.00    +0.000 C 
ATOM     17  C   UNL     1       5.579   1.863  11.157  0.00  0.00    +0.000 C 
ENDBRANCH   9  15
ENDBRANCH   1  12
BRANCH   4  18
ATOM     18  C   UNL     1       3.277   4.422  20.084  0.00  0.00    +0.000 C 
ATOM     19  C   UNL     1       3.558   3.048  20.745  0.00  0.00    +0.000 C 
ATOM     20  N   UNL     1       2.570   2.696  21.788  0.00  0.00    +0.000 NA
ATOM     21  C   UNL     1       1.224   2.805  21.196  0.00  0.00    +0.000 C 
ATOM     22  C   UNL     1       0.975   4.184  20.569  0.00  0.00    +0.000 C 
ATOM     23  O   UNL     1       1.940   4.475  19.553  0.00  0.00    +0.000 OA
ATOM     24  H   UNL     1       2.647   3.375  22.545  0.00  0.00    +0.000 HD
ENDBRANCH   4  18
TORSDOF 3
ENDMDL
MODEL 3
REMARK VINA RESULT:      -8.2      6.074      8.818
REMARK  Name = 
REMARK  3 active torsions:
REMARK  status: ('A' for Active; 'I' for Inactive)
REMARK    1  A    between atoms: C_3  and  C_4
REMARK    2  A    between atoms: N_9  and  C_10
REMARK    3  A    between atoms: C_13  and  C_14
REMARK                            x       y       z     vdW  Elec       q    Type
REMARK                         _______ _______ _______ _____ _____    ______ ____
ROOT
ATOM      1  C   UNL     1       1.456   9.022  19.324  0.00  0.00    +0.000 A 
ATOM      2  C   UNL     1       1.668   7.955  20.203  0.00  0.00    +0.000 A 
ATOM      3  C   UNL     1       2.425   6.842  19.817  0.00  0.00    +0.000 A 
ATOM      4  C   UNL     1       3.000   6.772  18.540  0.00  0.00    +0.000 A 
ATOM      5  C   UNL     1       2.791   7.835  17.659  0.00  0.00    +0.000 A 
ATOM      6  C   UNL     1       2.038   8.942  18.052  0.00  0.00    +0.000 A 
ENDROOT
BRANCH   1  12
ATOM      7  C   UNL     1      -2.155  12.160  19.786  0.00  0.00    +0.000 A 
ATOM      8  C   UNL     1      -2.868  11.707  18.699  0.00  0.00    +0.000 A 
ATOM      9  C   UNL     1      -2.293  10.693  17.966  0.00  0.00    +0.000 A 
ATOM     10  N   UNL     1      -1.099  10.190  18.325  0.00  0.00    +0.000 NA
ATOM     11  C   UNL     1      -0.465  10.673  19.403  0.00  0.00    +0.000 A 
ATOM     12  N   UNL     1       0.771  10.157  19.774  0.00  0.00    +0.000 N 
ATOM     13  N   UNL     1      -0.957  11.667  20.154  0.00  0.00    +0.000 NA
ATOM     14  H   UNL     1       1.166  10.672  20.545  0.00  0.00    +0.000 HD
BRANCH   9  15
ATOM     15  C   UNL     1      -2.983  10.058  16.784  0.00  0.00    +0.000 C 
ATOM     16  C   UNL     1      -4.072  10.776  16.025  0.00  0.00    +0.000 C 
ATOM     17  C   UNL     1      -2.723  10.602  15.395  0.00  0.00    +0.000 C 
ENDBRANCH   9  15
ENDBRANCH   1  12
BRANCH   4  18
ATOM     18  C   UNL     1       3.793   5.568  18.085  0.00  0.00    +0.000 C 
ATOM     19  C   UNL     1       4.835   5.169  19.163  0.00  0.00    +0.000 C 
ATOM     20  N   UNL     1       5.693   4.039  18.744  0.00  0.00    +0.000 NA
ATOM     21  C   UNL     1       6.290   4.378  17.439  0.00  0.00    +0.000 C 
ATOM     22  C   UNL     1       5.228   4.749  16.394  0.00  0.00    +0.000 C 
ATOM     23  O   UNL     1       4.434   5.858  16.830  0.00  0.00    +0.000 OA
ATOM     24  H   UNL     1       5.104   3.214  18.627  0.00  0.00    +0.000 HD
ENDBRANCH   4  18
TORSDOF 3
ENDMDL
MODEL 4
REMARK VINA RESULT:      -8.1      5.886      8.084
REMARK  Name = 
REMARK  3 active torsions:
REMARK  status: ('A' for Active; 'I' for Inactive)
REMARK    1  A    between atoms: C_3  and  C_4
REMARK    2  A    between atoms: N_9  and  C_10
REMARK    3  A    between atoms: C_13  and  C_14
REMARK                            x       y       z     vdW  Elec       q    Type
REMARK                         _______ _______ _______ _____ _____    ______ ____
ROOT
ATOM      1  C   UNL     1       1.788   8.533  19.150  0.00  0.00    +0.000 A 
ATOM      2  C   UNL     1       1.587   7.844  20.350  0.00  0.00    +0.000 A 
ATOM      3  C   UNL     1       1.895   6.483  20.463  0.00  0.00    +0.000 A 
ATOM      4  C   UNL     1       2.423   5.774  19.374  0.00  0.00    +0.000 A 
ATOM      5  C   UNL     1       2.626   6.457  18.173  0.00  0.00    +0.000 A 
ATOM      6  C   UNL     1       2.320   7.814  18.070  0.00  0.00    +0.000 A 
ENDROOT
BRANCH   1  12
ATOM      7  C   UNL     1      -0.667  12.622  18.557  0.00  0.00    +0.000 A 
ATOM      8  C   UNL     1      -1.739  12.044  17.914  0.00  0.00    +0.000 A 
ATOM      9  C   UNL     1      -1.655  10.691  17.674  0.00  0.00    +0.000 A 
ATOM     10  N   UNL     1      -0.570   9.999  18.066  0.00  0.00    +0.000 NA
ATOM     11  C   UNL     1       0.432  10.625  18.698  0.00  0.00    +0.000 A 
ATOM     12  N   UNL     1       1.555   9.912  19.100  0.00  0.00    +0.000 N 
ATOM     13  N   UNL     1       0.426  11.940  18.951  0.00  0.00    +0.000 NA
ATOM     14  H   UNL     1       2.261  10.524  19.480  0.00  0.00    +0.000 HD
BRANCH   9  15
ATOM     15  C   UNL     1      -2.776   9.913  17.031  0.00  0.00    +0.000 C 
ATOM     16  C   UNL     1      -3.908  10.605  16.311  0.00  0.00    +0.000 C 
ATOM     17  C   UNL     1      -2.872   9.864  15.521  0.00  0.00    +0.000 C 
ENDBRANCH   9  15
ENDBRANCH   1  12
BRANCH   4  18
ATOM     18  C   UNL     1       2.732   4.297  19.457  0.00  0.00    +0.000 C 
ATOM     19  C   UNL     1       4.149   4.008  18.896  0.00  0.00    +0.000 C 
ATOM     20  N   UNL     1       4.482   2.567  18.883  0.00  0.00    +0.000 NA
ATOM     21  C   UNL     1       3.405   1.857  18.168  0.00  0.00    +0.000 C 
ATOM     22  C   UNL     1       2.021   2.151  18.763  0.00  0.00    +0.000 C 
ATOM     23  O   UNL     1       1.732   3.553  18.738  0.00  0.00    +0.000 OA
ATOM     24  H   UNL     1       4.506   2.234  19.847  0.00  0.00    +0.000 HD
ENDBRANCH   4  18
TORSDOF 3
ENDMDL
MODEL 5
REMARK VINA RESULT:      -8.0      4.188      5.894
REMARK  Name = 
REMARK  3 active torsions:
REMARK  status: ('A' for Active; 'I' for Inactive)
REMARK    1  A    between atoms: C_3  and  C_4
REMARK    2  A    between atoms: N_9  and  C_10
REMARK    3  A    between atoms: C_13  and  C_14
REMARK                            x       y       z     vdW  Elec       q    Type
REMARK                         _______ _______ _______ _____ _____    ______ ____
ROOT
ATOM      1  C   UNL     1       2.575   6.578  18.468  0.00  0.00    +0.000 A 
ATOM      2  C   UNL     1       2.345   6.320  19.824  0.00  0.00    +0.000 A 
ATOM      3  C   UNL     1       1.829   7.309  20.670  0.00  0.00    +0.000 A 
ATOM      4  C   UNL     1       1.519   8.585  20.177  0.00  0.00    +0.000 A 
ATOM      5  C   UNL     1       1.747   8.848  18.824  0.00  0.00    +0.000 A 
ATOM      6  C   UNL     1       2.257   7.856  17.987  0.00  0.00    +0.000 A 
ENDROOT
BRANCH   1  12
ATOM      7  C   UNL     1       5.648   3.777  16.058  0.00  0.00    +0.000 A 
ATOM      8  C   UNL     1       6.724   4.628  16.172  0.00  0.00    +0.000 A 
ATOM      9  C   UNL     1       6.494   5.828  16.806  0.00  0.00    +0.000 A 
ATOM     10  N   UNL     1       5.271   6.120  17.282  0.00  0.00    +0.000 NA
ATOM     11  C   UNL     1       4.271   5.239  17.146  0.00  0.00    +0.000 A 
ATOM     12  N   UNL     1       3.005   5.540  17.634  0.00  0.00    +0.000 N 
ATOM     13  N   UNL     1       4.417   4.059  16.528  0.00  0.00    +0.000 NA
ATOM     14  H   UNL     1       2.337   4.828  17.384  0.00  0.00    +0.000 HD
BRANCH   9  15
ATOM     15  C   UNL     1       7.590   6.835  17.053  0.00  0.00    +0.000 C 
ATOM     16  C   UNL     1       7.310   8.164  17.712  0.00  0.00    +0.000 C 
ATOM     17  C   UNL     1       8.045   7.102  18.472  0.00  0.00    +0.000 C 
ENDBRANCH   9  15
ENDBRANCH   1  12
BRANCH   4  18
ATOM     18  C   UNL     1       0.994   9.682  21.075  0.00  0.00    +0.000 C 
ATOM     19  C   UNL     1       0.696   9.125  22.492  0.00  0.00    +0.000 C 
ATOM     20  N   UNL     1       0.109  10.137  23.397  0.00  0.00    +0.000 NA
ATOM     21  C   UNL     1      -1.070  10.719  22.729  0.00  0.00    +0.000 C 
ATOM     22  C   UNL     1      -0.732  11.277  21.339  0.00  0.00    +0.000 C 
ATOM     23  O   UNL     1      -0.186  10.261  20.490  0.00  0.00    +0.000 OA
ATOM     24  H   UNL     1       0.797  10.875  23.543  0.00  0.00    +0.000 HD
ENDBRANCH   4  18
TORSDOF 3
ENDMDL
MODEL 6
REMARK VINA RESULT:      -7.9      5.999      8.619
REMARK  Name = 
REMARK  3 active torsions:
REMARK  status: ('A' for Active; 'I' for Inactive)
REMARK    1  A    between atoms: C_3  and  C_4
REMARK    2  A    between atoms: N_9  and  C_10
REMARK    3  A    between atoms: C_13  and  C_14
REMARK                            x       y       z     vdW  Elec       q    Type
REMARK                         _______ _______ _______ _____ _____    ______ ____
ROOT
ATOM      1  C   UNL     1       1.596   8.861  19.540  0.00  0.00    +0.000 A 
ATOM      2  C   UNL     1       2.051   8.662  18.232  0.00  0.00    +0.000 A 
ATOM      3  C   UNL     1       2.521   7.412  17.813  0.00  0.00    +0.000 A 
ATOM      4  C   UNL     1       2.541   6.321  18.694  0.00  0.00    +0.000 A 
ATOM      5  C   UNL     1       2.089   6.514  20.001  0.00  0.00    +0.000 A 
ATOM      6  C   UNL     1       1.618   7.762  20.409  0.00  0.00    +0.000 A 
ENDROOT
BRANCH   1  12
ATOM      7  C   UNL     1      -1.671  12.373  19.839  0.00  0.00    +0.000 A 
ATOM      8  C   UNL     1      -2.488  11.883  18.845  0.00  0.00    +0.000 A 
ATOM      9  C   UNL     1      -2.056  10.747  18.199  0.00  0.00    +0.000 A 
ATOM     10  N   UNL     1      -0.893  10.168  18.550  0.00  0.00    +0.000 NA
ATOM     11  C   UNL     1      -0.154  10.694  19.535  0.00  0.00    +0.000 A 
ATOM     12  N   UNL     1       1.049  10.099  19.897  0.00  0.00    +0.000 N 
ATOM     13  N   UNL     1      -0.504  11.804  20.197  0.00  0.00    +0.000 NA
ATOM     14  H   UNL     1       1.537  10.649  20.587  0.00  0.00    +0.000 HD
BRANCH   9  15
ATOM     15  C   UNL     1      -2.872  10.065  17.128  0.00  0.00    +0.000 C 
ATOM     16  C   UNL     1      -3.937  10.803  16.355  0.00  0.00    +0.000 C 
ATOM     17  C   UNL     1      -2.651  10.438  15.678  0.00  0.00    +0.000 C 
ENDBRANCH   9  15
ENDBRANCH   1  12
BRANCH   4  18
ATOM     18  C   UNL     1       3.076   4.969  18.279  0.00  0.00    +0.000 C 
ATOM     19  C   UNL     1       1.934   4.087  17.709  0.00  0.00    +0.000 C 
ATOM     20  N   UNL     1       2.383   2.723  17.353  0.00  0.00    +0.000 NA
ATOM     21  C   UNL     1       3.051   2.140  18.530  0.00  0.00    +0.000 C 
ATOM     22  C   UNL     1       4.187   3.031  19.053  0.00  0.00    +0.000 C 
ATOM     23  O   UNL     1       3.707   4.333  19.405  0.00  0.00    +0.000 OA
ATOM     24  H   UNL     1       3.062   2.796  16.596  0.00  0.00    +0.000 HD
ENDBRANCH   4  18
TORSDOF 3
ENDMDL
MODEL 7
REMARK VINA RESULT:      -7.9      5.869      8.110
REMARK  Name = 
REMARK  3 active torsions:
REMARK  status: ('A' for Active; 'I' for Inactive)
REMARK    1  A    between atoms: C_3  and  C_4
REMARK    2  A    between atoms: N_9  and  C_10
REMARK    3  A    between atoms: C_13  and  C_14
REMARK                            x       y       z     vdW  Elec       q    Type
REMARK                         _______ _______ _______ _____ _____    ______ ____
ROOT
ATOM      1  C   UNL     1       1.865   8.583  19.329  0.00  0.00    +0.000 A 
ATOM      2  C   UNL     1       2.301   7.930  18.171  0.00  0.00    +0.000 A 
ATOM      3  C   UNL     1       2.506   6.545  18.157  0.00  0.00    +0.000 A 
ATOM      4  C   UNL     1       2.270   5.772  19.303  0.00  0.00    +0.000 A 
ATOM      5  C   UNL     1       1.835   6.419  20.462  0.00  0.00    +0.000 A 
ATOM      6  C   UNL     1       1.630   7.799  20.467  0.00  0.00    +0.000 A 
ENDROOT
BRANCH   1  12
ATOM      7  C   UNL     1      -0.709  12.587  18.667  0.00  0.00    +0.000 A 
ATOM      8  C   UNL     1      -1.730  11.978  17.973  0.00  0.00    +0.000 A 
ATOM      9  C   UNL     1      -1.587  10.631  17.725  0.00  0.00    +0.000 A 
ATOM     10  N   UNL     1      -0.496   9.974  18.157  0.00  0.00    +0.000 NA
ATOM     11  C   UNL     1       0.455  10.629  18.837  0.00  0.00    +0.000 A 
ATOM     12  N   UNL     1       1.584   9.953  19.282  0.00  0.00    +0.000 N 
ATOM     13  N   UNL     1       0.390  11.941  19.102  0.00  0.00    +0.000 NA
ATOM     14  H   UNL     1       2.251  10.586  19.697  0.00  0.00    +0.000 HD
BRANCH   9  15
ATOM     15  C   UNL     1      -2.650   9.820  17.026  0.00  0.00    +0.000 C 
ATOM     16  C   UNL     1      -3.867  10.471  16.414  0.00  0.00    +0.000 C 
ATOM     17  C   UNL     1      -2.793   9.925  15.523  0.00  0.00    +0.000 C 
ENDBRANCH   9  15
ENDBRANCH   1  12
BRANCH   4  18
ATOM     18  C   UNL     1       2.517   4.281  19.326  0.00  0.00    +0.000 C 
ATOM     19  C   UNL     1       4.034   3.981  19.214  0.00  0.00    +0.000 C 
ATOM     20  N   UNL     1       4.334   2.534  19.157  0.00  0.00    +0.000 NA
ATOM     21  C   UNL     1       3.532   1.945  18.069  0.00  0.00    +0.000 C 
ATOM     22  C   UNL     1       2.034   2.245  18.224  0.00  0.00    +0.000 C 
ATOM     23  O   UNL     1       1.788   3.655  18.255  0.00  0.00    +0.000 OA
ATOM     24  H   UNL     1       4.045   2.111  20.039  0.00  0.00    +0.000 HD
ENDBRANCH   4  18
TORSDOF 3
ENDMDL
MODEL 8
REMARK VINA RESULT:      -7.9      5.977      8.515
REMARK  Name = 
REMARK  3 active torsions:
REMARK  status: ('A' for Active; 'I' for Inactive)
REMARK    1  A    between atoms: C_3  and  C_4
REMARK    2  A    between atoms: N_9  and  C_10
REMARK    3  A    between atoms: C_13  and  C_14
REMARK                            x       y       z     vdW  Elec       q    Type
REMARK                         _______ _______ _______ _____ _____    ______ ____
ROOT
ATOM      1  C   UNL     1       1.577   8.773  19.394  0.00  0.00    +0.000 A 
ATOM      2  C   UNL     1       1.598   7.765  20.364  0.00  0.00    +0.000 A 
ATOM      3  C   UNL     1       2.167   6.514  20.094  0.00  0.00    +0.000 A 
ATOM      4  C   UNL     1       2.741   6.242  18.843  0.00  0.00    +0.000 A 
ATOM      5  C   UNL     1       2.723   7.245  17.872  0.00  0.00    +0.000 A 
ATOM      6  C   UNL     1       2.157   8.489  18.151  0.00  0.00    +0.000 A 
ENDROOT
BRANCH   1  12
ATOM      7  C   UNL     1      -1.562  12.401  19.680  0.00  0.00    +0.000 A 
ATOM      8  C   UNL     1      -2.424  11.909  18.726  0.00  0.00    +0.000 A 
ATOM      9  C   UNL     1      -2.050  10.739  18.104  0.00  0.00    +0.000 A 
ATOM     10  N   UNL     1      -0.897  10.132  18.438  0.00  0.00    +0.000 NA
ATOM     11  C   UNL     1      -0.111  10.662  19.384  0.00  0.00    +0.000 A 
ATOM     12  N   UNL     1       1.082  10.038  19.729  0.00  0.00    +0.000 N 
ATOM     13  N   UNL     1      -0.403  11.804  20.021  0.00  0.00    +0.000 NA
ATOM     14  H   UNL     1       1.609  10.592  20.386  0.00  0.00    +0.000 HD
BRANCH   9  15
ATOM     15  C   UNL     1      -2.921  10.054  17.080  0.00  0.00    +0.000 C 
ATOM     16  C   UNL     1      -3.969  10.809  16.300  0.00  0.00    +0.000 C 
ATOM     17  C   UNL     1      -2.717  10.356  15.612  0.00  0.00    +0.000 C 
ENDBRANCH   9  15
ENDBRANCH   1  12
BRANCH   4  18
ATOM     18  C   UNL     1       3.331   4.889  18.513  0.00  0.00    +0.000 C 
ATOM     19  C   UNL     1       2.280   4.001  17.797  0.00  0.00    +0.000 C 
ATOM     20  N   UNL     1       2.776   2.637  17.512  0.00  0.00    +0.000 NA
ATOM     21  C   UNL     1       3.278   2.062  18.774  0.00  0.00    +0.000 C 
ATOM     22  C   UNL     1       4.329   2.958  19.443  0.00  0.00    +0.000 C 
ATOM     23  O   UNL     1       3.802   4.261  19.718  0.00  0.00    +0.000 OA
ATOM     24  H   UNL     1       3.553   2.708  16.856  0.00  0.00    +0.000 HD
ENDBRANCH   4  18
TORSDOF 3
ENDMDL
MODEL 9
REMARK VINA RESULT:      -7.9      5.033      7.056
REMARK  Name = 
REMARK  3 active torsions:
REMARK  status: ('A' for Active; 'I' for Inactive)
REMARK    1  A    between atoms: C_3  and  C_4
REMARK    2  A    between atoms: N_9  and  C_10
REMARK    3  A    between atoms: C_13  and  C_14
REMARK                            x       y       z     vdW  Elec       q    Type
REMARK                         _______ _______ _______ _____ _____    ______ ____
ROOT
ATOM      1  C   UNL     1       2.396   7.830  18.638  0.00  0.00    +0.000 A 
ATOM      2  C   UNL     1       1.784   8.928  18.025  0.00  0.00    +0.000 A 
ATOM      3  C   UNL     1       0.883   9.738  18.727  0.00  0.00    +0.000 A 
ATOM      4  C   UNL     1       0.577   9.474  20.070  0.00  0.00    +0.000 A 
ATOM      5  C   UNL     1       1.185   8.378  20.687  0.00  0.00    +0.000 A 
ATOM      6  C   UNL     1       2.085   7.579  19.981  0.00  0.00    +0.000 A 
ENDROOT
BRANCH   1  12
ATOM      7  C   UNL     1       4.591   3.980  16.778  0.00  0.00    +0.000 A 
ATOM      8  C   UNL     1       3.906   3.055  17.534  0.00  0.00    +0.000 A 
ATOM      9  C   UNL     1       3.014   3.555  18.457  0.00  0.00    +0.000 A 
ATOM     10  N   UNL     1       2.841   4.883  18.582  0.00  0.00    +0.000 NA
ATOM     11  C   UNL     1       3.534   5.725  17.804  0.00  0.00    +0.000 A 
ATOM     12  N   UNL     1       3.359   7.098  17.934  0.00  0.00    +0.000 N 
ATOM     13  N   UNL     1       4.429   5.312  16.897  0.00  0.00    +0.000 NA
ATOM     14  H   UNL     1       4.006   7.607  17.351  0.00  0.00    +0.000 HD
BRANCH   9  15
ATOM     15  C   UNL     1       2.153   2.662  19.315  0.00  0.00    +0.000 C 
ATOM     16  C   UNL     1       0.995   3.210  20.114  0.00  0.00    +0.000 C 
ATOM     17  C   UNL     1       0.727   2.381  18.895  0.00  0.00    +0.000 C 
ENDBRANCH   9  15
ENDBRANCH   1  12
BRANCH   4  18
ATOM     18  C   UNL     1      -0.419  10.310  20.842  0.00  0.00    +0.000 C 
ATOM     19  C   UNL     1      -0.312  11.800  20.423  0.00  0.00    +0.000 C 
ATOM     20  N   UNL     1      -1.213  12.682  21.197  0.00  0.00    +0.000 NA
ATOM     21  C   UNL     1      -0.957  12.449  22.631  0.00  0.00    +0.000 C 
ATOM     22  C   UNL     1      -1.091  10.968  23.011  0.00  0.00    +0.000 C 
ATOM     23  O   UNL     1      -0.189  10.154  22.253  0.00  0.00    +0.000 OA
ATOM     24  H   UNL     1      -2.176  12.418  20.992  0.00  0.00    +0.000 HD
ENDBRANCH   4  18
TORSDOF 3
ENDMDL
