MODEL 1
REMARK VINA RESULT:      -8.6      0.000      0.000
REMARK  Name = 
REMARK  9 active torsions:
REMARK  status: ('A' for Active; 'I' for Inactive)
REMARK    1  A    between atoms: C_1  and  O_2
REMARK    2  A    between atoms: O_2  and  C_3
REMARK    3  A    between atoms: C_6  and  O_7
REMARK    4  A    between atoms: O_7  and  C_8
REMARK    5  A    between atoms: C_8  and  C_9
REMARK    6  A    between atoms: C_9  and  O_10
REMARK    7  A    between atoms: O_10  and  C_11
REMARK    8  A    between atoms: C_18  and  C_19
REMARK    9  A    between atoms: C_18  and  C_20
REMARK                            x       y       z     vdW  Elec       q    Type
REMARK                         _______ _______ _______ _____ _____    ______ ____
ROOT
ATOM      1  C   UNL     1       6.377   6.261  16.710  0.00  0.00    +0.000 A 
ATOM      2  C   UNL     1       6.411   5.254  15.724  0.00  0.00    +0.000 A 
ATOM      3  C   UNL     1       5.604   4.125  15.837  0.00  0.00    +0.000 A 
ATOM      4  C   UNL     1       4.792   4.070  16.947  0.00  0.00    +0.000 A 
ATOM      5  C   UNL     1       4.516   5.170  17.755  0.00  0.00    +0.000 A 
ATOM      6  C   UNL     1       5.356   6.274  17.680  0.00  0.00    +0.000 A 
ATOM      7  C   UNL     1       3.657   4.705  18.876  0.00  0.00    +0.000 C 
ATOM      8  C   UNL     1       2.292   4.629  18.858  0.00  0.00    +0.000 C 
ATOM      9  C   UNL     1       1.537   4.421  20.153  0.00  0.00    +0.000 C 
ATOM     10  C   UNL     1       1.508   4.119  17.657  0.00  0.00    +0.000 C 
ATOM     11  C   UNL     1       4.038   3.223  18.917  0.00  0.00    +0.000 C 
ATOM     12  O   UNL     1       3.992   2.485  19.882  0.00  0.00    +0.000 OA
ATOM     13  N   UNL     1       4.446   2.906  17.626  0.00  0.00    +0.000 N 
ATOM     14  H   UNL     1       4.788   1.978  17.407  0.00  0.00    +0.000 HD
ENDROOT
BRANCH   1  15
ATOM     15  O   UNL     1       7.458   7.111  16.679  0.00  0.00    +0.000 OA
BRANCH  15  16
ATOM     16  C   UNL     1       7.867   7.652  17.941  0.00  0.00    +0.000 C 
BRANCH  16  17
ATOM     17  C   UNL     1       8.207   9.139  17.800  0.00  0.00    +0.000 C 
BRANCH  17  18
ATOM     18  O   UNL     1       8.732   9.674  19.022  0.00  0.00    +0.000 OA
BRANCH  18  22
ATOM     19  C   UNL     1      10.839  13.260  18.652  0.00  0.00    +0.000 A 
ATOM     20  C   UNL     1       9.779  12.934  17.806  0.00  0.00    +0.000 A 
ATOM     21  C   UNL     1       9.091  11.728  17.966  0.00  0.00    +0.000 A 
ATOM     22  C   UNL     1       9.484  10.813  18.945  0.00  0.00    +0.000 A 
ATOM     23  C   UNL     1      10.551  11.135  19.782  0.00  0.00    +0.000 A 
ATOM     24  C   UNL     1      11.223  12.354  19.639  0.00  0.00    +0.000 A 
BRANCH  19  26
ATOM     25  C   UNL     1      11.052  15.117  17.201  0.00  0.00    +0.000 C 
ATOM     26  O   UNL     1      11.444  14.461  18.403  0.00  0.00    +0.000 OA
ENDBRANCH  19  26
ENDBRANCH  18  22
ENDBRANCH  17  18
ENDBRANCH  16  17
ENDBRANCH  15  16
ENDBRANCH   1  15
TORSDOF 6
ENDMDL
MODEL 2
REMARK VINA RESULT:      -8.6      0.947      1.034
REMARK  Name = 
REMARK  9 active torsions:
REMARK  status: ('A' for Active; 'I' for Inactive)
REMARK    1  A    between atoms: C_1  and  O_2
REMARK    2  A    between atoms: O_2  and  C_3
REMARK    3  A    between atoms: C_6  and  O_7
REMARK    4  A    between atoms: O_7  and  C_8
REMARK    5  A    between atoms: C_8  and  C_9
REMARK    6  A    between atoms: C_9  and  O_10
REMARK    7  A    between atoms: O_10  and  C_11
REMARK    8  A    between atoms: C_18  and  C_19
REMARK    9  A    between atoms: C_18  and  C_20
REMARK                            x       y       z     vdW  Elec       q    Type
REMARK                         _______ _______ _______ _____ _____    ______ ____
ROOT
ATOM      1  C   UNL     1       5.641   6.442  16.731  0.00  0.00    +0.000 A 
ATOM      2  C   UNL     1       5.779   5.410  15.779  0.00  0.00    +0.000 A 
ATOM      3  C   UNL     1       5.185   4.169  15.990  0.00  0.00    +0.000 A 
ATOM      4  C   UNL     1       4.472   4.030  17.159  0.00  0.00    +0.000 A 
ATOM      5  C   UNL     1       4.069   5.104  17.949  0.00  0.00    +0.000 A 
ATOM      6  C   UNL     1       4.702   6.327  17.774  0.00  0.00    +0.000 A 
ATOM      7  C   UNL     1       3.381   4.552  19.146  0.00  0.00    +0.000 C 
ATOM      8  C   UNL     1       2.050   4.249  19.233  0.00  0.00    +0.000 C 
ATOM      9  C   UNL     1       1.433   3.976  20.588  0.00  0.00    +0.000 C 
ATOM     10  C   UNL     1       1.284   3.561  18.112  0.00  0.00    +0.000 C 
ATOM     11  C   UNL     1       4.011   3.159  19.208  0.00  0.00    +0.000 C 
ATOM     12  O   UNL     1       4.157   2.469  20.197  0.00  0.00    +0.000 OA
ATOM     13  N   UNL     1       4.377   2.856  17.900  0.00  0.00    +0.000 N 
ATOM     14  H   UNL     1       4.856   1.990  17.687  0.00  0.00    +0.000 HD
ENDROOT
BRANCH   1  15
ATOM     15  O   UNL     1       6.557   7.458  16.590  0.00  0.00    +0.000 OA
BRANCH  15  16
ATOM     16  C   UNL     1       7.575   7.529  17.596  0.00  0.00    +0.000 C 
BRANCH  16  17
ATOM     17  C   UNL     1       8.035   8.978  17.790  0.00  0.00    +0.000 C 
BRANCH  17  18
ATOM     18  O   UNL     1       8.883   9.108  18.939  0.00  0.00    +0.000 OA
BRANCH  18  22
ATOM     19  C   UNL     1      10.310  12.977  19.595  0.00  0.00    +0.000 A 
ATOM     20  C   UNL     1      10.199  12.437  18.314  0.00  0.00    +0.000 A 
ATOM     21  C   UNL     1       9.708  11.140  18.133  0.00  0.00    +0.000 A 
ATOM     22  C   UNL     1       9.365  10.353  19.233  0.00  0.00    +0.000 A 
ATOM     23  C   UNL     1       9.487  10.889  20.513  0.00  0.00    +0.000 A 
ATOM     24  C   UNL     1       9.955  12.197  20.694  0.00  0.00    +0.000 A 
BRANCH  19  26
ATOM     25  C   UNL     1      10.108  15.147  20.514  0.00  0.00    +0.000 C 
ATOM     26  O   UNL     1      10.806  14.250  19.657  0.00  0.00    +0.000 OA
ENDBRANCH  19  26
ENDBRANCH  18  22
ENDBRANCH  17  18
ENDBRANCH  16  17
ENDBRANCH  15  16
ENDBRANCH   1  15
TORSDOF 6
ENDMDL
MODEL 3
REMARK VINA RESULT:      -8.1      0.749      1.160
REMARK  Name = 
REMARK  9 active torsions:
REMARK  status: ('A' for Active; 'I' for Inactive)
REMARK    1  A    between atoms: C_1  and  O_2
REMARK    2  A    between atoms: O_2  and  C_3
REMARK    3  A    between atoms: C_6  and  O_7
REMARK    4  A    between atoms: O_7  and  C_8
REMARK    5  A    between atoms: C_8  and  C_9
REMARK    6  A    between atoms: C_9  and  O_10
REMARK    7  A    between atoms: O_10  and  C_11
REMARK    8  A    between atoms: C_18  and  C_19
REMARK    9  A    between atoms: C_18  and  C_20
REMARK                            x       y       z     vdW  Elec       q    Type
REMARK                         _______ _______ _______ _____ _____    ______ ____
ROOT
ATOM      1  C   UNL     1       6.586   6.293  16.920  0.00  0.00    +0.000 A 
ATOM      2  C   UNL     1       6.633   5.287  15.933  0.00  0.00    +0.000 A 
ATOM      3  C   UNL     1       5.800   4.175  16.016  0.00  0.00    +0.000 A 
ATOM      4  C   UNL     1       4.950   4.134  17.097  0.00  0.00    +0.000 A 
ATOM      5  C   UNL     1       4.669   5.238  17.898  0.00  0.00    +0.000 A 
ATOM      6  C   UNL     1       5.533   6.324  17.855  0.00  0.00    +0.000 A 
ATOM      7  C   UNL     1       3.763   4.787  18.988  0.00  0.00    +0.000 C 
ATOM      8  C   UNL     1       2.398   4.739  18.924  0.00  0.00    +0.000 C 
ATOM      9  C   UNL     1       1.596   4.543  20.192  0.00  0.00    +0.000 C 
ATOM     10  C   UNL     1       1.645   4.247  17.696  0.00  0.00    +0.000 C 
ATOM     11  C   UNL     1       4.114   3.298  19.038  0.00  0.00    +0.000 C 
ATOM     12  O   UNL     1       4.020   2.560  19.999  0.00  0.00    +0.000 OA
ATOM     13  N   UNL     1       4.558   2.976  17.761  0.00  0.00    +0.000 N 
ATOM     14  H   UNL     1       4.889   2.041  17.551  0.00  0.00    +0.000 HD
ENDROOT
BRANCH   1  15
ATOM     15  O   UNL     1       7.684   7.121  16.927  0.00  0.00    +0.000 OA
BRANCH  15  16
ATOM     16  C   UNL     1       7.468   8.445  17.431  0.00  0.00    +0.000 C 
BRANCH  16  17
ATOM     17  C   UNL     1       8.607   8.851  18.372  0.00  0.00    +0.000 C 
BRANCH  17  18
ATOM     18  O   UNL     1       8.426  10.185  18.867  0.00  0.00    +0.000 OA
BRANCH  18  22
ATOM     19  C   UNL     1      11.273  12.943  17.553  0.00  0.00    +0.000 A 
ATOM     20  C   UNL     1      11.631  11.768  18.213  0.00  0.00    +0.000 A 
ATOM     21  C   UNL     1      10.650  10.864  18.631  0.00  0.00    +0.000 A 
ATOM     22  C   UNL     1       9.297  11.145  18.433  0.00  0.00    +0.000 A 
ATOM     23  C   UNL     1       8.939  12.325  17.783  0.00  0.00    +0.000 A 
ATOM     24  C   UNL     1       9.923  13.219  17.343  0.00  0.00    +0.000 A 
BRANCH  19  26
ATOM     25  C   UNL     1      12.333  15.042  17.809  0.00  0.00    +0.000 C 
ATOM     26  O   UNL     1      12.311  13.758  17.194  0.00  0.00    +0.000 OA
ENDBRANCH  19  26
ENDBRANCH  18  22
ENDBRANCH  17  18
ENDBRANCH  16  17
ENDBRANCH  15  16
ENDBRANCH   1  15
TORSDOF 6
ENDMDL
MODEL 4
REMARK VINA RESULT:      -8.1      1.248      1.664
REMARK  Name = 
REMARK  9 active torsions:
REMARK  status: ('A' for Active; 'I' for Inactive)
REMARK    1  A    between atoms: C_1  and  O_2
REMARK    2  A    between atoms: O_2  and  C_3
REMARK    3  A    between atoms: C_6  and  O_7
REMARK    4  A    between atoms: O_7  and  C_8
REMARK    5  A    between atoms: C_8  and  C_9
REMARK    6  A    between atoms: C_9  and  O_10
REMARK    7  A    between atoms: O_10  and  C_11
REMARK    8  A    between atoms: C_18  and  C_19
REMARK    9  A    between atoms: C_18  and  C_20
REMARK                            x       y       z     vdW  Elec       q    Type
REMARK                         _______ _______ _______ _____ _____    ______ ____
ROOT
ATOM      1  C   UNL     1       5.237   6.269  17.408  0.00  0.00    +0.000 A 
ATOM      2  C   UNL     1       5.438   5.334  16.371  0.00  0.00    +0.000 A 
ATOM      3  C   UNL     1       5.009   4.018  16.513  0.00  0.00    +0.000 A 
ATOM      4  C   UNL     1       4.388   3.708  17.701  0.00  0.00    +0.000 A 
ATOM      5  C   UNL     1       3.910   4.664  18.593  0.00  0.00    +0.000 A 
ATOM      6  C   UNL     1       4.382   5.965  18.485  0.00  0.00    +0.000 A 
ATOM      7  C   UNL     1       3.364   3.947  19.776  0.00  0.00    +0.000 C 
ATOM      8  C   UNL     1       2.087   3.477  19.907  0.00  0.00    +0.000 C 
ATOM      9  C   UNL     1       1.588   3.034  21.265  0.00  0.00    +0.000 C 
ATOM     10  C   UNL     1       1.341   2.784  18.775  0.00  0.00    +0.000 C 
ATOM     11  C   UNL     1       4.157   2.640  19.695  0.00  0.00    +0.000 C 
ATOM     12  O   UNL     1       4.442   1.903  20.618  0.00  0.00    +0.000 OA
ATOM     13  N   UNL     1       4.477   2.480  18.351  0.00  0.00    +0.000 N 
ATOM     14  H   UNL     1       5.041   1.696  18.046  0.00  0.00    +0.000 HD
ENDROOT
BRANCH   1  15
ATOM     15  O   UNL     1       6.016   7.397  17.302  0.00  0.00    +0.000 OA
BRANCH  15  16
ATOM     16  C   UNL     1       7.427   7.177  17.179  0.00  0.00    +0.000 C 
BRANCH  16  17
ATOM     17  C   UNL     1       8.200   8.149  18.075  0.00  0.00    +0.000 C 
BRANCH  17  18
ATOM     18  O   UNL     1       7.873   9.512  17.773  0.00  0.00    +0.000 OA
BRANCH  18  22
ATOM     19  C   UNL     1      10.354  12.319  19.616  0.00  0.00    +0.000 A 
ATOM     20  C   UNL     1      10.024  11.110  20.228  0.00  0.00    +0.000 A 
ATOM     21  C   UNL     1       9.197  10.191  19.576  0.00  0.00    +0.000 A 
ATOM     22  C   UNL     1       8.655  10.489  18.324  0.00  0.00    +0.000 A 
ATOM     23  C   UNL     1       8.977  11.702  17.719  0.00  0.00    +0.000 A 
ATOM     24  C   UNL     1       9.826  12.612  18.360  0.00  0.00    +0.000 A 
BRANCH  19  26
ATOM     25  C   UNL     1      11.991  14.027  19.591  0.00  0.00    +0.000 C 
ATOM     26  O   UNL     1      11.165  13.146  20.344  0.00  0.00    +0.000 OA
ENDBRANCH  19  26
ENDBRANCH  18  22
ENDBRANCH  17  18
ENDBRANCH  16  17
ENDBRANCH  15  16
ENDBRANCH   1  15
TORSDOF 6
ENDMDL
MODEL 5
REMARK VINA RESULT:      -8.0      4.687      7.572
REMARK  Name = 
REMARK  9 active torsions:
REMARK  status: ('A' for Active; 'I' for Inactive)
REMARK    1  A    between atoms: C_1  and  O_2
REMARK    2  A    between atoms: O_2  and  C_3
REMARK    3  A    between atoms: C_6  and  O_7
REMARK    4  A    between atoms: O_7  and  C_8
REMARK    5  A    between atoms: C_8  and  C_9
REMARK    6  A    between atoms: C_9  and  O_10
REMARK    7  A    between atoms: O_10  and  C_11
REMARK    8  A    between atoms: C_18  and  C_19
REMARK    9  A    between atoms: C_18  and  C_20
REMARK                            x       y       z     vdW  Elec       q    Type
REMARK                         _______ _______ _______ _____ _____    ______ ____
ROOT
ATOM      1  C   UNL     1       2.140   7.060  19.835  0.00  0.00    +0.000 A 
ATOM      2  C   UNL     1       2.552   7.333  18.513  0.00  0.00    +0.000 A 
ATOM      3  C   UNL     1       2.128   8.489  17.865  0.00  0.00    +0.000 A 
ATOM      4  C   UNL     1       1.306   9.323  18.589  0.00  0.00    +0.000 A 
ATOM      5  C   UNL     1       1.142   9.236  19.968  0.00  0.00    +0.000 A 
ATOM      6  C   UNL     1       1.514   8.059  20.606  0.00  0.00    +0.000 A 
ATOM      7  C   UNL     1       0.140  10.258  20.371  0.00  0.00    +0.000 C 
ATOM      8  C   UNL     1       0.410  11.560  20.689  0.00  0.00    +0.000 C 
ATOM      9  C   UNL     1      -0.652  12.403  21.359  0.00  0.00    +0.000 C 
ATOM     10  C   UNL     1       1.401  12.412  19.908  0.00  0.00    +0.000 C 
ATOM     11  C   UNL     1      -0.627  10.423  19.057  0.00  0.00    +0.000 C 
ATOM     12  O   UNL     1      -1.784  10.773  18.928  0.00  0.00    +0.000 OA
ATOM     13  N   UNL     1       0.275  10.089  18.053  0.00  0.00    +0.000 N 
ATOM     14  H   UNL     1      -0.013  10.084  17.082  0.00  0.00    +0.000 HD
ENDROOT
BRANCH   1  15
ATOM     15  O   UNL     1       2.312   5.750  20.214  0.00  0.00    +0.000 OA
BRANCH  15  16
ATOM     16  C   UNL     1       2.186   4.773  19.174  0.00  0.00    +0.000 C 
BRANCH  16  17
ATOM     17  C   UNL     1       3.217   3.656  19.361  0.00  0.00    +0.000 C 
BRANCH  17  18
ATOM     18  O   UNL     1       3.946   3.409  18.151  0.00  0.00    +0.000 OA
BRANCH  18  22
ATOM     19  C   UNL     1       6.813   6.231  17.034  0.00  0.00    +0.000 A 
ATOM     20  C   UNL     1       6.931   5.481  18.204  0.00  0.00    +0.000 A 
ATOM     21  C   UNL     1       5.954   4.539  18.541  0.00  0.00    +0.000 A 
ATOM     22  C   UNL     1       4.827   4.367  17.735  0.00  0.00    +0.000 A 
ATOM     23  C   UNL     1       4.706   5.124  16.571  0.00  0.00    +0.000 A 
ATOM     24  C   UNL     1       5.696   6.050  16.220  0.00  0.00    +0.000 A 
BRANCH  19  26
ATOM     25  C   UNL     1       7.814   8.292  17.623  0.00  0.00    +0.000 C 
ATOM     26  O   UNL     1       7.821   7.127  16.804  0.00  0.00    +0.000 OA
ENDBRANCH  19  26
ENDBRANCH  18  22
ENDBRANCH  17  18
ENDBRANCH  16  17
ENDBRANCH  15  16
ENDBRANCH   1  15
TORSDOF 6
ENDMDL
MODEL 6
REMARK VINA RESULT:      -8.0      5.477      7.995
REMARK  Name = 
REMARK  9 active torsions:
REMARK  status: ('A' for Active; 'I' for Inactive)
REMARK    1  A    between atoms: C_1  and  O_2
REMARK    2  A    between atoms: O_2  and  C_3
REMARK    3  A    between atoms: C_6  and  O_7
REMARK    4  A    between atoms: O_7  and  C_8
REMARK    5  A    between atoms: C_8  and  C_9
REMARK    6  A    between atoms: C_9  and  O_10
REMARK    7  A    between atoms: O_10  and  C_11
REMARK    8  A    between atoms: C_18  and  C_19
REMARK    9  A    between atoms: C_18  and  C_20
REMARK                            x       y       z     vdW  Elec       q    Type
REMARK                         _______ _______ _______ _____ _____    ______ ____
ROOT
ATOM      1  C   UNL     1       2.250   7.132  19.769  0.00  0.00    +0.000 A 
ATOM      2  C   UNL     1       2.690   7.362  18.448  0.00  0.00    +0.000 A 
ATOM      3  C   UNL     1       2.226   8.461  17.730  0.00  0.00    +0.000 A 
ATOM      4  C   UNL     1       1.337   9.282  18.386  0.00  0.00    +0.000 A 
ATOM      5  C   UNL     1       1.132   9.252  19.763  0.00  0.00    +0.000 A 
ATOM      6  C   UNL     1       1.546   8.131  20.469  0.00  0.00    +0.000 A 
ATOM      7  C   UNL     1       0.064  10.236  20.083  0.00  0.00    +0.000 C 
ATOM      8  C   UNL     1       0.253  11.565  20.342  0.00  0.00    +0.000 C 
ATOM      9  C   UNL     1      -0.875  12.379  20.937  0.00  0.00    +0.000 C 
ATOM     10  C   UNL     1       1.222  12.432  19.550  0.00  0.00    +0.000 C 
ATOM     11  C   UNL     1      -0.667  10.295  18.739  0.00  0.00    +0.000 C 
ATOM     12  O   UNL     1      -1.836  10.573  18.558  0.00  0.00    +0.000 OA
ATOM     13  N   UNL     1       0.285   9.962  17.781  0.00  0.00    +0.000 N 
ATOM     14  H   UNL     1       0.029   9.895  16.803  0.00  0.00    +0.000 HD
ENDROOT
BRANCH   1  15
ATOM     15  O   UNL     1       2.480   5.853  20.219  0.00  0.00    +0.000 OA
BRANCH  15  16
ATOM     16  C   UNL     1       1.712   4.819  19.591  0.00  0.00    +0.000 C 
BRANCH  16  17
ATOM     17  C   UNL     1       2.638   3.791  18.932  0.00  0.00    +0.000 C 
BRANCH  17  18
ATOM     18  O   UNL     1       3.985   3.920  19.407  0.00  0.00    +0.000 OA
BRANCH  18  22
ATOM     19  C   UNL     1       6.787   4.683  16.407  0.00  0.00    +0.000 A 
ATOM     20  C   UNL     1       5.582   4.031  16.145  0.00  0.00    +0.000 A 
ATOM     21  C   UNL     1       4.664   3.801  17.174  0.00  0.00    +0.000 A 
ATOM     22  C   UNL     1       4.960   4.180  18.485  0.00  0.00    +0.000 A 
ATOM     23  C   UNL     1       6.169   4.821  18.748  0.00  0.00    +0.000 A 
ATOM     24  C   UNL     1       7.078   5.074  17.713  0.00  0.00    +0.000 A 
BRANCH  19  26
ATOM     25  C   UNL     1       6.983   4.813  14.054  0.00  0.00    +0.000 C 
ATOM     26  O   UNL     1       7.613   4.851  15.330  0.00  0.00    +0.000 OA
ENDBRANCH  19  26
ENDBRANCH  18  22
ENDBRANCH  17  18
ENDBRANCH  16  17
ENDBRANCH  15  16
ENDBRANCH   1  15
TORSDOF 6
ENDMDL
MODEL 7
REMARK VINA RESULT:      -7.9      1.241      1.621
REMARK  Name = 
REMARK  9 active torsions:
REMARK  status: ('A' for Active; 'I' for Inactive)
REMARK    1  A    between atoms: C_1  and  O_2
REMARK    2  A    between atoms: O_2  and  C_3
REMARK    3  A    between atoms: C_6  and  O_7
REMARK    4  A    between atoms: O_7  and  C_8
REMARK    5  A    between atoms: C_8  and  C_9
REMARK    6  A    between atoms: C_9  and  O_10
REMARK    7  A    between atoms: O_10  and  C_11
REMARK    8  A    between atoms: C_18  and  C_19
REMARK    9  A    between atoms: C_18  and  C_20
REMARK                            x       y       z     vdW  Elec       q    Type
REMARK                         _______ _______ _______ _____ _____    ______ ____
ROOT
ATOM      1  C   UNL     1       6.591   6.845  17.142  0.00  0.00    +0.000 A 
ATOM      2  C   UNL     1       7.513   5.781  17.228  0.00  0.00    +0.000 A 
ATOM      3  C   UNL     1       7.102   4.523  17.658  0.00  0.00    +0.000 A 
ATOM      4  C   UNL     1       5.770   4.397  17.979  0.00  0.00    +0.000 A 
ATOM      5  C   UNL     1       4.799   5.325  17.614  0.00  0.00    +0.000 A 
ATOM      6  C   UNL     1       5.208   6.598  17.238  0.00  0.00    +0.000 A 
ATOM      7  C   UNL     1       3.503   4.875  18.188  0.00  0.00    +0.000 C 
ATOM      8  C   UNL     1       2.620   4.018  17.592  0.00  0.00    +0.000 C 
ATOM      9  C   UNL     1       1.221   3.878  18.151  0.00  0.00    +0.000 C 
ATOM     10  C   UNL     1       3.059   2.767  16.844  0.00  0.00    +0.000 C 
ATOM     11  C   UNL     1       4.002   4.025  19.359  0.00  0.00    +0.000 C 
ATOM     12  O   UNL     1       3.412   3.794  20.396  0.00  0.00    +0.000 OA
ATOM     13  N   UNL     1       5.265   3.579  18.985  0.00  0.00    +0.000 N 
ATOM     14  H   UNL     1       5.824   3.021  19.619  0.00  0.00    +0.000 HD
ENDROOT
BRANCH   1  15
ATOM     15  O   UNL     1       7.176   8.087  17.070  0.00  0.00    +0.000 OA
BRANCH  15  16
ATOM     16  C   UNL     1       8.141   8.386  18.086  0.00  0.00    +0.000 C 
BRANCH  16  17
ATOM     17  C   UNL     1       8.511   9.873  18.051  0.00  0.00    +0.000 C 
BRANCH  17  18
ATOM     18  O   UNL     1       9.529  10.181  19.013  0.00  0.00    +0.000 OA
BRANCH  18  22
ATOM     19  C   UNL     1      11.628  13.787  18.855  0.00  0.00    +0.000 A 
ATOM     20  C   UNL     1      11.502  13.056  20.036  0.00  0.00    +0.000 A 
ATOM     21  C   UNL     1      10.798  11.848  20.048  0.00  0.00    +0.000 A 
ATOM     22  C   UNL     1      10.176  11.379  18.890  0.00  0.00    +0.000 A 
ATOM     23  C   UNL     1      10.293  12.116  17.713  0.00  0.00    +0.000 A 
ATOM     24  C   UNL     1      11.019  13.313  17.694  0.00  0.00    +0.000 A 
BRANCH  19  26
ATOM     25  C   UNL     1      11.630  16.137  18.583  0.00  0.00    +0.000 C 
ATOM     26  O   UNL     1      12.331  14.956  18.957  0.00  0.00    +0.000 OA
ENDBRANCH  19  26
ENDBRANCH  18  22
ENDBRANCH  17  18
ENDBRANCH  16  17
ENDBRANCH  15  16
ENDBRANCH   1  15
TORSDOF 6
ENDMDL
MODEL 8
REMARK VINA RESULT:      -7.9      1.080      1.148
REMARK  Name = 
REMARK  9 active torsions:
REMARK  status: ('A' for Active; 'I' for Inactive)
REMARK    1  A    between atoms: C_1  and  O_2
REMARK    2  A    between atoms: O_2  and  C_3
REMARK    3  A    between atoms: C_6  and  O_7
REMARK    4  A    between atoms: O_7  and  C_8
REMARK    5  A    between atoms: C_8  and  C_9
REMARK    6  A    between atoms: C_9  and  O_10
REMARK    7  A    between atoms: O_10  and  C_11
REMARK    8  A    between atoms: C_18  and  C_19
REMARK    9  A    between atoms: C_18  and  C_20
REMARK                            x       y       z     vdW  Elec       q    Type
REMARK                         _______ _______ _______ _____ _____    ______ ____
ROOT
ATOM      1  C   UNL     1       6.269   6.795  17.248  0.00  0.00    +0.000 A 
ATOM      2  C   UNL     1       7.220   5.766  17.084  0.00  0.00    +0.000 A 
ATOM      3  C   UNL     1       6.900   4.451  17.408  0.00  0.00    +0.000 A 
ATOM      4  C   UNL     1       5.626   4.235  17.881  0.00  0.00    +0.000 A 
ATOM      5  C   UNL     1       4.593   5.160  17.760  0.00  0.00    +0.000 A 
ATOM      6  C   UNL     1       4.917   6.484  17.493  0.00  0.00    +0.000 A 
ATOM      7  C   UNL     1       3.397   4.594  18.439  0.00  0.00    +0.000 C 
ATOM      8  C   UNL     1       2.463   3.778  17.863  0.00  0.00    +0.000 C 
ATOM      9  C   UNL     1       1.155   3.518  18.577  0.00  0.00    +0.000 C 
ATOM     10  C   UNL     1       2.829   2.642  16.918  0.00  0.00    +0.000 C 
ATOM     11  C   UNL     1       4.068   3.634  19.423  0.00  0.00    +0.000 C 
ATOM     12  O   UNL     1       3.627   3.260  20.492  0.00  0.00    +0.000 OA
ATOM     13  N   UNL     1       5.280   3.285  18.837  0.00  0.00    +0.000 N 
ATOM     14  H   UNL     1       5.931   2.679  19.321  0.00  0.00    +0.000 HD
ENDROOT
BRANCH   1  15
ATOM     15  O   UNL     1       6.809   8.060  17.252  0.00  0.00    +0.000 OA
BRANCH  15  16
ATOM     16  C   UNL     1       8.025   8.220  17.994  0.00  0.00    +0.000 C 
BRANCH  16  17
ATOM     17  C   UNL     1       8.562   9.646  17.837  0.00  0.00    +0.000 C 
BRANCH  17  18
ATOM     18  O   UNL     1       9.072  10.153  19.078  0.00  0.00    +0.000 OA
BRANCH  18  22
ATOM     19  C   UNL     1      11.573  13.479  18.738  0.00  0.00    +0.000 A 
ATOM     20  C   UNL     1      10.638  13.154  17.756  0.00  0.00    +0.000 A 
ATOM     21  C   UNL     1       9.811  12.036  17.909  0.00  0.00    +0.000 A 
ATOM     22  C   UNL     1       9.941  11.207  19.024  0.00  0.00    +0.000 A 
ATOM     23  C   UNL     1      10.884  11.527  20.000  0.00  0.00    +0.000 A 
ATOM     24  C   UNL     1      11.694  12.659  19.859  0.00  0.00    +0.000 A 
BRANCH  19  26
ATOM     25  C   UNL     1      11.685  15.841  18.678  0.00  0.00    +0.000 C 
ATOM     26  O   UNL     1      12.333  14.588  18.485  0.00  0.00    +0.000 OA
ENDBRANCH  19  26
ENDBRANCH  18  22
ENDBRANCH  17  18
ENDBRANCH  16  17
ENDBRANCH  15  16
ENDBRANCH   1  15
TORSDOF 6
ENDMDL
MODEL 9
REMARK VINA RESULT:      -7.9      5.533      7.911
REMARK  Name = 
REMARK  9 active torsions:
REMARK  status: ('A' for Active; 'I' for Inactive)
REMARK    1  A    between atoms: C_1  and  O_2
REMARK    2  A    between atoms: O_2  and  C_3
REMARK    3  A    between atoms: C_6  and  O_7
REMARK    4  A    between atoms: O_7  and  C_8
REMARK    5  A    between atoms: C_8  and  C_9
REMARK    6  A    between atoms: C_9  and  O_10
REMARK    7  A    between atoms: O_10  and  C_11
REMARK    8  A    between atoms: C_18  and  C_19
REMARK    9  A    between atoms: C_18  and  C_20
REMARK                            x       y       z     vdW  Elec       q    Type
REMARK                         _______ _______ _______ _____ _____    ______ ____
ROOT
ATOM      1  C   UNL     1       2.177   7.024  19.768  0.00  0.00    +0.000 A 
ATOM      2  C   UNL     1       2.612   7.319  18.460  0.00  0.00    +0.000 A 
ATOM      3  C   UNL     1       2.206   8.491  17.826  0.00  0.00    +0.000 A 
ATOM      4  C   UNL     1       1.379   9.316  18.552  0.00  0.00    +0.000 A 
ATOM      5  C   UNL     1       1.191   9.204  19.927  0.00  0.00    +0.000 A 
ATOM      6  C   UNL     1       1.545   8.013  20.548  0.00  0.00    +0.000 A 
ATOM      7  C   UNL     1       0.190  10.225  20.333  0.00  0.00    +0.000 C 
ATOM      8  C   UNL     1       0.463  11.519  20.680  0.00  0.00    +0.000 C 
ATOM      9  C   UNL     1      -0.605  12.357  21.348  0.00  0.00    +0.000 C 
ATOM     10  C   UNL     1       1.472  12.379  19.931  0.00  0.00    +0.000 C 
ATOM     11  C   UNL     1      -0.555  10.421  19.010  0.00  0.00    +0.000 C 
ATOM     12  O   UNL     1      -1.707  10.781  18.869  0.00  0.00    +0.000 OA
ATOM     13  N   UNL     1       0.361  10.099  18.015  0.00  0.00    +0.000 N 
ATOM     14  H   UNL     1       0.089  10.115  17.039  0.00  0.00    +0.000 HD
ENDROOT
BRANCH   1  15
ATOM     15  O   UNL     1       2.334   5.706  20.126  0.00  0.00    +0.000 OA
BRANCH  15  16
ATOM     16  C   UNL     1       2.105   4.743  19.090  0.00  0.00    +0.000 C 
BRANCH  16  17
ATOM     17  C   UNL     1       3.232   3.706  19.066  0.00  0.00    +0.000 C 
BRANCH  17  18
ATOM     18  O   UNL     1       4.518   4.327  19.196  0.00  0.00    +0.000 OA
BRANCH  18  22
ATOM     19  C   UNL     1       6.824   5.086  15.799  0.00  0.00    +0.000 A 
ATOM     20  C   UNL     1       7.401   4.834  17.043  0.00  0.00    +0.000 A 
ATOM     21  C   UNL     1       6.596   4.576  18.157  0.00  0.00    +0.000 A 
ATOM     22  C   UNL     1       5.205   4.610  18.049  0.00  0.00    +0.000 A 
ATOM     23  C   UNL     1       4.629   4.872  16.807  0.00  0.00    +0.000 A 
ATOM     24  C   UNL     1       5.435   5.106  15.686  0.00  0.00    +0.000 A 
BRANCH  19  26
ATOM     25  C   UNL     1       7.317   4.848  13.498  0.00  0.00    +0.000 C 
ATOM     26  O   UNL     1       7.703   5.331  14.780  0.00  0.00    +0.000 OA
ENDBRANCH  19  26
ENDBRANCH  18  22
ENDBRANCH  17  18
ENDBRANCH  16  17
ENDBRANCH  15  16
ENDBRANCH   1  15
TORSDOF 6
ENDMDL
