MODEL 1
REMARK VINA RESULT:      -5.6      0.000      0.000
REMARK  Name = 
REMARK  5 active torsions:
REMARK  status: ('A' for Active; 'I' for Inactive)
REMARK    1  A    between atoms: C_1  and  C_2
REMARK    2  A    between atoms: C_2  and  C_3
REMARK    3  A    between atoms: C_3  and  C_4
REMARK    4  A    between atoms: C_6  and  C_7
REMARK    5  A    between atoms: C_7  and  O_9
REMARK                            x       y       z     vdW  Elec       q    Type
REMARK                         _______ _______ _______ _____ _____    ______ ____
ROOT
ATOM      1  C   UNL     1       6.734   4.375  13.911  0.00  0.00    +0.000 A 
ATOM      2  C   UNL     1       6.013   3.925  14.995  0.00  0.00    +0.000 A 
ATOM      3  C   UNL     1       6.423   4.728  16.084  0.00  0.00    +0.000 A 
ATOM      4  N   UNL     1       7.366   5.620  15.710  0.00  0.00    +0.000 NA
ATOM      5  N   UNL     1       7.533   5.376  14.393  0.00  0.00    +0.000 N 
ATOM      6  H   UNL     1       8.209   5.935  13.881  0.00  0.00    +0.000 HD
ENDROOT
BRANCH   3   7
ATOM      7  C   UNL     1       5.941   4.672  17.467  0.00  0.00    +0.000 C 
ATOM      8  O   UNL     1       4.847   5.073  17.837  0.00  0.00    +0.000 OA
BRANCH   7   9
ATOM      9  O   UNL     1       6.854   4.121  18.316  0.00  0.00    +0.000 OA
ATOM     10  H   UNL     1       6.353   3.475  18.870  0.00  0.00    +0.000 HD
ENDBRANCH   7   9
ENDBRANCH   3   7
BRANCH   1  11
ATOM     11  C   UNL     1       6.741   3.939  12.484  0.00  0.00    +0.000 C 
BRANCH  11  13
ATOM     12  C   UNL     1       5.724   1.888  11.411  0.00  0.00    +0.000 C 
ATOM     13  C   UNL     1       5.448   3.208  12.116  0.00  0.00    +0.000 C 
ENDBRANCH  11  13
ENDBRANCH   1  11
TORSDOF 4
ENDMDL
MODEL 2
REMARK VINA RESULT:      -5.6      0.512      1.159
REMARK  Name = 
REMARK  5 active torsions:
REMARK  status: ('A' for Active; 'I' for Inactive)
REMARK    1  A    between atoms: C_1  and  C_2
REMARK    2  A    between atoms: C_2  and  C_3
REMARK    3  A    between atoms: C_3  and  C_4
REMARK    4  A    between atoms: C_6  and  C_7
REMARK    5  A    between atoms: C_7  and  O_9
REMARK                            x       y       z     vdW  Elec       q    Type
REMARK                         _______ _______ _______ _____ _____    ______ ____
ROOT
ATOM      1  C   UNL     1       6.795   4.364  13.709  0.00  0.00    +0.000 A 
ATOM      2  C   UNL     1       6.186   3.860  14.837  0.00  0.00    +0.000 A 
ATOM      3  C   UNL     1       6.670   4.642  15.911  0.00  0.00    +0.000 A 
ATOM      4  N   UNL     1       7.551   5.573  15.484  0.00  0.00    +0.000 NA
ATOM      5  N   UNL     1       7.605   5.374  14.150  0.00  0.00    +0.000 N 
ATOM      6  H   UNL     1       8.218   5.968  13.599  0.00  0.00    +0.000 HD
ENDROOT
BRANCH   3   7
ATOM      7  C   UNL     1       6.316   4.529  17.328  0.00  0.00    +0.000 C 
ATOM      8  O   UNL     1       7.125   4.416  18.238  0.00  0.00    +0.000 OA
BRANCH   7   9
ATOM      9  O   UNL     1       4.969   4.560  17.535  0.00  0.00    +0.000 OA
ATOM     10  H   UNL     1       4.826   4.205  18.444  0.00  0.00    +0.000 HD
ENDBRANCH   7   9
ENDBRANCH   3   7
BRANCH   1  11
ATOM     11  C   UNL     1       6.686   3.972  12.274  0.00  0.00    +0.000 C 
BRANCH  11  13
ATOM     12  C   UNL     1       4.378   3.312  11.477  0.00  0.00    +0.000 C 
ATOM     13  C   UNL     1       5.688   2.827  12.080  0.00  0.00    +0.000 C 
ENDBRANCH  11  13
ENDBRANCH   1  11
TORSDOF 4
ENDMDL
MODEL 3
REMARK VINA RESULT:      -5.4      3.768      5.373
REMARK  Name = 
REMARK  5 active torsions:
REMARK  status: ('A' for Active; 'I' for Inactive)
REMARK    1  A    between atoms: C_1  and  C_2
REMARK    2  A    between atoms: C_2  and  C_3
REMARK    3  A    between atoms: C_3  and  C_4
REMARK    4  A    between atoms: C_6  and  C_7
REMARK    5  A    between atoms: C_7  and  O_9
REMARK                            x       y       z     vdW  Elec       q    Type
REMARK                         _______ _______ _______ _____ _____    ______ ____
ROOT
ATOM      1  C   UNL     1       3.808   4.414  18.079  0.00  0.00    +0.000 A 
ATOM      2  C   UNL     1       4.704   4.513  17.037  0.00  0.00    +0.000 A 
ATOM      3  C   UNL     1       5.985   4.491  17.635  0.00  0.00    +0.000 A 
ATOM      4  N   UNL     1       5.899   4.405  18.980  0.00  0.00    +0.000 NA
ATOM      5  N   UNL     1       4.570   4.364  19.214  0.00  0.00    +0.000 N 
ATOM      6  H   UNL     1       4.252   4.299  20.176  0.00  0.00    +0.000 HD
ENDROOT
BRANCH   3   7
ATOM      7  C   UNL     1       7.285   4.548  16.962  0.00  0.00    +0.000 C 
ATOM      8  O   UNL     1       7.466   4.996  15.839  0.00  0.00    +0.000 OA
BRANCH   7   9
ATOM      9  O   UNL     1       8.292   4.038  17.726  0.00  0.00    +0.000 OA
ATOM     10  H   UNL     1       8.837   4.811  18.008  0.00  0.00    +0.000 HD
ENDBRANCH   7   9
ENDBRANCH   3   7
BRANCH   1  11
ATOM     11  C   UNL     1       2.317   4.374  18.093  0.00  0.00    +0.000 C 
BRANCH  11  13
ATOM     12  C   UNL     1       0.974   3.409  20.005  0.00  0.00    +0.000 C 
ATOM     13  C   UNL     1       1.763   4.607  19.500  0.00  0.00    +0.000 C 
ENDBRANCH  11  13
ENDBRANCH   1  11
TORSDOF 4
ENDMDL
MODEL 4
REMARK VINA RESULT:      -5.4      0.955      1.445
REMARK  Name = 
REMARK  5 active torsions:
REMARK  status: ('A' for Active; 'I' for Inactive)
REMARK    1  A    between atoms: C_1  and  C_2
REMARK    2  A    between atoms: C_2  and  C_3
REMARK    3  A    between atoms: C_3  and  C_4
REMARK    4  A    between atoms: C_6  and  C_7
REMARK    5  A    between atoms: C_7  and  O_9
REMARK                            x       y       z     vdW  Elec       q    Type
REMARK                         _______ _______ _______ _____ _____    ______ ____
ROOT
ATOM      1  C   UNL     1       6.086   4.274  14.285  0.00  0.00    +0.000 A 
ATOM      2  C   UNL     1       6.184   3.728  15.546  0.00  0.00    +0.000 A 
ATOM      3  C   UNL     1       7.057   4.579  16.262  0.00  0.00    +0.000 A 
ATOM      4  N   UNL     1       7.500   5.592  15.487  0.00  0.00    +0.000 NA
ATOM      5  N   UNL     1       6.897   5.376  14.299  0.00  0.00    +0.000 N 
ATOM      6  H   UNL     1       7.082   6.023  13.539  0.00  0.00    +0.000 HD
ENDROOT
BRANCH   3   7
ATOM      7  C   UNL     1       7.479   4.455  17.659  0.00  0.00    +0.000 C 
ATOM      8  O   UNL     1       8.598   4.119  18.019  0.00  0.00    +0.000 OA
BRANCH   7   9
ATOM      9  O   UNL     1       6.478   4.753  18.536  0.00  0.00    +0.000 OA
ATOM     10  H   UNL     1       6.890   4.741  19.432  0.00  0.00    +0.000 HD
ENDBRANCH   7   9
ENDBRANCH   3   7
BRANCH   1  11
ATOM     11  C   UNL     1       5.311   3.844  13.085  0.00  0.00    +0.000 C 
BRANCH  11  13
ATOM     12  C   UNL     1       5.686   1.960  11.441  0.00  0.00    +0.000 C 
ATOM     13  C   UNL     1       6.227   3.267  12.004  0.00  0.00    +0.000 C 
ENDBRANCH  11  13
ENDBRANCH   1  11
TORSDOF 4
ENDMDL
MODEL 5
REMARK VINA RESULT:      -5.3      2.830      4.938
REMARK  Name = 
REMARK  5 active torsions:
REMARK  status: ('A' for Active; 'I' for Inactive)
REMARK    1  A    between atoms: C_1  and  C_2
REMARK    2  A    between atoms: C_2  and  C_3
REMARK    3  A    between atoms: C_3  and  C_4
REMARK    4  A    between atoms: C_6  and  C_7
REMARK    5  A    between atoms: C_7  and  O_9
REMARK                            x       y       z     vdW  Elec       q    Type
REMARK                         _______ _______ _______ _____ _____    ______ ____
ROOT
ATOM      1  C   UNL     1       5.992   4.782  18.136  0.00  0.00    +0.000 A 
ATOM      2  C   UNL     1       5.682   4.942  16.804  0.00  0.00    +0.000 A 
ATOM      3  C   UNL     1       6.862   4.619  16.096  0.00  0.00    +0.000 A 
ATOM      4  N   UNL     1       7.867   4.295  16.939  0.00  0.00    +0.000 NA
ATOM      5  N   UNL     1       7.308   4.407  18.162  0.00  0.00    +0.000 N 
ATOM      6  H   UNL     1       7.883   4.210  18.976  0.00  0.00    +0.000 HD
ENDROOT
BRANCH   3   7
ATOM      7  C   UNL     1       7.060   4.609  14.645  0.00  0.00    +0.000 C 
ATOM      8  O   UNL     1       7.728   5.428  14.030  0.00  0.00    +0.000 OA
BRANCH   7   9
ATOM      9  O   UNL     1       6.408   3.579  14.036  0.00  0.00    +0.000 OA
ATOM     10  H   UNL     1       5.582   3.435  14.556  0.00  0.00    +0.000 HD
ENDBRANCH   7   9
ENDBRANCH   3   7
BRANCH   1  11
ATOM     11  C   UNL     1       5.168   4.961  19.367  0.00  0.00    +0.000 C 
BRANCH  11  13
ATOM     12  C   UNL     1       4.316   2.589  19.570  0.00  0.00    +0.000 C 
ATOM     13  C   UNL     1       3.940   4.048  19.356  0.00  0.00    +0.000 C 
ENDBRANCH  11  13
ENDBRANCH   1  11
TORSDOF 4
ENDMDL
MODEL 6
REMARK VINA RESULT:      -5.3      0.995      1.145
REMARK  Name = 
REMARK  5 active torsions:
REMARK  status: ('A' for Active; 'I' for Inactive)
REMARK    1  A    between atoms: C_1  and  C_2
REMARK    2  A    between atoms: C_2  and  C_3
REMARK    3  A    between atoms: C_3  and  C_4
REMARK    4  A    between atoms: C_6  and  C_7
REMARK    5  A    between atoms: C_7  and  O_9
REMARK                            x       y       z     vdW  Elec       q    Type
REMARK                         _______ _______ _______ _____ _____    ______ ____
ROOT
ATOM      1  C   UNL     1       6.244   4.093  13.451  0.00  0.00    +0.000 A 
ATOM      2  C   UNL     1       5.998   3.738  14.759  0.00  0.00    +0.000 A 
ATOM      3  C   UNL     1       6.876   4.525  15.539  0.00  0.00    +0.000 A 
ATOM      4  N   UNL     1       7.648   5.315  14.762  0.00  0.00    +0.000 NA
ATOM      5  N   UNL     1       7.242   5.027  13.507  0.00  0.00    +0.000 N 
ATOM      6  H   UNL     1       7.690   5.507  12.733  0.00  0.00    +0.000 HD
ENDROOT
BRANCH   3   7
ATOM      7  C   UNL     1       7.000   4.546  16.998  0.00  0.00    +0.000 C 
ATOM      8  O   UNL     1       6.125   4.927  17.763  0.00  0.00    +0.000 OA
BRANCH   7   9
ATOM      9  O   UNL     1       8.212   4.093  17.427  0.00  0.00    +0.000 OA
ATOM     10  H   UNL     1       8.591   3.578  16.675  0.00  0.00    +0.000 HD
ENDBRANCH   7   9
ENDBRANCH   3   7
BRANCH   1  11
ATOM     11  C   UNL     1       5.633   3.624  12.173  0.00  0.00    +0.000 C 
BRANCH  11  13
ATOM     12  C   UNL     1       7.309   2.081  11.077  0.00  0.00    +0.000 C 
ATOM     13  C   UNL     1       6.014   2.174  11.868  0.00  0.00    +0.000 C 
ENDBRANCH  11  13
ENDBRANCH   1  11
TORSDOF 4
ENDMDL
MODEL 7
REMARK VINA RESULT:      -5.3      1.284      1.626
REMARK  Name = 
REMARK  5 active torsions:
REMARK  status: ('A' for Active; 'I' for Inactive)
REMARK    1  A    between atoms: C_1  and  C_2
REMARK    2  A    between atoms: C_2  and  C_3
REMARK    3  A    between atoms: C_3  and  C_4
REMARK    4  A    between atoms: C_6  and  C_7
REMARK    5  A    between atoms: C_7  and  O_9
REMARK                            x       y       z     vdW  Elec       q    Type
REMARK                         _______ _______ _______ _____ _____    ______ ____
ROOT
ATOM      1  C   UNL     1       6.349   3.862  13.152  0.00  0.00    +0.000 A 
ATOM      2  C   UNL     1       6.149   3.869  14.515  0.00  0.00    +0.000 A 
ATOM      3  C   UNL     1       7.012   4.868  15.021  0.00  0.00    +0.000 A 
ATOM      4  N   UNL     1       7.731   5.443  14.032  0.00  0.00    +0.000 NA
ATOM      5  N   UNL     1       7.308   4.810  12.918  0.00  0.00    +0.000 N 
ATOM      6  H   UNL     1       7.716   5.076  12.027  0.00  0.00    +0.000 HD
ENDROOT
BRANCH   3   7
ATOM      7  C   UNL     1       7.169   5.291  16.415  0.00  0.00    +0.000 C 
ATOM      8  O   UNL     1       7.441   6.429  16.768  0.00  0.00    +0.000 OA
BRANCH   7   9
ATOM      9  O   UNL     1       6.982   4.267  17.295  0.00  0.00    +0.000 OA
ATOM     10  H   UNL     1       6.322   4.592  17.953  0.00  0.00    +0.000 HD
ENDBRANCH   7   9
ENDBRANCH   3   7
BRANCH   1  11
ATOM     11  C   UNL     1       5.729   3.043  12.071  0.00  0.00    +0.000 C 
BRANCH  11  13
ATOM     12  C   UNL     1       6.270   0.786  11.068  0.00  0.00    +0.000 C 
ATOM     13  C   UNL     1       6.773   2.195  11.340  0.00  0.00    +0.000 C 
ENDBRANCH  11  13
ENDBRANCH   1  11
TORSDOF 4
ENDMDL
MODEL 8
REMARK VINA RESULT:      -5.2      4.072      4.721
REMARK  Name = 
REMARK  5 active torsions:
REMARK  status: ('A' for Active; 'I' for Inactive)
REMARK    1  A    between atoms: C_1  and  C_2
REMARK    2  A    between atoms: C_2  and  C_3
REMARK    3  A    between atoms: C_3  and  C_4
REMARK    4  A    between atoms: C_6  and  C_7
REMARK    5  A    between atoms: C_7  and  O_9
REMARK                            x       y       z     vdW  Elec       q    Type
REMARK                         _______ _______ _______ _____ _____    ______ ____
ROOT
ATOM      1  C   UNL     1       4.862   4.137  17.798  0.00  0.00    +0.000 A 
ATOM      2  C   UNL     1       5.429   5.265  17.250  0.00  0.00    +0.000 A 
ATOM      3  C   UNL     1       6.593   5.515  18.012  0.00  0.00    +0.000 A 
ATOM      4  N   UNL     1       6.738   4.605  19.000  0.00  0.00    +0.000 NA
ATOM      5  N   UNL     1       5.674   3.790  18.843  0.00  0.00    +0.000 N 
ATOM      6  H   UNL     1       5.564   3.012  19.487  0.00  0.00    +0.000 HD
ENDROOT
BRANCH   3   7
ATOM      7  C   UNL     1       7.569   6.592  17.826  0.00  0.00    +0.000 C 
ATOM      8  O   UNL     1       7.745   7.194  16.776  0.00  0.00    +0.000 OA
BRANCH   7   9
ATOM      9  O   UNL     1       8.278   6.857  18.959  0.00  0.00    +0.000 OA
ATOM     10  H   UNL     1       9.229   6.769  18.712  0.00  0.00    +0.000 HD
ENDBRANCH   7   9
ENDBRANCH   3   7
BRANCH   1  11
ATOM     11  C   UNL     1       3.632   3.376  17.431  0.00  0.00    +0.000 C 
BRANCH  11  13
ATOM     12  C   UNL     1       1.290   3.364  18.382  0.00  0.00    +0.000 C 
ATOM     13  C   UNL     1       2.366   4.193  17.698  0.00  0.00    +0.000 C 
ENDBRANCH  11  13
ENDBRANCH   1  11
TORSDOF 4
ENDMDL
MODEL 9
REMARK VINA RESULT:      -5.2      3.572      5.294
REMARK  Name = 
REMARK  5 active torsions:
REMARK  status: ('A' for Active; 'I' for Inactive)
REMARK    1  A    between atoms: C_1  and  C_2
REMARK    2  A    between atoms: C_2  and  C_3
REMARK    3  A    between atoms: C_3  and  C_4
REMARK    4  A    between atoms: C_6  and  C_7
REMARK    5  A    between atoms: C_7  and  O_9
REMARK                            x       y       z     vdW  Elec       q    Type
REMARK                         _______ _______ _______ _____ _____    ______ ____
ROOT
ATOM      1  C   UNL     1       4.101   3.350  18.341  0.00  0.00    +0.000 A 
ATOM      2  C   UNL     1       4.484   4.002  17.189  0.00  0.00    +0.000 A 
ATOM      3  C   UNL     1       5.789   4.484  17.441  0.00  0.00    +0.000 A 
ATOM      4  N   UNL     1       6.196   4.170  18.690  0.00  0.00    +0.000 NA
ATOM      5  N   UNL     1       5.151   3.489  19.206  0.00  0.00    +0.000 N 
ATOM      6  H   UNL     1       5.223   3.143  20.159  0.00  0.00    +0.000 HD
ENDROOT
BRANCH   3   7
ATOM      7  C   UNL     1       6.657   5.231  16.528  0.00  0.00    +0.000 C 
ATOM      8  O   UNL     1       6.367   6.304  16.018  0.00  0.00    +0.000 OA
BRANCH   7   9
ATOM      9  O   UNL     1       7.840   4.596  16.295  0.00  0.00    +0.000 OA
ATOM     10  H   UNL     1       8.319   4.591  17.158  0.00  0.00    +0.000 HD
ENDBRANCH   7   9
ENDBRANCH   3   7
BRANCH   1  11
ATOM     11  C   UNL     1       2.843   2.627  18.690  0.00  0.00    +0.000 C 
BRANCH  11  13
ATOM     12  C   UNL     1       0.955   3.686  19.996  0.00  0.00    +0.000 C 
ATOM     13  C   UNL     1       1.629   3.557  18.638  0.00  0.00    +0.000 C 
ENDBRANCH  11  13
ENDBRANCH   1  11
TORSDOF 4
ENDMDL
