MODEL 1
REMARK VINA RESULT:      -7.5      0.000      0.000
REMARK  Name = 
REMARK  7 active torsions:
REMARK  status: ('A' for Active; 'I' for Inactive)
REMARK    1  A    between atoms: C_1  and  C_2
REMARK    2  A    between atoms: C_2  and  C_8
REMARK    3  A    between atoms: N_3  and  N_4
REMARK    4  A    between atoms: C_10  and  N_11
REMARK    5  A    between atoms: C_13  and  C_14
REMARK    6  A    between atoms: C_14  and  C_15
REMARK    7  A    between atoms: N_16  and  N_17
REMARK                            x       y       z     vdW  Elec       q    Type
REMARK                         _______ _______ _______ _____ _____    ______ ____
ROOT
ATOM      1  C   UNL     1       3.016   4.651  18.944  0.00  0.00    +0.000 A 
ATOM      2  C   UNL     1       2.966   3.250  18.982  0.00  0.00    +0.000 A 
ATOM      3  C   UNL     1       3.687   2.474  18.068  0.00  0.00    +0.000 A 
ATOM      4  C   UNL     1       4.546   3.113  17.168  0.00  0.00    +0.000 A 
ATOM      5  C   UNL     1       4.610   4.510  17.106  0.00  0.00    +0.000 A 
ATOM      6  C   UNL     1       3.842   5.274  18.000  0.00  0.00    +0.000 A 
ENDROOT
BRANCH   1   8
ATOM      7  C   UNL     1       1.160   4.683  20.739  0.00  0.00    +0.000 C 
ATOM      8  C   UNL     1       2.185   5.446  19.924  0.00  0.00    +0.000 C 
ATOM      9  N   UNL     1       2.406   6.729  20.021  0.00  0.00    +0.000 NA
BRANCH   9  10
ATOM     10  N   UNL     1       1.655   7.475  20.882  0.00  0.00    +0.000 N 
ATOM     11  C   UNL     1       1.106   8.675  20.525  0.00  0.00    +0.000 C 
ATOM     12  N   UNL     1       1.290   9.257  19.389  0.00  0.00    +0.000 NA
ATOM     13  N   UNL     1       0.330   9.252  21.468  0.00  0.00    +0.000 N 
ATOM     14  H   UNL     1       1.107   7.004  21.595  0.00  0.00    +0.000 HD
ATOM     15  H   UNL     1       1.896   8.598  18.877  0.00  0.00    +0.000 HD
ATOM     16  H   UNL     1       0.741   9.250  22.391  0.00  0.00    +0.000 HD
ATOM     17  H   UNL     1       0.111  10.200  21.176  0.00  0.00    +0.000 HD
ENDBRANCH   9  10
ENDBRANCH   1   8
BRANCH   3  18
ATOM     18  N   UNL     1       3.725   1.083  18.208  0.00  0.00    +0.000 N 
ATOM     19  H   UNL     1       3.374   0.741  19.099  0.00  0.00    +0.000 HD
ATOM     20  H   UNL     1       3.344   0.562  17.423  0.00  0.00    +0.000 HD
ENDBRANCH   3  18
BRANCH   5  21
ATOM     21  C   UNL     1       5.500   5.219  16.129  0.00  0.00    +0.000 C 
ATOM     22  C   UNL     1       5.123   6.621  15.689  0.00  0.00    +0.000 C 
ATOM     23  N   UNL     1       6.581   4.612  15.723  0.00  0.00    +0.000 NA
BRANCH  23  24
ATOM     24  N   UNL     1       7.392   5.258  14.830  0.00  0.00    +0.000 N 
ATOM     25  C   UNL     1       7.409   4.974  13.498  0.00  0.00    +0.000 C 
ATOM     26  N   UNL     1       6.717   4.038  12.944  0.00  0.00    +0.000 NA
ATOM     27  N   UNL     1       8.219   5.755  12.753  0.00  0.00    +0.000 N 
ATOM     28  H   UNL     1       7.765   6.174  15.054  0.00  0.00    +0.000 HD
ATOM     29  H   UNL     1       6.189   3.632  13.731  0.00  0.00    +0.000 HD
ATOM     30  H   UNL     1       9.137   5.907  13.148  0.00  0.00    +0.000 HD
ATOM     31  H   UNL     1       8.290   5.361  11.819  0.00  0.00    +0.000 HD
ENDBRANCH  23  24
ENDBRANCH   5  21
TORSDOF 5
ENDMDL
MODEL 2
REMARK VINA RESULT:      -7.3      1.747      3.108
REMARK  Name = 
REMARK  7 active torsions:
REMARK  status: ('A' for Active; 'I' for Inactive)
REMARK    1  A    between atoms: C_1  and  C_2
REMARK    2  A    between atoms: C_2  and  C_8
REMARK    3  A    between atoms: N_3  and  N_4
REMARK    4  A    between atoms: C_10  and  N_11
REMARK    5  A    between atoms: C_13  and  C_14
REMARK    6  A    between atoms: C_14  and  C_15
REMARK    7  A    between atoms: N_16  and  N_17
REMARK                            x       y       z     vdW  Elec       q    Type
REMARK                         _______ _______ _______ _____ _____    ______ ____
ROOT
ATOM      1  C   UNL     1       2.086   6.756  19.932  0.00  0.00    +0.000 A 
ATOM      2  C   UNL     1       1.823   5.792  20.917  0.00  0.00    +0.000 A 
ATOM      3  C   UNL     1       2.269   4.473  20.777  0.00  0.00    +0.000 A 
ATOM      4  C   UNL     1       3.076   4.144  19.683  0.00  0.00    +0.000 A 
ATOM      5  C   UNL     1       3.347   5.086  18.683  0.00  0.00    +0.000 A 
ATOM      6  C   UNL     1       2.851   6.393  18.815  0.00  0.00    +0.000 A 
ENDROOT
BRANCH   1   8
ATOM      7  C   UNL     1       1.512   9.040  18.874  0.00  0.00    +0.000 C 
ATOM      8  C   UNL     1       1.545   8.155  20.105  0.00  0.00    +0.000 C 
ATOM      9  N   UNL     1       1.128   8.514  21.289  0.00  0.00    +0.000 NA
BRANCH   9  10
ATOM     10  N   UNL     1       0.654   9.779  21.478  0.00  0.00    +0.000 N 
ATOM     11  C   UNL     1      -0.211  10.095  22.488  0.00  0.00    +0.000 C 
ATOM     12  N   UNL     1      -0.722   9.242  23.311  0.00  0.00    +0.000 NA
ATOM     13  N   UNL     1      -0.527  11.405  22.582  0.00  0.00    +0.000 N 
ATOM     14  H   UNL     1       1.236  10.568  21.217  0.00  0.00    +0.000 HD
ATOM     15  H   UNL     1      -0.302   8.347  23.018  0.00  0.00    +0.000 HD
ATOM     16  H   UNL     1      -0.760  11.832  21.697  0.00  0.00    +0.000 HD
ATOM     17  H   UNL     1      -1.292  11.510  23.243  0.00  0.00    +0.000 HD
ENDBRANCH   9  10
ENDBRANCH   1   8
BRANCH   3  18
ATOM     18  N   UNL     1       2.109   3.566  21.830  0.00  0.00    +0.000 N 
ATOM     19  H   UNL     1       2.395   3.922  22.738  0.00  0.00    +0.000 HD
ATOM     20  H   UNL     1       1.203   3.107  21.867  0.00  0.00    +0.000 HD
ENDBRANCH   3  18
BRANCH   5  21
ATOM     21  C   UNL     1       4.183   4.749  17.484  0.00  0.00    +0.000 C 
ATOM     22  C   UNL     1       4.357   3.289  17.108  0.00  0.00    +0.000 C 
ATOM     23  N   UNL     1       4.698   5.728  16.793  0.00  0.00    +0.000 NA
BRANCH  23  24
ATOM     24  N   UNL     1       5.462   5.420  15.700  0.00  0.00    +0.000 N 
ATOM     25  C   UNL     1       6.803   5.654  15.638  0.00  0.00    +0.000 C 
ATOM     26  N   UNL     1       7.484   6.239  16.564  0.00  0.00    +0.000 NA
ATOM     27  N   UNL     1       7.411   5.225  14.512  0.00  0.00    +0.000 N 
ATOM     28  H   UNL     1       5.141   4.723  15.037  0.00  0.00    +0.000 HD
ATOM     29  H   UNL     1       6.781   6.431  17.293  0.00  0.00    +0.000 HD
ATOM     30  H   UNL     1       6.918   5.448  13.657  0.00  0.00    +0.000 HD
ATOM     31  H   UNL     1       8.358   5.592  14.487  0.00  0.00    +0.000 HD
ENDBRANCH  23  24
ENDBRANCH   5  21
TORSDOF 5
ENDMDL
MODEL 3
REMARK VINA RESULT:      -7.3      1.818      7.765
REMARK  Name = 
REMARK  7 active torsions:
REMARK  status: ('A' for Active; 'I' for Inactive)
REMARK    1  A    between atoms: C_1  and  C_2
REMARK    2  A    between atoms: C_2  and  C_8
REMARK    3  A    between atoms: N_3  and  N_4
REMARK    4  A    between atoms: C_10  and  N_11
REMARK    5  A    between atoms: C_13  and  C_14
REMARK    6  A    between atoms: C_14  and  C_15
REMARK    7  A    between atoms: N_16  and  N_17
REMARK                            x       y       z     vdW  Elec       q    Type
REMARK                         _______ _______ _______ _____ _____    ______ ____
ROOT
ATOM      1  C   UNL     1       3.328   5.370  18.641  0.00  0.00    +0.000 A 
ATOM      2  C   UNL     1       3.129   4.351  19.584  0.00  0.00    +0.000 A 
ATOM      3  C   UNL     1       2.393   4.578  20.752  0.00  0.00    +0.000 A 
ATOM      4  C   UNL     1       1.766   5.816  20.926  0.00  0.00    +0.000 A 
ATOM      5  C   UNL     1       1.954   6.851  20.004  0.00  0.00    +0.000 A 
ATOM      6  C   UNL     1       2.736   6.621  18.861  0.00  0.00    +0.000 A 
ENDROOT
BRANCH   1   8
ATOM      7  C   UNL     1       4.210   3.657  16.922  0.00  0.00    +0.000 C 
ATOM      8  C   UNL     1       4.167   5.090  17.417  0.00  0.00    +0.000 C 
ATOM      9  N   UNL     1       4.789   6.090  16.853  0.00  0.00    +0.000 NA
BRANCH   9  10
ATOM     10  N   UNL     1       5.571   5.861  15.758  0.00  0.00    +0.000 N 
ATOM     11  C   UNL     1       6.902   5.564  15.859  0.00  0.00    +0.000 C 
ATOM     12  N   UNL     1       7.568   5.540  16.964  0.00  0.00    +0.000 NA
ATOM     13  N   UNL     1       7.517   5.294  14.687  0.00  0.00    +0.000 N 
ATOM     14  H   UNL     1       5.153   5.453  14.929  0.00  0.00    +0.000 HD
ATOM     15  H   UNL     1       6.857   5.765  17.676  0.00  0.00    +0.000 HD
ATOM     16  H   UNL     1       7.300   5.951  13.951  0.00  0.00    +0.000 HD
ATOM     17  H   UNL     1       8.520   5.253  14.846  0.00  0.00    +0.000 HD
ENDBRANCH   9  10
ENDBRANCH   1   8
BRANCH   3  18
ATOM     18  N   UNL     1       2.098   3.513  21.611  0.00  0.00    +0.000 N 
ATOM     19  H   UNL     1       2.216   3.726  22.598  0.00  0.00    +0.000 HD
ATOM     20  H   UNL     1       1.216   3.044  21.423  0.00  0.00    +0.000 HD
ENDBRANCH   3  18
BRANCH   5  21
ATOM     21  C   UNL     1       1.319   8.198  20.185  0.00  0.00    +0.000 C 
ATOM     22  C   UNL     1       1.463   9.224  19.077  0.00  0.00    +0.000 C 
ATOM     23  N   UNL     1       0.639   8.420  21.276  0.00  0.00    +0.000 NA
BRANCH  23  24
ATOM     24  N   UNL     1       0.060   9.649  21.442  0.00  0.00    +0.000 N 
ATOM     25  C   UNL     1      -0.182  10.199  22.665  0.00  0.00    +0.000 C 
ATOM     26  N   UNL     1       0.047   9.608  23.788  0.00  0.00    +0.000 NA
ATOM     27  N   UNL     1      -0.695  11.447  22.644  0.00  0.00    +0.000 N 
ATOM     28  H   UNL     1       0.088  10.329  20.690  0.00  0.00    +0.000 HD
ATOM     29  H   UNL     1       0.447   8.701  23.504  0.00  0.00    +0.000 HD
ATOM     30  H   UNL     1      -1.446  11.582  21.980  0.00  0.00    +0.000 HD
ATOM     31  H   UNL     1      -0.994  11.698  23.581  0.00  0.00    +0.000 HD
ENDBRANCH  23  24
ENDBRANCH   5  21
TORSDOF 5
ENDMDL
MODEL 4
REMARK VINA RESULT:      -7.2      1.132      1.314
REMARK  Name = 
REMARK  7 active torsions:
REMARK  status: ('A' for Active; 'I' for Inactive)
REMARK    1  A    between atoms: C_1  and  C_2
REMARK    2  A    between atoms: C_2  and  C_8
REMARK    3  A    between atoms: N_3  and  N_4
REMARK    4  A    between atoms: C_10  and  N_11
REMARK    5  A    between atoms: C_13  and  C_14
REMARK    6  A    between atoms: C_14  and  C_15
REMARK    7  A    between atoms: N_16  and  N_17
REMARK                            x       y       z     vdW  Elec       q    Type
REMARK                         _______ _______ _______ _____ _____    ______ ____
ROOT
ATOM      1  C   UNL     1       2.944   5.317  18.699  0.00  0.00    +0.000 A 
ATOM      2  C   UNL     1       2.376   4.038  18.607  0.00  0.00    +0.000 A 
ATOM      3  C   UNL     1       2.977   3.031  17.843  0.00  0.00    +0.000 A 
ATOM      4  C   UNL     1       4.217   3.285  17.247  0.00  0.00    +0.000 A 
ATOM      5  C   UNL     1       4.801   4.555  17.318  0.00  0.00    +0.000 A 
ATOM      6  C   UNL     1       4.159   5.567  18.049  0.00  0.00    +0.000 A 
ENDROOT
BRANCH   1   8
ATOM      7  C   UNL     1       1.543   5.945  20.776  0.00  0.00    +0.000 C 
ATOM      8  C   UNL     1       2.234   6.384  19.499  0.00  0.00    +0.000 C 
ATOM      9  N   UNL     1       2.270   7.612  19.058  0.00  0.00    +0.000 NA
BRANCH   9  10
ATOM     10  N   UNL     1       1.619   8.592  19.750  0.00  0.00    +0.000 N 
ATOM     11  C   UNL     1       0.985   9.631  19.128  0.00  0.00    +0.000 C 
ATOM     12  N   UNL     1       0.993   9.839  17.854  0.00  0.00    +0.000 NA
ATOM     13  N   UNL     1       0.327  10.475  19.952  0.00  0.00    +0.000 N 
ATOM     14  H   UNL     1       1.190   8.365  20.642  0.00  0.00    +0.000 HD
ATOM     15  H   UNL     1       1.544   9.049  17.487  0.00  0.00    +0.000 HD
ATOM     16  H   UNL     1       0.861  10.751  20.764  0.00  0.00    +0.000 HD
ATOM     17  H   UNL     1       0.039  11.291  19.420  0.00  0.00    +0.000 HD
ENDBRANCH   9  10
ENDBRANCH   1   8
BRANCH   3  18
ATOM     18  N   UNL     1       2.464   1.730  17.873  0.00  0.00    +0.000 N 
ATOM     19  H   UNL     1       1.512   1.647  17.529  0.00  0.00    +0.000 HD
ATOM     20  H   UNL     1       3.076   1.019  17.481  0.00  0.00    +0.000 HD
ENDBRANCH   3  18
BRANCH   5  21
ATOM     21  C   UNL     1       6.114   4.860  16.660  0.00  0.00    +0.000 C 
ATOM     22  C   UNL     1       7.392   4.607  17.437  0.00  0.00    +0.000 C 
ATOM     23  N   UNL     1       6.103   5.300  15.432  0.00  0.00    +0.000 NA
BRANCH  23  24
ATOM     24  N   UNL     1       7.300   5.580  14.831  0.00  0.00    +0.000 N 
ATOM     25  C   UNL     1       7.620   5.161  13.576  0.00  0.00    +0.000 C 
ATOM     26  N   UNL     1       6.868   4.411  12.844  0.00  0.00    +0.000 NA
ATOM     27  N   UNL     1       8.814   5.586  13.113  0.00  0.00    +0.000 N 
ATOM     28  H   UNL     1       7.855   6.367  15.149  0.00  0.00    +0.000 HD
ATOM     29  H   UNL     1       6.032   4.264  13.431  0.00  0.00    +0.000 HD
ATOM     30  H   UNL     1       9.575   5.506  13.775  0.00  0.00    +0.000 HD
ATOM     31  H   UNL     1       9.033   5.089  12.254  0.00  0.00    +0.000 HD
ENDBRANCH  23  24
ENDBRANCH   5  21
TORSDOF 5
ENDMDL
MODEL 5
REMARK VINA RESULT:      -7.2      1.842      7.715
REMARK  Name = 
REMARK  7 active torsions:
REMARK  status: ('A' for Active; 'I' for Inactive)
REMARK    1  A    between atoms: C_1  and  C_2
REMARK    2  A    between atoms: C_2  and  C_8
REMARK    3  A    between atoms: N_3  and  N_4
REMARK    4  A    between atoms: C_10  and  N_11
REMARK    5  A    between atoms: C_13  and  C_14
REMARK    6  A    between atoms: C_14  and  C_15
REMARK    7  A    between atoms: N_16  and  N_17
REMARK                            x       y       z     vdW  Elec       q    Type
REMARK                         _______ _______ _______ _____ _____    ______ ____
ROOT
ATOM      1  C   UNL     1       3.825   5.119  19.325  0.00  0.00    +0.000 A 
ATOM      2  C   UNL     1       3.240   4.028  19.985  0.00  0.00    +0.000 A 
ATOM      3  C   UNL     1       2.106   4.190  20.789  0.00  0.00    +0.000 A 
ATOM      4  C   UNL     1       1.494   5.446  20.848  0.00  0.00    +0.000 A 
ATOM      5  C   UNL     1       2.061   6.552  20.203  0.00  0.00    +0.000 A 
ATOM      6  C   UNL     1       3.227   6.381  19.441  0.00  0.00    +0.000 A 
ENDROOT
BRANCH   1   8
ATOM      7  C   UNL     1       6.390   5.342  19.122  0.00  0.00    +0.000 C 
ATOM      8  C   UNL     1       5.075   4.902  18.506  0.00  0.00    +0.000 C 
ATOM      9  N   UNL     1       4.956   4.342  17.333  0.00  0.00    +0.000 NA
BRANCH   9  10
ATOM     10  N   UNL     1       6.067   4.155  16.563  0.00  0.00    +0.000 N 
ATOM     11  C   UNL     1       6.417   5.017  15.561  0.00  0.00    +0.000 C 
ATOM     12  N   UNL     1       5.719   6.036  15.192  0.00  0.00    +0.000 NA
ATOM     13  N   UNL     1       7.583   4.729  14.942  0.00  0.00    +0.000 N 
ATOM     14  H   UNL     1       6.875   3.693  16.966  0.00  0.00    +0.000 HD
ATOM     15  H   UNL     1       4.911   6.018  15.833  0.00  0.00    +0.000 HD
ATOM     16  H   UNL     1       7.684   3.754  14.696  0.00  0.00    +0.000 HD
ATOM     17  H   UNL     1       7.668   5.317  14.118  0.00  0.00    +0.000 HD
ENDBRANCH   9  10
ENDBRANCH   1   8
BRANCH   3  18
ATOM     18  N   UNL     1       1.466   3.070  21.329  0.00  0.00    +0.000 N 
ATOM     19  H   UNL     1       2.005   2.210  21.271  0.00  0.00    +0.000 HD
ATOM     20  H   UNL     1       1.066   3.208  22.253  0.00  0.00    +0.000 HD
ENDBRANCH   3  18
BRANCH   5  21
ATOM     21  C   UNL     1       1.440   7.915  20.278  0.00  0.00    +0.000 C 
ATOM     22  C   UNL     1       1.599   8.851  19.094  0.00  0.00    +0.000 C 
ATOM     23  N   UNL     1       0.760   8.228  21.346  0.00  0.00    +0.000 NA
BRANCH  23  24
ATOM     24  N   UNL     1       0.195   9.473  21.416  0.00  0.00    +0.000 N 
ATOM     25  C   UNL     1      -0.172  10.060  22.589  0.00  0.00    +0.000 C 
ATOM     26  N   UNL     1      -0.087   9.494  23.744  0.00  0.00    +0.000 NA
ATOM     27  N   UNL     1      -0.649  11.317  22.479  0.00  0.00    +0.000 N 
ATOM     28  H   UNL     1       0.324  10.132  20.656  0.00  0.00    +0.000 HD
ATOM     29  H   UNL     1       0.322   8.572  23.530  0.00  0.00    +0.000 HD
ATOM     30  H   UNL     1      -1.317  11.450  21.730  0.00  0.00    +0.000 HD
ATOM     31  H   UNL     1      -1.048  11.599  23.370  0.00  0.00    +0.000 HD
ENDBRANCH  23  24
ENDBRANCH   5  21
TORSDOF 5
ENDMDL
MODEL 6
REMARK VINA RESULT:      -7.2      1.436      7.096
REMARK  Name = 
REMARK  7 active torsions:
REMARK  status: ('A' for Active; 'I' for Inactive)
REMARK    1  A    between atoms: C_1  and  C_2
REMARK    2  A    between atoms: C_2  and  C_8
REMARK    3  A    between atoms: N_3  and  N_4
REMARK    4  A    between atoms: C_10  and  N_11
REMARK    5  A    between atoms: C_13  and  C_14
REMARK    6  A    between atoms: C_14  and  C_15
REMARK    7  A    between atoms: N_16  and  N_17
REMARK                            x       y       z     vdW  Elec       q    Type
REMARK                         _______ _______ _______ _____ _____    ______ ____
ROOT
ATOM      1  C   UNL     1       4.571   4.192  17.065  0.00  0.00    +0.000 A 
ATOM      2  C   UNL     1       4.110   2.895  17.339  0.00  0.00    +0.000 A 
ATOM      3  C   UNL     1       3.110   2.666  18.289  0.00  0.00    +0.000 A 
ATOM      4  C   UNL     1       2.494   3.764  18.900  0.00  0.00    +0.000 A 
ATOM      5  C   UNL     1       2.939   5.067  18.649  0.00  0.00    +0.000 A 
ATOM      6  C   UNL     1       3.978   5.275  17.728  0.00  0.00    +0.000 A 
ENDROOT
BRANCH   1   8
ATOM      7  C   UNL     1       7.068   4.669  16.615  0.00  0.00    +0.000 C 
ATOM      8  C   UNL     1       5.684   4.384  16.063  0.00  0.00    +0.000 C 
ATOM      9  N   UNL     1       5.398   4.281  14.794  0.00  0.00    +0.000 NA
BRANCH   9  10
ATOM     10  N   UNL     1       6.381   4.472  13.867  0.00  0.00    +0.000 N 
ATOM     11  C   UNL     1       6.431   3.767  12.697  0.00  0.00    +0.000 C 
ATOM     12  N   UNL     1       5.620   2.816  12.377  0.00  0.00    +0.000 NA
ATOM     13  N   UNL     1       7.425   4.126  11.856  0.00  0.00    +0.000 N 
ATOM     14  H   UNL     1       6.801   5.391  13.775  0.00  0.00    +0.000 HD
ATOM     15  H   UNL     1       4.975   2.772  13.179  0.00  0.00    +0.000 HD
ATOM     16  H   UNL     1       8.323   4.232  12.307  0.00  0.00    +0.000 HD
ATOM     17  H   UNL     1       7.481   3.444  11.105  0.00  0.00    +0.000 HD
ENDBRANCH   9  10
ENDBRANCH   1   8
BRANCH   3  18
ATOM     18  N   UNL     1       2.577   1.383  18.449  0.00  0.00    +0.000 N 
ATOM     19  H   UNL     1       3.269   0.638  18.447  0.00  0.00    +0.000 HD
ATOM     20  H   UNL     1       1.914   1.286  19.213  0.00  0.00    +0.000 HD
ENDBRANCH   3  18
BRANCH   5  21
ATOM     21  C   UNL     1       2.316   6.258  19.315  0.00  0.00    +0.000 C 
ATOM     22  C   UNL     1       1.645   6.067  20.662  0.00  0.00    +0.000 C 
ATOM     23  N   UNL     1       2.406   7.417  18.723  0.00  0.00    +0.000 NA
BRANCH  23  24
ATOM     24  N   UNL     1       1.836   8.503  19.330  0.00  0.00    +0.000 N 
ATOM     25  C   UNL     1       1.535   9.654  18.667  0.00  0.00    +0.000 C 
ATOM     26  N   UNL     1       1.804   9.871  17.425  0.00  0.00    +0.000 NA
ATOM     27  N   UNL     1       0.914  10.598  19.404  0.00  0.00    +0.000 N 
ATOM     28  H   UNL     1       1.322   8.388  20.196  0.00  0.00    +0.000 HD
ATOM     29  H   UNL     1       2.247   8.992  17.118  0.00  0.00    +0.000 HD
ATOM     30  H   UNL     1       1.315  10.749  20.321  0.00  0.00    +0.000 HD
ATOM     31  H   UNL     1       0.887  11.466  18.877  0.00  0.00    +0.000 HD
ENDBRANCH  23  24
ENDBRANCH   5  21
TORSDOF 5
ENDMDL
MODEL 7
REMARK VINA RESULT:      -7.2      1.808      7.008
REMARK  Name = 
REMARK  7 active torsions:
REMARK  status: ('A' for Active; 'I' for Inactive)
REMARK    1  A    between atoms: C_1  and  C_2
REMARK    2  A    between atoms: C_2  and  C_8
REMARK    3  A    between atoms: N_3  and  N_4
REMARK    4  A    between atoms: C_10  and  N_11
REMARK    5  A    between atoms: C_13  and  C_14
REMARK    6  A    between atoms: C_14  and  C_15
REMARK    7  A    between atoms: N_16  and  N_17
REMARK                            x       y       z     vdW  Elec       q    Type
REMARK                         _______ _______ _______ _____ _____    ______ ____
ROOT
ATOM      1  C   UNL     1       3.265   5.152  18.632  0.00  0.00    +0.000 A 
ATOM      2  C   UNL     1       2.912   4.149  19.546  0.00  0.00    +0.000 A 
ATOM      3  C   UNL     1       2.171   4.444  20.696  0.00  0.00    +0.000 A 
ATOM      4  C   UNL     1       1.692   5.746  20.876  0.00  0.00    +0.000 A 
ATOM      5  C   UNL     1       2.035   6.766  19.981  0.00  0.00    +0.000 A 
ATOM      6  C   UNL     1       2.822   6.462  18.858  0.00  0.00    +0.000 A 
ENDROOT
BRANCH   1   8
ATOM      7  C   UNL     1       4.212   3.322  17.076  0.00  0.00    +0.000 C 
ATOM      8  C   UNL     1       4.105   4.793  17.429  0.00  0.00    +0.000 C 
ATOM      9  N   UNL     1       4.672   5.761  16.761  0.00  0.00    +0.000 NA
BRANCH   9  10
ATOM     10  N   UNL     1       5.454   5.462  15.683  0.00  0.00    +0.000 N 
ATOM     11  C   UNL     1       6.802   5.689  15.671  0.00  0.00    +0.000 C 
ATOM     12  N   UNL     1       7.459   6.263  16.622  0.00  0.00    +0.000 NA
ATOM     13  N   UNL     1       7.442   5.272  14.557  0.00  0.00    +0.000 N 
ATOM     14  H   UNL     1       5.195   4.684  15.085  0.00  0.00    +0.000 HD
ATOM     15  H   UNL     1       6.735   6.455  17.330  0.00  0.00    +0.000 HD
ATOM     16  H   UNL     1       6.977   5.530  13.698  0.00  0.00    +0.000 HD
ATOM     17  H   UNL     1       8.392   5.631  14.572  0.00  0.00    +0.000 HD
ENDBRANCH   9  10
ENDBRANCH   1   8
BRANCH   3  18
ATOM     18  N   UNL     1       1.720   3.409  21.522  0.00  0.00    +0.000 N 
ATOM     19  H   UNL     1       1.380   2.592  21.023  0.00  0.00    +0.000 HD
ATOM     20  H   UNL     1       2.351   3.159  22.279  0.00  0.00    +0.000 HD
ENDBRANCH   3  18
BRANCH   5  21
ATOM     21  C   UNL     1       1.561   8.177  20.170  0.00  0.00    +0.000 C 
ATOM     22  C   UNL     1       1.186   8.635  21.566  0.00  0.00    +0.000 C 
ATOM     23  N   UNL     1       1.523   8.962  19.129  0.00  0.00    +0.000 NA
BRANCH  23  24
ATOM     24  N   UNL     1       1.089  10.249  19.301  0.00  0.00    +0.000 N 
ATOM     25  C   UNL     1       0.046  10.782  18.607  0.00  0.00    +0.000 C 
ATOM     26  N   UNL     1      -0.603  10.164  17.679  0.00  0.00    +0.000 NA
ATOM     27  N   UNL     1      -0.292  12.042  18.951  0.00  0.00    +0.000 N 
ATOM     28  H   UNL     1       1.300  10.745  20.160  0.00  0.00    +0.000 HD
ATOM     29  H   UNL     1      -0.152   9.238  17.647  0.00  0.00    +0.000 HD
ATOM     30  H   UNL     1       0.491  12.673  19.058  0.00  0.00    +0.000 HD
ATOM     31  H   UNL     1      -0.956  12.404  18.273  0.00  0.00    +0.000 HD
ENDBRANCH  23  24
ENDBRANCH   5  21
TORSDOF 5
ENDMDL
MODEL 8
REMARK VINA RESULT:      -7.2      1.808      3.089
REMARK  Name = 
REMARK  7 active torsions:
REMARK  status: ('A' for Active; 'I' for Inactive)
REMARK    1  A    between atoms: C_1  and  C_2
REMARK    2  A    between atoms: C_2  and  C_8
REMARK    3  A    between atoms: N_3  and  N_4
REMARK    4  A    between atoms: C_10  and  N_11
REMARK    5  A    between atoms: C_13  and  C_14
REMARK    6  A    between atoms: C_14  and  C_15
REMARK    7  A    between atoms: N_16  and  N_17
REMARK                            x       y       z     vdW  Elec       q    Type
REMARK                         _______ _______ _______ _____ _____    ______ ____
ROOT
ATOM      1  C   UNL     1       2.097   6.656  20.000  0.00  0.00    +0.000 A 
ATOM      2  C   UNL     1       1.823   5.687  20.977  0.00  0.00    +0.000 A 
ATOM      3  C   UNL     1       2.260   4.366  20.830  0.00  0.00    +0.000 A 
ATOM      4  C   UNL     1       3.069   4.039  19.737  0.00  0.00    +0.000 A 
ATOM      5  C   UNL     1       3.351   4.985  18.745  0.00  0.00    +0.000 A 
ATOM      6  C   UNL     1       2.863   6.294  18.883  0.00  0.00    +0.000 A 
ENDROOT
BRANCH   1   8
ATOM      7  C   UNL     1       1.107   8.449  21.572  0.00  0.00    +0.000 C 
ATOM      8  C   UNL     1       1.565   8.058  20.180  0.00  0.00    +0.000 C 
ATOM      9  N   UNL     1       1.545   8.849  19.142  0.00  0.00    +0.000 NA
BRANCH   9  10
ATOM     10  N   UNL     1       1.050  10.114  19.272  0.00  0.00    +0.000 N 
ATOM     11  C   UNL     1       1.418  11.134  18.440  0.00  0.00    +0.000 C 
ATOM     12  N   UNL     1       2.306  11.038  17.509  0.00  0.00    +0.000 NA
ATOM     13  N   UNL     1       0.782  12.306  18.657  0.00  0.00    +0.000 N 
ATOM     14  H   UNL     1       0.112  10.241  19.637  0.00  0.00    +0.000 HD
ATOM     15  H   UNL     1       2.604  10.053  17.563  0.00  0.00    +0.000 HD
ATOM     16  H   UNL     1       0.736  12.570  19.631  0.00  0.00    +0.000 HD
ATOM     17  H   UNL     1       1.239  13.031  18.111  0.00  0.00    +0.000 HD
ENDBRANCH   9  10
ENDBRANCH   1   8
BRANCH   3  18
ATOM     18  N   UNL     1       2.089   3.453  21.876  0.00  0.00    +0.000 N 
ATOM     19  H   UNL     1       2.950   3.191  22.349  0.00  0.00    +0.000 HD
ATOM     20  H   UNL     1       1.349   3.686  22.532  0.00  0.00    +0.000 HD
ENDBRANCH   3  18
BRANCH   5  21
ATOM     21  C   UNL     1       4.189   4.650  17.547  0.00  0.00    +0.000 C 
ATOM     22  C   UNL     1       4.368   3.191  17.172  0.00  0.00    +0.000 C 
ATOM     23  N   UNL     1       4.703   5.630  16.857  0.00  0.00    +0.000 NA
BRANCH  23  24
ATOM     24  N   UNL     1       5.469   5.324  15.764  0.00  0.00    +0.000 N 
ATOM     25  C   UNL     1       6.795   5.623  15.677  0.00  0.00    +0.000 C 
ATOM     26  N   UNL     1       7.456   6.273  16.574  0.00  0.00    +0.000 NA
ATOM     27  N   UNL     1       7.412   5.188  14.559  0.00  0.00    +0.000 N 
ATOM     28  H   UNL     1       5.177   4.589  15.129  0.00  0.00    +0.000 HD
ATOM     29  H   UNL     1       6.752   6.454  17.306  0.00  0.00    +0.000 HD
ATOM     30  H   UNL     1       6.899   5.355  13.703  0.00  0.00    +0.000 HD
ATOM     31  H   UNL     1       8.338   5.601  14.509  0.00  0.00    +0.000 HD
ENDBRANCH  23  24
ENDBRANCH   5  21
TORSDOF 5
ENDMDL
MODEL 9
REMARK VINA RESULT:      -7.2      1.152      7.081
REMARK  Name = 
REMARK  7 active torsions:
REMARK  status: ('A' for Active; 'I' for Inactive)
REMARK    1  A    between atoms: C_1  and  C_2
REMARK    2  A    between atoms: C_2  and  C_8
REMARK    3  A    between atoms: N_3  and  N_4
REMARK    4  A    between atoms: C_10  and  N_11
REMARK    5  A    between atoms: C_13  and  C_14
REMARK    6  A    between atoms: C_14  and  C_15
REMARK    7  A    between atoms: N_16  and  N_17
REMARK                            x       y       z     vdW  Elec       q    Type
REMARK                         _______ _______ _______ _____ _____    ______ ____
ROOT
ATOM      1  C   UNL     1       4.861   4.618  17.440  0.00  0.00    +0.000 A 
ATOM      2  C   UNL     1       4.299   3.336  17.340  0.00  0.00    +0.000 A 
ATOM      3  C   UNL     1       3.101   3.017  17.990  0.00  0.00    +0.000 A 
ATOM      4  C   UNL     1       2.408   4.027  18.664  0.00  0.00    +0.000 A 
ATOM      5  C   UNL     1       2.950   5.312  18.783  0.00  0.00    +0.000 A 
ATOM      6  C   UNL     1       4.177   5.602  18.167  0.00  0.00    +0.000 A 
ENDROOT
BRANCH   1   8
ATOM      7  C   UNL     1       7.439   4.673  17.572  0.00  0.00    +0.000 C 
ATOM      8  C   UNL     1       6.179   4.902  16.759  0.00  0.00    +0.000 C 
ATOM      9  N   UNL     1       6.158   5.309  15.519  0.00  0.00    +0.000 NA
BRANCH   9  10
ATOM     10  N   UNL     1       7.333   5.594  14.887  0.00  0.00    +0.000 N 
ATOM     11  C   UNL     1       7.603   5.169  13.616  0.00  0.00    +0.000 C 
ATOM     12  N   UNL     1       6.829   4.411  12.915  0.00  0.00    +0.000 NA
ATOM     13  N   UNL     1       8.780   5.596  13.109  0.00  0.00    +0.000 N 
ATOM     14  H   UNL     1       7.817   6.458  15.110  0.00  0.00    +0.000 HD
ATOM     15  H   UNL     1       6.019   4.259  13.534  0.00  0.00    +0.000 HD
ATOM     16  H   UNL     1       9.558   5.498  13.746  0.00  0.00    +0.000 HD
ATOM     17  H   UNL     1       8.962   5.099  12.242  0.00  0.00    +0.000 HD
ENDBRANCH   9  10
ENDBRANCH   1   8
BRANCH   3  18
ATOM     18  N   UNL     1       2.495   1.776  17.768  0.00  0.00    +0.000 N 
ATOM     19  H   UNL     1       2.198   1.620  16.809  0.00  0.00    +0.000 HD
ATOM     20  H   UNL     1       3.000   0.979  18.147  0.00  0.00    +0.000 HD
ENDBRANCH   3  18
BRANCH   5  21
ATOM     21  C   UNL     1       2.241   6.404  19.529  0.00  0.00    +0.000 C 
ATOM     22  C   UNL     1       1.552   6.061  20.837  0.00  0.00    +0.000 C 
ATOM     23  N   UNL     1       2.274   7.612  19.038  0.00  0.00    +0.000 NA
BRANCH  23  24
ATOM     24  N   UNL     1       1.625   8.608  19.717  0.00  0.00    +0.000 N 
ATOM     25  C   UNL     1       1.055   9.680  19.101  0.00  0.00    +0.000 C 
ATOM     26  N   UNL     1       1.112   9.908  17.833  0.00  0.00    +0.000 NA
ATOM     27  N   UNL     1       0.397  10.530  19.917  0.00  0.00    +0.000 N 
ATOM     28  H   UNL     1       1.260   8.433  20.647  0.00  0.00    +0.000 HD
ATOM     29  H   UNL     1       1.645   9.103  17.469  0.00  0.00    +0.000 HD
ATOM     30  H   UNL     1       0.891  10.765  20.768  0.00  0.00    +0.000 HD
ATOM     31  H   UNL     1       0.158  11.370  19.397  0.00  0.00    +0.000 HD
ENDBRANCH  23  24
ENDBRANCH   5  21
TORSDOF 5
ENDMDL
