MODEL 1
REMARK VINA RESULT:      -8.6      0.000      0.000
REMARK  Name = 
REMARK  10 active torsions:
REMARK  status: ('A' for Active; 'I' for Inactive)
REMARK    1  A    between atoms: C_1  and  O_2
REMARK    2  A    between atoms: O_2  and  C_3
REMARK    3  A    between atoms: C_7  and  C_8
REMARK    4  A    between atoms: C_8  and  N_9
REMARK    5  A    between atoms: C_11  and  C_12
REMARK    6  A    between atoms: C_12  and  O_13
REMARK    7  A    between atoms: O_13  and  C_14
REMARK    8  A    between atoms: C_14  and  C_16
REMARK    9  A    between atoms: C_17  and  C_18
REMARK   10  A    between atoms: C_27  and  C_28
REMARK                            x       y       z     vdW  Elec       q    Type
REMARK                         _______ _______ _______ _____ _____    ______ ____
ROOT
ATOM      1  C   UNL     1       4.926   6.401  17.621  0.00  0.00    +0.000 C 
ATOM      2  O   UNL     1       4.744   6.912  16.525  0.00  0.00    +0.000 OA
ENDROOT
BRANCH   1   3
ATOM      3  C   UNL     1       3.891   5.618  18.319  0.00  0.00    +0.000 A 
ATOM      4  C   UNL     1       3.380   4.544  17.595  0.00  0.00    +0.000 A 
ATOM      5  C   UNL     1       4.339   3.407  17.322  0.00  0.00    +0.000 C 
ATOM      6  N   UNL     1       2.067   4.172  17.694  0.00  0.00    +0.000 NA
ATOM      7  C   UNL     1       1.505   4.350  18.878  0.00  0.00    +0.000 A 
ATOM      8  C   UNL     1       0.560   3.409  19.201  0.00  0.00    +0.000 A 
ATOM      9  C   UNL     1       0.839   2.586  20.279  0.00  0.00    +0.000 A 
ATOM     10  C   UNL     1       1.981   2.857  21.026  0.00  0.00    +0.000 A 
ATOM     11 CL   UNL     1       2.663   1.590  21.972  0.00  0.00    +0.000 Cl
ATOM     12  C   UNL     1       2.656   4.084  20.866  0.00  0.00    +0.000 A 
ATOM     13  C   UNL     1       2.269   4.991  19.841  0.00  0.00    +0.000 A 
ATOM     14  C   UNL     1       3.056   6.069  19.336  0.00  0.00    +0.000 A 
BRANCH  14  15
ATOM     15  C   UNL     1       2.470   7.440  19.079  0.00  0.00    +0.000 A 
ATOM     16  C   UNL     1       2.267   7.938  17.780  0.00  0.00    +0.000 A 
ATOM     17  C   UNL     1       1.465   9.072  17.551  0.00  0.00    +0.000 A 
ATOM     18  C   UNL     1       0.861   9.744  18.612  0.00  0.00    +0.000 A 
ATOM     19  C   UNL     1       1.084   9.304  19.907  0.00  0.00    +0.000 A 
ATOM     20  C   UNL     1       1.884   8.177  20.134  0.00  0.00    +0.000 A 
ENDBRANCH  14  15
ENDBRANCH   1   3
BRANCH   1  21
ATOM     21  O   UNL     1       6.114   6.313  18.268  0.00  0.00    +0.000 OA
BRANCH  21  22
ATOM     22  C   UNL     1       7.233   6.695  17.436  0.00  0.00    +0.000 C 
BRANCH  22  25
ATOM     23  N   UNL     1       8.815   9.681  18.797  0.00  0.00    +0.000 N 
ATOM     24  C   UNL     1       8.703   8.318  18.860  0.00  0.00    +0.000 A 
ATOM     25  C   UNL     1       7.807   8.005  17.856  0.00  0.00    +0.000 A 
ATOM     26  N   UNL     1       7.425   9.161  17.225  0.00  0.00    +0.000 NA
ATOM     27  N   UNL     1       8.052  10.178  17.799  0.00  0.00    +0.000 NA
BRANCH  23  28
ATOM     28  C   UNL     1       9.669  10.567  19.559  0.00  0.00    +0.000 C 
BRANCH  28  33
ATOM     29  C   UNL     1       9.793  14.101  18.116  0.00  0.00    +0.000 A 
ATOM     30  C   UNL     1      10.881  13.997  17.247  0.00  0.00    +0.000 A 
ATOM     31  C   UNL     1      11.593  12.803  17.143  0.00  0.00    +0.000 A 
ATOM     32  C   UNL     1      11.207  11.695  17.895  0.00  0.00    +0.000 A 
ATOM     33  C   UNL     1      10.105  11.772  18.760  0.00  0.00    +0.000 A 
ATOM     34  C   UNL     1       9.421  12.995  18.882  0.00  0.00    +0.000 A 
BRANCH  29  36
ATOM     35  C   UNL     1       9.826  16.375  17.414  0.00  0.00    +0.000 C 
ATOM     36  O   UNL     1       9.177  15.323  18.116  0.00  0.00    +0.000 OA
ENDBRANCH  29  36
ENDBRANCH  28  33
ENDBRANCH  23  28
ENDBRANCH  22  25
ENDBRANCH  21  22
ENDBRANCH   1  21
TORSDOF 8
ENDMDL
MODEL 2
REMARK VINA RESULT:      -8.2      5.739      9.136
REMARK  Name = 
REMARK  10 active torsions:
REMARK  status: ('A' for Active; 'I' for Inactive)
REMARK    1  A    between atoms: C_1  and  O_2
REMARK    2  A    between atoms: O_2  and  C_3
REMARK    3  A    between atoms: C_7  and  C_8
REMARK    4  A    between atoms: C_8  and  N_9
REMARK    5  A    between atoms: C_11  and  C_12
REMARK    6  A    between atoms: C_12  and  O_13
REMARK    7  A    between atoms: O_13  and  C_14
REMARK    8  A    between atoms: C_14  and  C_16
REMARK    9  A    between atoms: C_17  and  C_18
REMARK   10  A    between atoms: C_27  and  C_28
REMARK                            x       y       z     vdW  Elec       q    Type
REMARK                         _______ _______ _______ _____ _____    ______ ____
ROOT
ATOM      1  C   UNL     1      -0.177  10.009  19.410  0.00  0.00    +0.000 C 
ATOM      2  O   UNL     1      -0.533   9.324  20.357  0.00  0.00    +0.000 OA
ENDROOT
BRANCH   1   3
ATOM      3  C   UNL     1      -0.268  11.480  19.408  0.00  0.00    +0.000 A 
ATOM      4  C   UNL     1      -0.114  12.077  20.657  0.00  0.00    +0.000 A 
ATOM      5  C   UNL     1       1.255  11.962  21.288  0.00  0.00    +0.000 C 
ATOM      6  N   UNL     1      -0.809  13.204  21.003  0.00  0.00    +0.000 NA
ATOM      7  C   UNL     1      -1.062  14.051  20.019  0.00  0.00    +0.000 A 
ATOM      8  C   UNL     1      -1.071  15.369  20.398  0.00  0.00    +0.000 A 
ATOM      9  C   UNL     1      -0.089  16.183  19.857  0.00  0.00    +0.000 A 
ATOM     10  C   UNL     1       0.741  15.640  18.882  0.00  0.00    +0.000 A 
ATOM     11 CL   UNL     1       2.272  16.377  18.603  0.00  0.00    +0.000 Cl
ATOM     12  C   UNL     1       0.406  14.415  18.270  0.00  0.00    +0.000 A 
ATOM     13  C   UNL     1      -0.697  13.651  18.743  0.00  0.00    +0.000 A 
ATOM     14  C   UNL     1      -0.933  12.269  18.477  0.00  0.00    +0.000 A 
BRANCH  14  15
ATOM     15  C   UNL     1      -2.304  11.746  18.105  0.00  0.00    +0.000 A 
ATOM     16  C   UNL     1      -3.420  11.905  18.944  0.00  0.00    +0.000 A 
ATOM     17  C   UNL     1      -4.726  11.679  18.470  0.00  0.00    +0.000 A 
ATOM     18  C   UNL     1      -4.948  11.276  17.154  0.00  0.00    +0.000 A 
ATOM     19  C   UNL     1      -3.862  11.064  16.320  0.00  0.00    +0.000 A 
ATOM     20  C   UNL     1      -2.563  11.286  16.793  0.00  0.00    +0.000 A 
ENDBRANCH  14  15
ENDBRANCH   1   3
BRANCH   1  21
ATOM     21  O   UNL     1       0.500   9.568  18.322  0.00  0.00    +0.000 OA
BRANCH  21  22
ATOM     22  C   UNL     1       1.913   9.393  18.577  0.00  0.00    +0.000 C 
BRANCH  22  25
ATOM     23  N   UNL     1       2.836   5.869  18.554  0.00  0.00    +0.000 N 
ATOM     24  C   UNL     1       2.750   7.032  17.837  0.00  0.00    +0.000 A 
ATOM     25  C   UNL     1       2.267   7.954  18.744  0.00  0.00    +0.000 A 
ATOM     26  N   UNL     1       2.093   7.337  19.957  0.00  0.00    +0.000 NA
ATOM     27  N   UNL     1       2.452   6.067  19.834  0.00  0.00    +0.000 NA
BRANCH  23  28
ATOM     28  C   UNL     1       3.346   4.577  18.148  0.00  0.00    +0.000 C 
BRANCH  28  33
ATOM     29  C   UNL     1       6.481   4.506  15.966  0.00  0.00    +0.000 A 
ATOM     30  C   UNL     1       7.477   4.709  16.923  0.00  0.00    +0.000 A 
ATOM     31  C   UNL     1       7.144   4.898  18.263  0.00  0.00    +0.000 A 
ATOM     32  C   UNL     1       5.809   4.863  18.661  0.00  0.00    +0.000 A 
ATOM     33  C   UNL     1       4.793   4.640  17.718  0.00  0.00    +0.000 A 
ATOM     34  C   UNL     1       5.142   4.490  16.364  0.00  0.00    +0.000 A 
BRANCH  29  36
ATOM     35  C   UNL     1       6.005   3.874  13.721  0.00  0.00    +0.000 C 
ATOM     36  O   UNL     1       6.942   4.325  14.690  0.00  0.00    +0.000 OA
ENDBRANCH  29  36
ENDBRANCH  28  33
ENDBRANCH  23  28
ENDBRANCH  22  25
ENDBRANCH  21  22
ENDBRANCH   1  21
TORSDOF 8
ENDMDL
MODEL 3
REMARK VINA RESULT:      -8.1      5.559      9.663
REMARK  Name = 
REMARK  10 active torsions:
REMARK  status: ('A' for Active; 'I' for Inactive)
REMARK    1  A    between atoms: C_1  and  O_2
REMARK    2  A    between atoms: O_2  and  C_3
REMARK    3  A    between atoms: C_7  and  C_8
REMARK    4  A    between atoms: C_8  and  N_9
REMARK    5  A    between atoms: C_11  and  C_12
REMARK    6  A    between atoms: C_12  and  O_13
REMARK    7  A    between atoms: O_13  and  C_14
REMARK    8  A    between atoms: C_14  and  C_16
REMARK    9  A    between atoms: C_17  and  C_18
REMARK   10  A    between atoms: C_27  and  C_28
REMARK                            x       y       z     vdW  Elec       q    Type
REMARK                         _______ _______ _______ _____ _____    ______ ____
ROOT
ATOM      1  C   UNL     1      -1.190  11.475  21.951  0.00  0.00    +0.000 C 
ATOM      2  O   UNL     1      -1.695  11.753  23.029  0.00  0.00    +0.000 OA
ENDROOT
BRANCH   1   3
ATOM      3  C   UNL     1      -0.701  12.498  21.010  0.00  0.00    +0.000 A 
ATOM      4  C   UNL     1      -0.943  13.814  21.397  0.00  0.00    +0.000 A 
ATOM      5  C   UNL     1      -0.200  14.297  22.621  0.00  0.00    +0.000 C 
ATOM      6  N   UNL     1      -1.230  14.790  20.481  0.00  0.00    +0.000 NA
ATOM      7  C   UNL     1      -0.641  14.666  19.303  0.00  0.00    +0.000 A 
ATOM      8  C   UNL     1      -0.325  15.858  18.702  0.00  0.00    +0.000 A 
ATOM      9  C   UNL     1       1.020  16.130  18.520  0.00  0.00    +0.000 A 
ATOM     10  C   UNL     1       1.935  15.130  18.836  0.00  0.00    +0.000 A 
ATOM     11 CL   UNL     1       3.563  15.582  19.168  0.00  0.00    +0.000 Cl
ATOM     12  C   UNL     1       1.492  13.810  19.051  0.00  0.00    +0.000 A 
ATOM     13  C   UNL     1       0.102  13.514  19.095  0.00  0.00    +0.000 A 
ATOM     14  C   UNL     1      -0.487  12.335  19.646  0.00  0.00    +0.000 A 
BRANCH  14  15
ATOM     15  C   UNL     1      -1.597  11.588  18.940  0.00  0.00    +0.000 A 
ATOM     16  C   UNL     1      -2.935  12.016  18.985  0.00  0.00    +0.000 A 
ATOM     17  C   UNL     1      -3.898  11.491  18.102  0.00  0.00    +0.000 A 
ATOM     18  C   UNL     1      -3.553  10.518  17.166  0.00  0.00    +0.000 A 
ATOM     19  C   UNL     1      -2.251  10.043  17.133  0.00  0.00    +0.000 A 
ATOM     20  C   UNL     1      -1.295  10.564  18.014  0.00  0.00    +0.000 A 
ENDBRANCH  14  15
ENDBRANCH   1   3
BRANCH   1  21
ATOM     21  O   UNL     1      -0.843  10.233  21.534  0.00  0.00    +0.000 OA
BRANCH  21  22
ATOM     22  C   UNL     1       0.487   9.854  21.957  0.00  0.00    +0.000 C 
BRANCH  22  25
ATOM     23  N   UNL     1       1.999   7.892  19.285  0.00  0.00    +0.000 N 
ATOM     24  C   UNL     1       1.523   9.115  19.676  0.00  0.00    +0.000 A 
ATOM     25  C   UNL     1       1.128   8.922  20.985  0.00  0.00    +0.000 A 
ATOM     26  N   UNL     1       1.382   7.622  21.340  0.00  0.00    +0.000 NA
ATOM     27  N   UNL     1       1.923   7.004  20.301  0.00  0.00    +0.000 NA
BRANCH  23  28
ATOM     28  C   UNL     1       2.615   7.505  18.035  0.00  0.00    +0.000 C 
BRANCH  28  33
ATOM     29  C   UNL     1       5.041   4.578  18.409  0.00  0.00    +0.000 A 
ATOM     30  C   UNL     1       4.206   3.499  18.111  0.00  0.00    +0.000 A 
ATOM     31  C   UNL     1       2.859   3.706  17.817  0.00  0.00    +0.000 A 
ATOM     32  C   UNL     1       2.341   5.000  17.799  0.00  0.00    +0.000 A 
ATOM     33  C   UNL     1       3.167   6.099  18.077  0.00  0.00    +0.000 A 
ATOM     34  C   UNL     1       4.514   5.871  18.409  0.00  0.00    +0.000 A 
BRANCH  29  36
ATOM     35  C   UNL     1       7.328   4.721  17.768  0.00  0.00    +0.000 C 
ATOM     36  O   UNL     1       6.341   4.239  18.670  0.00  0.00    +0.000 OA
ENDBRANCH  29  36
ENDBRANCH  28  33
ENDBRANCH  23  28
ENDBRANCH  22  25
ENDBRANCH  21  22
ENDBRANCH   1  21
TORSDOF 8
ENDMDL
MODEL 4
REMARK VINA RESULT:      -8.0      5.366      9.433
REMARK  Name = 
REMARK  10 active torsions:
REMARK  status: ('A' for Active; 'I' for Inactive)
REMARK    1  A    between atoms: C_1  and  O_2
REMARK    2  A    between atoms: O_2  and  C_3
REMARK    3  A    between atoms: C_7  and  C_8
REMARK    4  A    between atoms: C_8  and  N_9
REMARK    5  A    between atoms: C_11  and  C_12
REMARK    6  A    between atoms: C_12  and  O_13
REMARK    7  A    between atoms: O_13  and  C_14
REMARK    8  A    between atoms: C_14  and  C_16
REMARK    9  A    between atoms: C_17  and  C_18
REMARK   10  A    between atoms: C_27  and  C_28
REMARK                            x       y       z     vdW  Elec       q    Type
REMARK                         _______ _______ _______ _____ _____    ______ ____
ROOT
ATOM      1  C   UNL     1       0.360  11.445  18.890  0.00  0.00    +0.000 C 
ATOM      2  O   UNL     1      -0.507  10.922  18.206  0.00  0.00    +0.000 OA
ENDROOT
BRANCH   1   3
ATOM      3  C   UNL     1       0.402  12.894  19.157  0.00  0.00    +0.000 A 
ATOM      4  C   UNL     1       1.674  13.410  19.391  0.00  0.00    +0.000 A 
ATOM      5  C   UNL     1       2.627  13.395  18.218  0.00  0.00    +0.000 C 
ATOM      6  N   UNL     1       1.883  14.427  20.283  0.00  0.00    +0.000 NA
ATOM      7  C   UNL     1       0.906  15.314  20.385  0.00  0.00    +0.000 A 
ATOM      8  C   UNL     1       1.330  16.592  20.649  0.00  0.00    +0.000 A 
ATOM      9  C   UNL     1       1.094  17.543  19.671  0.00  0.00    +0.000 A 
ATOM     10  C   UNL     1       0.338  17.166  18.565  0.00  0.00    +0.000 A 
ATOM     11 CL   UNL     1       0.492  18.081  17.114  0.00  0.00    +0.000 Cl
ATOM     12  C   UNL     1      -0.394  15.961  18.586  0.00  0.00    +0.000 A 
ATOM     13  C   UNL     1      -0.252  15.051  19.670  0.00  0.00    +0.000 A 
ATOM     14  C   UNL     1      -0.631  13.675  19.662  0.00  0.00    +0.000 A 
BRANCH  14  15
ATOM     15  C   UNL     1      -1.363  13.038  20.823  0.00  0.00    +0.000 A 
ATOM     16  C   UNL     1      -0.704  12.647  22.001  0.00  0.00    +0.000 A 
ATOM     17  C   UNL     1      -1.424  12.330  23.169  0.00  0.00    +0.000 A 
ATOM     18  C   UNL     1      -2.816  12.382  23.185  0.00  0.00    +0.000 A 
ATOM     19  C   UNL     1      -3.494  12.717  22.022  0.00  0.00    +0.000 A 
ATOM     20  C   UNL     1      -2.776  13.029  20.861  0.00  0.00    +0.000 A 
ENDBRANCH  14  15
ENDBRANCH   1   3
BRANCH   1  21
ATOM     21  O   UNL     1       1.282  10.793  19.639  0.00  0.00    +0.000 OA
BRANCH  21  22
ATOM     22  C   UNL     1       0.840   9.480  20.051  0.00  0.00    +0.000 C 
BRANCH  22  25
ATOM     23  N   UNL     1       2.808   6.642  18.888  0.00  0.00    +0.000 N 
ATOM     24  C   UNL     1       2.036   7.163  19.892  0.00  0.00    +0.000 A 
ATOM     25  C   UNL     1       1.652   8.402  19.417  0.00  0.00    +0.000 A 
ATOM     26  N   UNL     1       2.182   8.582  18.165  0.00  0.00    +0.000 NA
ATOM     27  N   UNL     1       2.877   7.500  17.846  0.00  0.00    +0.000 NA
BRANCH  23  28
ATOM     28  C   UNL     1       3.427   5.339  18.790  0.00  0.00    +0.000 C 
BRANCH  28  33
ATOM     29  C   UNL     1       6.491   5.494  16.515  0.00  0.00    +0.000 A 
ATOM     30  C   UNL     1       7.522   5.516  17.456  0.00  0.00    +0.000 A 
ATOM     31  C   UNL     1       7.236   5.509  18.821  0.00  0.00    +0.000 A 
ATOM     32  C   UNL     1       5.912   5.459  19.254  0.00  0.00    +0.000 A 
ATOM     33  C   UNL     1       4.862   5.417  18.325  0.00  0.00    +0.000 A 
ATOM     34  C   UNL     1       5.166   5.463  16.952  0.00  0.00    +0.000 A 
BRANCH  29  36
ATOM     35  C   UNL     1       6.552   4.371  14.418  0.00  0.00    +0.000 C 
ATOM     36  O   UNL     1       6.908   5.495  15.211  0.00  0.00    +0.000 OA
ENDBRANCH  29  36
ENDBRANCH  28  33
ENDBRANCH  23  28
ENDBRANCH  22  25
ENDBRANCH  21  22
ENDBRANCH   1  21
TORSDOF 8
ENDMDL
MODEL 5
REMARK VINA RESULT:      -7.9      5.026      8.844
REMARK  Name = 
REMARK  10 active torsions:
REMARK  status: ('A' for Active; 'I' for Inactive)
REMARK    1  A    between atoms: C_1  and  O_2
REMARK    2  A    between atoms: O_2  and  C_3
REMARK    3  A    between atoms: C_7  and  C_8
REMARK    4  A    between atoms: C_8  and  N_9
REMARK    5  A    between atoms: C_11  and  C_12
REMARK    6  A    between atoms: C_12  and  O_13
REMARK    7  A    between atoms: O_13  and  C_14
REMARK    8  A    between atoms: C_14  and  C_16
REMARK    9  A    between atoms: C_17  and  C_18
REMARK   10  A    between atoms: C_27  and  C_28
REMARK                            x       y       z     vdW  Elec       q    Type
REMARK                         _______ _______ _______ _____ _____    ______ ____
ROOT
ATOM      1  C   UNL     1       1.672   7.038  20.420  0.00  0.00    +0.000 C 
ATOM      2  O   UNL     1       0.808   6.266  20.811  0.00  0.00    +0.000 OA
ENDROOT
BRANCH   1   3
ATOM      3  C   UNL     1       2.758   6.630  19.511  0.00  0.00    +0.000 A 
ATOM      4  C   UNL     1       2.608   7.053  18.193  0.00  0.00    +0.000 A 
ATOM      5  C   UNL     1       2.700   8.543  17.956  0.00  0.00    +0.000 C 
ATOM      6  N   UNL     1       3.021   6.282  17.140  0.00  0.00    +0.000 NA
ATOM      7  C   UNL     1       4.092   5.537  17.357  0.00  0.00    +0.000 A 
ATOM      8  C   UNL     1       4.891   5.363  16.255  0.00  0.00    +0.000 A 
ATOM      9  C   UNL     1       6.164   5.904  16.314  0.00  0.00    +0.000 A 
ATOM     10  C   UNL     1       6.579   6.461  17.520  0.00  0.00    +0.000 A 
ATOM     11 CL   UNL     1       7.862   7.610  17.495  0.00  0.00    +0.000 Cl
ATOM     12  C   UNL     1       5.846   6.221  18.699  0.00  0.00    +0.000 A 
ATOM     13  C   UNL     1       4.601   5.536  18.647  0.00  0.00    +0.000 A 
ATOM     14  C   UNL     1       3.601   5.536  19.666  0.00  0.00    +0.000 A 
BRANCH  14  15
ATOM     15  C   UNL     1       2.887   4.271  20.089  0.00  0.00    +0.000 A 
ATOM     16  C   UNL     1       2.786   3.882  21.436  0.00  0.00    +0.000 A 
ATOM     17  C   UNL     1       1.886   2.877  21.839  0.00  0.00    +0.000 A 
ATOM     18  C   UNL     1       1.077   2.228  20.908  0.00  0.00    +0.000 A 
ATOM     19  C   UNL     1       1.192   2.558  19.566  0.00  0.00    +0.000 A 
ATOM     20  C   UNL     1       2.090   3.555  19.166  0.00  0.00    +0.000 A 
ENDBRANCH  14  15
ENDBRANCH   1   3
BRANCH   1  21
ATOM     21  O   UNL     1       1.674   8.381  20.599  0.00  0.00    +0.000 OA
BRANCH  21  22
ATOM     22  C   UNL     1       1.389   8.763  21.964  0.00  0.00    +0.000 C 
BRANCH  22  25
ATOM     23  N   UNL     1      -0.648  11.773  21.703  0.00  0.00    +0.000 N 
ATOM     24  C   UNL     1       0.136  10.863  21.045  0.00  0.00    +0.000 A 
ATOM     25  C   UNL     1       0.505   9.963  22.025  0.00  0.00    +0.000 A 
ATOM     26  N   UNL     1      -0.064  10.341  23.214  0.00  0.00    +0.000 NA
ATOM     27  N   UNL     1      -0.773  11.441  23.007  0.00  0.00    +0.000 NA
BRANCH  23  28
ATOM     28  C   UNL     1      -1.377  12.906  21.176  0.00  0.00    +0.000 C 
BRANCH  28  33
ATOM     29  C   UNL     1      -2.884  11.674  17.889  0.00  0.00    +0.000 A 
ATOM     30  C   UNL     1      -4.249  11.797  18.159  0.00  0.00    +0.000 A 
ATOM     31  C   UNL     1      -4.688  12.248  19.403  0.00  0.00    +0.000 A 
ATOM     32  C   UNL     1      -3.761  12.600  20.382  0.00  0.00    +0.000 A 
ATOM     33  C   UNL     1      -2.385  12.503  20.125  0.00  0.00    +0.000 A 
ATOM     34  C   UNL     1      -1.958  12.010  18.879  0.00  0.00    +0.000 A 
BRANCH  29  36
ATOM     35  C   UNL     1      -2.927   9.884  16.321  0.00  0.00    +0.000 C 
ATOM     36  O   UNL     1      -2.588  11.230  16.629  0.00  0.00    +0.000 OA
ENDBRANCH  29  36
ENDBRANCH  28  33
ENDBRANCH  23  28
ENDBRANCH  22  25
ENDBRANCH  21  22
ENDBRANCH   1  21
TORSDOF 8
ENDMDL
MODEL 6
REMARK VINA RESULT:      -7.9      5.794      9.955
REMARK  Name = 
REMARK  10 active torsions:
REMARK  status: ('A' for Active; 'I' for Inactive)
REMARK    1  A    between atoms: C_1  and  O_2
REMARK    2  A    between atoms: O_2  and  C_3
REMARK    3  A    between atoms: C_7  and  C_8
REMARK    4  A    between atoms: C_8  and  N_9
REMARK    5  A    between atoms: C_11  and  C_12
REMARK    6  A    between atoms: C_12  and  O_13
REMARK    7  A    between atoms: O_13  and  C_14
REMARK    8  A    between atoms: C_14  and  C_16
REMARK    9  A    between atoms: C_17  and  C_18
REMARK   10  A    between atoms: C_27  and  C_28
REMARK                            x       y       z     vdW  Elec       q    Type
REMARK                         _______ _______ _______ _____ _____    ______ ____
ROOT
ATOM      1  C   UNL     1      -1.505  12.576  22.375  0.00  0.00    +0.000 C 
ATOM      2  O   UNL     1      -2.679  12.740  22.675  0.00  0.00    +0.000 OA
ENDROOT
BRANCH   1   3
ATOM      3  C   UNL     1      -0.818  13.394  21.360  0.00  0.00    +0.000 A 
ATOM      4  C   UNL     1      -1.202  14.733  21.329  0.00  0.00    +0.000 A 
ATOM      5  C   UNL     1      -0.831  15.561  22.538  0.00  0.00    +0.000 C 
ATOM      6  N   UNL     1      -1.267  15.433  20.155  0.00  0.00    +0.000 NA
ATOM      7  C   UNL     1      -0.380  15.098  19.233  0.00  0.00    +0.000 A 
ATOM      8  C   UNL     1       0.043  16.142  18.450  0.00  0.00    +0.000 A 
ATOM      9  C   UNL     1       1.378  16.498  18.549  0.00  0.00    +0.000 A 
ATOM     10  C   UNL     1       2.209  15.697  19.326  0.00  0.00    +0.000 A 
ATOM     11 CL   UNL     1       3.672  16.375  19.931  0.00  0.00    +0.000 Cl
ATOM     12  C   UNL     1       1.772  14.426  19.749  0.00  0.00    +0.000 A 
ATOM     13  C   UNL     1       0.432  14.010  19.516  0.00  0.00    +0.000 A 
ATOM     14  C   UNL     1      -0.241  12.940  20.180  0.00  0.00    +0.000 A 
BRANCH  14  15
ATOM     15  C   UNL     1      -1.094  11.940  19.430  0.00  0.00    +0.000 A 
ATOM     16  C   UNL     1      -2.438  12.194  19.108  0.00  0.00    +0.000 A 
ATOM     17  C   UNL     1      -3.127  11.398  18.174  0.00  0.00    +0.000 A 
ATOM     18  C   UNL     1      -2.497  10.323  17.550  0.00  0.00    +0.000 A 
ATOM     19  C   UNL     1      -1.186  10.020  17.886  0.00  0.00    +0.000 A 
ATOM     20  C   UNL     1      -0.503  10.811  18.818  0.00  0.00    +0.000 A 
ENDBRANCH  14  15
ENDBRANCH   1   3
BRANCH   1  21
ATOM     21  O   UNL     1      -0.625  11.774  23.022  0.00  0.00    +0.000 OA
BRANCH  21  22
ATOM     22  C   UNL     1      -1.073  10.402  23.102  0.00  0.00    +0.000 C 
BRANCH  22  25
ATOM     23  N   UNL     1       1.005   7.831  21.569  0.00  0.00    +0.000 N 
ATOM     24  C   UNL     1      -0.263   8.230  21.898  0.00  0.00    +0.000 A 
ATOM     25  C   UNL     1      -0.088   9.466  22.489  0.00  0.00    +0.000 A 
ATOM     26  N   UNL     1       1.249   9.774  22.488  0.00  0.00    +0.000 NA
ATOM     27  N   UNL     1       1.907   8.776  21.916  0.00  0.00    +0.000 NA
BRANCH  23  28
ATOM     28  C   UNL     1       1.439   6.648  20.859  0.00  0.00    +0.000 C 
BRANCH  28  33
ATOM     29  C   UNL     1       3.972   6.443  18.007  0.00  0.00    +0.000 A 
ATOM     30  C   UNL     1       3.683   7.616  17.309  0.00  0.00    +0.000 A 
ATOM     31  C   UNL     1       2.657   8.460  17.734  0.00  0.00    +0.000 A 
ATOM     32  C   UNL     1       1.926   8.145  18.878  0.00  0.00    +0.000 A 
ATOM     33  C   UNL     1       2.213   6.981  19.606  0.00  0.00    +0.000 A 
ATOM     34  C   UNL     1       3.225   6.120  19.142  0.00  0.00    +0.000 A 
BRANCH  29  36
ATOM     35  C   UNL     1       4.665   4.571  16.712  0.00  0.00    +0.000 C 
ATOM     36  O   UNL     1       5.006   5.710  17.491  0.00  0.00    +0.000 OA
ENDBRANCH  29  36
ENDBRANCH  28  33
ENDBRANCH  23  28
ENDBRANCH  22  25
ENDBRANCH  21  22
ENDBRANCH   1  21
TORSDOF 8
ENDMDL
MODEL 7
REMARK VINA RESULT:      -7.9      5.509      9.785
REMARK  Name = 
REMARK  10 active torsions:
REMARK  status: ('A' for Active; 'I' for Inactive)
REMARK    1  A    between atoms: C_1  and  O_2
REMARK    2  A    between atoms: O_2  and  C_3
REMARK    3  A    between atoms: C_7  and  C_8
REMARK    4  A    between atoms: C_8  and  N_9
REMARK    5  A    between atoms: C_11  and  C_12
REMARK    6  A    between atoms: C_12  and  O_13
REMARK    7  A    between atoms: O_13  and  C_14
REMARK    8  A    between atoms: C_14  and  C_16
REMARK    9  A    between atoms: C_17  and  C_18
REMARK   10  A    between atoms: C_27  and  C_28
REMARK                            x       y       z     vdW  Elec       q    Type
REMARK                         _______ _______ _______ _____ _____    ______ ____
ROOT
ATOM      1  C   UNL     1       0.225  11.778  18.864  0.00  0.00    +0.000 C 
ATOM      2  O   UNL     1      -0.767  11.288  18.343  0.00  0.00    +0.000 OA
ENDROOT
BRANCH   1   3
ATOM      3  C   UNL     1       0.391  13.229  19.061  0.00  0.00    +0.000 A 
ATOM      4  C   UNL     1       1.710  13.654  19.198  0.00  0.00    +0.000 A 
ATOM      5  C   UNL     1       2.585  13.518  17.974  0.00  0.00    +0.000 C 
ATOM      6  N   UNL     1       2.048  14.688  20.029  0.00  0.00    +0.000 NA
ATOM      7  C   UNL     1       1.148  15.650  20.147  0.00  0.00    +0.000 A 
ATOM      8  C   UNL     1       1.681  16.901  20.327  0.00  0.00    +0.000 A 
ATOM      9  C   UNL     1       1.457  17.827  19.323  0.00  0.00    +0.000 A 
ATOM     10  C   UNL     1       0.609  17.465  18.281  0.00  0.00    +0.000 A 
ATOM     11 CL   UNL     1       0.742  18.305  16.783  0.00  0.00    +0.000 Cl
ATOM     12  C   UNL     1      -0.208  16.322  18.398  0.00  0.00    +0.000 A 
ATOM     13  C   UNL     1      -0.068  15.449  19.512  0.00  0.00    +0.000 A 
ATOM     14  C   UNL     1      -0.549  14.107  19.590  0.00  0.00    +0.000 A 
BRANCH  14  15
ATOM     15  C   UNL     1      -1.254  13.576  20.819  0.00  0.00    +0.000 A 
ATOM     16  C   UNL     1      -2.650  13.418  20.873  0.00  0.00    +0.000 A 
ATOM     17  C   UNL     1      -3.258  12.664  21.894  0.00  0.00    +0.000 A 
ATOM     18  C   UNL     1      -2.492  12.064  22.892  0.00  0.00    +0.000 A 
ATOM     19  C   UNL     1      -1.118  12.245  22.890  0.00  0.00    +0.000 A 
ATOM     20  C   UNL     1      -0.514  12.998  21.875  0.00  0.00    +0.000 A 
ENDBRANCH  14  15
ENDBRANCH   1   3
BRANCH   1  21
ATOM     21  O   UNL     1       1.213  11.092  19.487  0.00  0.00    +0.000 OA
BRANCH  21  22
ATOM     22  C   UNL     1       0.734   9.902  20.154  0.00  0.00    +0.000 C 
BRANCH  22  25
ATOM     23  N   UNL     1       2.507   6.788  19.498  0.00  0.00    +0.000 N 
ATOM     24  C   UNL     1       1.724   7.495  20.370  0.00  0.00    +0.000 A 
ATOM     25  C   UNL     1       1.484   8.689  19.720  0.00  0.00    +0.000 A 
ATOM     26  N   UNL     1       2.106   8.662  18.497  0.00  0.00    +0.000 NA
ATOM     27  N   UNL     1       2.719   7.495  18.366  0.00  0.00    +0.000 NA
BRANCH  23  28
ATOM     28  C   UNL     1       3.011   5.436  19.607  0.00  0.00    +0.000 C 
BRANCH  28  33
ATOM     29  C   UNL     1       5.237   4.504  16.646  0.00  0.00    +0.000 A 
ATOM     30  C   UNL     1       6.505   4.740  17.181  0.00  0.00    +0.000 A 
ATOM     31  C   UNL     1       6.647   5.225  18.480  0.00  0.00    +0.000 A 
ATOM     32  C   UNL     1       5.518   5.457  19.264  0.00  0.00    +0.000 A 
ATOM     33  C   UNL     1       4.236   5.208  18.753  0.00  0.00    +0.000 A 
ATOM     34  C   UNL     1       4.107   4.756  17.427  0.00  0.00    +0.000 A 
BRANCH  29  36
ATOM     35  C   UNL     1       6.457   4.110  14.641  0.00  0.00    +0.000 C 
ATOM     36  O   UNL     1       5.238   4.021  15.366  0.00  0.00    +0.000 OA
ENDBRANCH  29  36
ENDBRANCH  28  33
ENDBRANCH  23  28
ENDBRANCH  22  25
ENDBRANCH  21  22
ENDBRANCH   1  21
TORSDOF 8
ENDMDL
MODEL 8
REMARK VINA RESULT:      -7.9      5.647     10.094
REMARK  Name = 
REMARK  10 active torsions:
REMARK  status: ('A' for Active; 'I' for Inactive)
REMARK    1  A    between atoms: C_1  and  O_2
REMARK    2  A    between atoms: O_2  and  C_3
REMARK    3  A    between atoms: C_7  and  C_8
REMARK    4  A    between atoms: C_8  and  N_9
REMARK    5  A    between atoms: C_11  and  C_12
REMARK    6  A    between atoms: C_12  and  O_13
REMARK    7  A    between atoms: O_13  and  C_14
REMARK    8  A    between atoms: C_14  and  C_16
REMARK    9  A    between atoms: C_17  and  C_18
REMARK   10  A    between atoms: C_27  and  C_28
REMARK                            x       y       z     vdW  Elec       q    Type
REMARK                         _______ _______ _______ _____ _____    ______ ____
ROOT
ATOM      1  C   UNL     1       0.104  12.036  19.086  0.00  0.00    +0.000 C 
ATOM      2  O   UNL     1      -0.738  11.497  18.382  0.00  0.00    +0.000 OA
ENDROOT
BRANCH   1   3
ATOM      3  C   UNL     1       0.215  13.499  19.221  0.00  0.00    +0.000 A 
ATOM      4  C   UNL     1       1.514  13.975  19.384  0.00  0.00    +0.000 A 
ATOM      5  C   UNL     1       2.438  13.813  18.199  0.00  0.00    +0.000 C 
ATOM      6  N   UNL     1       1.788  15.055  20.178  0.00  0.00    +0.000 NA
ATOM      7  C   UNL     1       0.854  15.991  20.220  0.00  0.00    +0.000 A 
ATOM      8  C   UNL     1       1.340  17.266  20.361  0.00  0.00    +0.000 A 
ATOM      9  C   UNL     1       1.123  18.138  19.307  0.00  0.00    +0.000 A 
ATOM     10  C   UNL     1       0.325  17.700  18.255  0.00  0.00    +0.000 A 
ATOM     11 CL   UNL     1       0.485  18.476  16.725  0.00  0.00    +0.000 Cl
ATOM     12  C   UNL     1      -0.458  16.537  18.396  0.00  0.00    +0.000 A 
ATOM     13  C   UNL     1      -0.331  15.720  19.554  0.00  0.00    +0.000 A 
ATOM     14  C   UNL     1      -0.771  14.367  19.676  0.00  0.00    +0.000 A 
BRANCH  14  15
ATOM     15  C   UNL     1      -1.502  13.869  20.903  0.00  0.00    +0.000 A 
ATOM     16  C   UNL     1      -2.832  13.417  20.852  0.00  0.00    +0.000 A 
ATOM     17  C   UNL     1      -3.398  12.695  21.919  0.00  0.00    +0.000 A 
ATOM     18  C   UNL     1      -2.658  12.421  23.068  0.00  0.00    +0.000 A 
ATOM     19  C   UNL     1      -1.360  12.898  23.165  0.00  0.00    +0.000 A 
ATOM     20  C   UNL     1      -0.799  13.619  22.104  0.00  0.00    +0.000 A 
ENDBRANCH  14  15
ENDBRANCH   1   3
BRANCH   1  21
ATOM     21  O   UNL     1       0.922  11.408  19.965  0.00  0.00    +0.000 OA
BRANCH  21  22
ATOM     22  C   UNL     1       0.312  10.240  20.560  0.00  0.00    +0.000 C 
BRANCH  22  25
ATOM     23  N   UNL     1       2.073   7.083  20.103  0.00  0.00    +0.000 N 
ATOM     24  C   UNL     1       1.336   7.868  20.948  0.00  0.00    +0.000 A 
ATOM     25  C   UNL     1       1.047   8.993  20.201  0.00  0.00    +0.000 A 
ATOM     26  N   UNL     1       1.596   8.851  18.952  0.00  0.00    +0.000 NA
ATOM     27  N   UNL     1       2.212   7.678  18.898  0.00  0.00    +0.000 NA
BRANCH  23  28
ATOM     28  C   UNL     1       2.595   5.750  20.311  0.00  0.00    +0.000 C 
BRANCH  28  33
ATOM     29  C   UNL     1       5.393   5.189  17.772  0.00  0.00    +0.000 A 
ATOM     30  C   UNL     1       4.766   4.329  16.869  0.00  0.00    +0.000 A 
ATOM     31  C   UNL     1       3.455   3.906  17.087  0.00  0.00    +0.000 A 
ATOM     32  C   UNL     1       2.754   4.359  18.203  0.00  0.00    +0.000 A 
ATOM     33  C   UNL     1       3.359   5.238  19.113  0.00  0.00    +0.000 A 
ATOM     34  C   UNL     1       4.695   5.625  18.900  0.00  0.00    +0.000 A 
BRANCH  29  36
ATOM     35  C   UNL     1       7.679   4.545  17.618  0.00  0.00    +0.000 C 
ATOM     36  O   UNL     1       6.674   5.534  17.437  0.00  0.00    +0.000 OA
ENDBRANCH  29  36
ENDBRANCH  28  33
ENDBRANCH  23  28
ENDBRANCH  22  25
ENDBRANCH  21  22
ENDBRANCH   1  21
TORSDOF 8
ENDMDL
MODEL 9
REMARK VINA RESULT:      -7.9      5.455      9.761
REMARK  Name = 
REMARK  10 active torsions:
REMARK  status: ('A' for Active; 'I' for Inactive)
REMARK    1  A    between atoms: C_1  and  O_2
REMARK    2  A    between atoms: O_2  and  C_3
REMARK    3  A    between atoms: C_7  and  C_8
REMARK    4  A    between atoms: C_8  and  N_9
REMARK    5  A    between atoms: C_11  and  C_12
REMARK    6  A    between atoms: C_12  and  O_13
REMARK    7  A    between atoms: O_13  and  C_14
REMARK    8  A    between atoms: C_14  and  C_16
REMARK    9  A    between atoms: C_17  and  C_18
REMARK   10  A    between atoms: C_27  and  C_28
REMARK                            x       y       z     vdW  Elec       q    Type
REMARK                         _______ _______ _______ _____ _____    ______ ____
ROOT
ATOM      1  C   UNL     1      -0.817  12.780  21.861  0.00  0.00    +0.000 C 
ATOM      2  O   UNL     1      -2.004  13.070  21.839  0.00  0.00    +0.000 OA
ENDROOT
BRANCH   1   3
ATOM      3  C   UNL     1       0.195  13.495  21.063  0.00  0.00    +0.000 A 
ATOM      4  C   UNL     1       0.042  14.879  21.027  0.00  0.00    +0.000 A 
ATOM      5  C   UNL     1       0.265  15.609  22.332  0.00  0.00    +0.000 C 
ATOM      6  N   UNL     1       0.345  15.606  19.908  0.00  0.00    +0.000 NA
ATOM      7  C   UNL     1       1.348  15.148  19.177  0.00  0.00    +0.000 A 
ATOM      8  C   UNL     1       2.090  16.124  18.562  0.00  0.00    +0.000 A 
ATOM      9  C   UNL     1       3.410  16.252  18.961  0.00  0.00    +0.000 A 
ATOM     10  C   UNL     1       3.915  15.308  19.849  0.00  0.00    +0.000 A 
ATOM     11 CL   UNL     1       5.299  15.722  20.788  0.00  0.00    +0.000 Cl
ATOM     12  C   UNL     1       3.203  14.118  20.098  0.00  0.00    +0.000 A 
ATOM     13  C   UNL     1       1.898  13.934  19.563  0.00  0.00    +0.000 A 
ATOM     14  C   UNL     1       0.937  12.976  20.008  0.00  0.00    +0.000 A 
BRANCH  14  15
ATOM     15  C   UNL     1       0.122  12.148  19.040  0.00  0.00    +0.000 A 
ATOM     16  C   UNL     1       0.337  10.770  18.865  0.00  0.00    +0.000 A 
ATOM     17  C   UNL     1      -0.601   9.965  18.191  0.00  0.00    +0.000 A 
ATOM     18  C   UNL     1      -1.767  10.517  17.664  0.00  0.00    +0.000 A 
ATOM     19  C   UNL     1      -1.981  11.882  17.780  0.00  0.00    +0.000 A 
ATOM     20  C   UNL     1      -1.046  12.682  18.447  0.00  0.00    +0.000 A 
ENDBRANCH  14  15
ENDBRANCH   1   3
BRANCH   1  21
ATOM     21  O   UNL     1      -0.227  11.915  22.721  0.00  0.00    +0.000 OA
BRANCH  21  22
ATOM     22  C   UNL     1      -0.870  10.620  22.740  0.00  0.00    +0.000 C 
BRANCH  22  25
ATOM     23  N   UNL     1       0.986   7.765  21.445  0.00  0.00    +0.000 N 
ATOM     24  C   UNL     1      -0.243   8.338  21.636  0.00  0.00    +0.000 A 
ATOM     25  C   UNL     1       0.037   9.548  22.238  0.00  0.00    +0.000 A 
ATOM     26  N   UNL     1       1.396   9.672  22.378  0.00  0.00    +0.000 NA
ATOM     27  N   UNL     1       1.967   8.584  21.882  0.00  0.00    +0.000 NA
BRANCH  23  28
ATOM     28  C   UNL     1       1.326   6.521  20.789  0.00  0.00    +0.000 C 
BRANCH  28  33
ATOM     29  C   UNL     1       4.188   6.003  18.312  0.00  0.00    +0.000 A 
ATOM     30  C   UNL     1       4.034   7.121  17.489  0.00  0.00    +0.000 A 
ATOM     31  C   UNL     1       2.997   8.026  17.709  0.00  0.00    +0.000 A 
ATOM     32  C   UNL     1       2.116   7.830  18.771  0.00  0.00    +0.000 A 
ATOM     33  C   UNL     1       2.264   6.724  19.622  0.00  0.00    +0.000 A 
ATOM     34  C   UNL     1       3.292   5.800  19.363  0.00  0.00    +0.000 A 
BRANCH  29  36
ATOM     35  C   UNL     1       5.621   4.212  18.944  0.00  0.00    +0.000 C 
ATOM     36  O   UNL     1       5.249   5.201  17.993  0.00  0.00    +0.000 OA
ENDBRANCH  29  36
ENDBRANCH  28  33
ENDBRANCH  23  28
ENDBRANCH  22  25
ENDBRANCH  21  22
ENDBRANCH   1  21
TORSDOF 8
ENDMDL
