MODEL 1
REMARK VINA RESULT:      -6.7      0.000      0.000
REMARK  Name = 
REMARK  5 active torsions:
REMARK  status: ('A' for Active; 'I' for Inactive)
REMARK    1  A    between atoms: C_1  and  O_2
REMARK    2  A    between atoms: O_2  and  C_3
REMARK    3  A    between atoms: C_3  and  C_5
REMARK    4  A    between atoms: C_16  and  C_17
REMARK    5  A    between atoms: C_26  and  C_28
REMARK                            x       y       z     vdW  Elec       q    Type
REMARK                         _______ _______ _______ _____ _____    ______ ____
ROOT
ATOM      1  C   UNL     1      -6.603  11.703  17.894  0.00  0.00    +0.000 C 
ATOM      2  C   UNL     1      -7.198  12.951  17.207  0.00  0.00    +0.000 C 
ATOM      3  C   UNL     1      -6.826  14.187  17.934  0.00  0.00    +0.000 A 
ATOM      4  C   UNL     1      -6.440  14.157  19.256  0.00  0.00    +0.000 A 
ATOM      5  N   UNL     1      -6.243  15.452  19.663  0.00  0.00    +0.000 N 
ATOM      6  C   UNL     1      -6.466  16.313  18.610  0.00  0.00    +0.000 A 
ATOM      7  C   UNL     1      -6.383  17.710  18.558  0.00  0.00    +0.000 A 
ATOM      8  C   UNL     1      -6.683  18.331  17.342  0.00  0.00    +0.000 A 
ATOM      9  C   UNL     1      -7.055  17.584  16.226  0.00  0.00    +0.000 A 
ATOM     10  C   UNL     1      -7.137  16.189  16.295  0.00  0.00    +0.000 A 
ATOM     11  C   UNL     1      -6.837  15.540  17.508  0.00  0.00    +0.000 A 
ATOM     12  C   UNL     1      -6.303  12.963  20.151  0.00  0.00    +0.000 C 
ATOM     13  N   UNL     1      -6.705  11.736  19.395  0.00  0.00    +0.000 N 
ATOM     14  C   UNL     1      -7.098  10.634  20.168  0.00  0.00    +0.000 C 
ATOM     15  O   UNL     1      -7.126  10.703  21.397  0.00  0.00    +0.000 OA
ATOM     16  H   UNL     1      -5.979  15.743  20.596  0.00  0.00    +0.000 HD
ENDROOT
BRANCH  12  17
ATOM     17  C   UNL     1      -4.914  12.866  20.784  0.00  0.00    +0.000 A 
ATOM     18  C   UNL     1      -3.767  12.769  19.972  0.00  0.00    +0.000 A 
ATOM     19  C   UNL     1      -2.496  12.563  20.513  0.00  0.00    +0.000 A 
ATOM     20  C   UNL     1      -2.341  12.495  21.890  0.00  0.00    +0.000 A 
ATOM     21 CL   UNL     1      -0.781  12.223  22.560  0.00  0.00    +0.000 Cl
ATOM     22  C   UNL     1      -3.437  12.676  22.726  0.00  0.00    +0.000 A 
ATOM     23  C   UNL     1      -4.712  12.870  22.179  0.00  0.00    +0.000 A 
ATOM     24 CL   UNL     1      -5.985  13.201  23.303  0.00  0.00    +0.000 Cl
ENDBRANCH  12  17
BRANCH   1  25
ATOM     25  C   UNL     1      -5.187  11.310  17.440  0.00  0.00    +0.000 C 
ATOM     26  O   UNL     1      -4.560  11.946  16.596  0.00  0.00    +0.000 OA
BRANCH  25  28
ATOM     27  C   UNL     1      -3.397   9.786  17.710  0.00  0.00    +0.000 C 
ATOM     28  O   UNL     1      -4.712  10.214  18.082  0.00  0.00    +0.000 OA
ENDBRANCH  25  28
ENDBRANCH   1  25
BRANCH  14  29
ATOM     29  C   UNL     1      -7.532   9.376  19.422  0.00  0.00    +0.000 C 
ATOM     30 CL   UNL     1      -6.593   7.949  19.913  0.00  0.00    +0.000 Cl
ENDBRANCH  14  29
TORSDOF 4
ENDMDL
MODEL 2
REMARK VINA RESULT:      -6.4      3.939      6.577
REMARK  Name = 
REMARK  5 active torsions:
REMARK  status: ('A' for Active; 'I' for Inactive)
REMARK    1  A    between atoms: C_1  and  O_2
REMARK    2  A    between atoms: O_2  and  C_3
REMARK    3  A    between atoms: C_3  and  C_5
REMARK    4  A    between atoms: C_16  and  C_17
REMARK    5  A    between atoms: C_26  and  C_28
REMARK                            x       y       z     vdW  Elec       q    Type
REMARK                         _______ _______ _______ _____ _____    ______ ____
ROOT
ATOM      1  C   UNL     1      -0.792  12.621  22.374  0.00  0.00    +0.000 C 
ATOM      2  C   UNL     1      -0.005  13.934  22.178  0.00  0.00    +0.000 C 
ATOM      3  C   UNL     1      -0.275  14.522  20.845  0.00  0.00    +0.000 A 
ATOM      4  C   UNL     1      -0.753  13.758  19.803  0.00  0.00    +0.000 A 
ATOM      5  N   UNL     1      -0.820  14.560  18.693  0.00  0.00    +0.000 N 
ATOM      6  C   UNL     1      -0.422  15.840  19.014  0.00  0.00    +0.000 A 
ATOM      7  C   UNL     1      -0.332  16.982  18.211  0.00  0.00    +0.000 A 
ATOM      8  C   UNL     1       0.125  18.160  18.809  0.00  0.00    +0.000 A 
ATOM      9  C   UNL     1       0.481  18.191  20.155  0.00  0.00    +0.000 A 
ATOM     10  C   UNL     1       0.390  17.040  20.945  0.00  0.00    +0.000 A 
ATOM     11  C   UNL     1      -0.071  15.842  20.366  0.00  0.00    +0.000 A 
ATOM     12  C   UNL     1      -1.095  12.299  19.811  0.00  0.00    +0.000 C 
ATOM     13  N   UNL     1      -0.792  11.731  21.161  0.00  0.00    +0.000 N 
ATOM     14  C   UNL     1      -0.590  10.345  21.219  0.00  0.00    +0.000 C 
ATOM     15  O   UNL     1      -0.639   9.657  20.199  0.00  0.00    +0.000 OA
ATOM     16  H   UNL     1      -1.111  14.265  17.769  0.00  0.00    +0.000 HD
ENDROOT
BRANCH  12  17
ATOM     17  C   UNL     1      -2.526  12.034  19.341  0.00  0.00    +0.000 A 
ATOM     18  C   UNL     1      -3.613  12.661  19.980  0.00  0.00    +0.000 A 
ATOM     19  C   UNL     1      -4.936  12.356  19.655  0.00  0.00    +0.000 A 
ATOM     20  C   UNL     1      -5.200  11.443  18.644  0.00  0.00    +0.000 A 
ATOM     21 CL   UNL     1      -6.827  11.049  18.253  0.00  0.00    +0.000 Cl
ATOM     22  C   UNL     1      -4.153  10.871  17.930  0.00  0.00    +0.000 A 
ATOM     23  C   UNL     1      -2.826  11.172  18.267  0.00  0.00    +0.000 A 
ATOM     24 CL   UNL     1      -1.606  10.499  17.242  0.00  0.00    +0.000 Cl
ENDBRANCH  12  17
BRANCH   1  25
ATOM     25  C   UNL     1      -2.211  12.780  22.949  0.00  0.00    +0.000 C 
ATOM     26  O   UNL     1      -2.917  11.821  23.247  0.00  0.00    +0.000 OA
BRANCH  25  28
ATOM     27  C   UNL     1      -3.969  14.320  23.322  0.00  0.00    +0.000 C 
ATOM     28  O   UNL     1      -2.574  14.078  23.105  0.00  0.00    +0.000 OA
ENDBRANCH  25  28
ENDBRANCH   1  25
BRANCH  14  29
ATOM     29  C   UNL     1      -0.259   9.742  22.581  0.00  0.00    +0.000 C 
ATOM     30 CL   UNL     1       1.406   9.125  22.654  0.00  0.00    +0.000 Cl
ENDBRANCH  14  29
TORSDOF 4
ENDMDL
MODEL 3
REMARK VINA RESULT:      -6.3      4.403      6.767
REMARK  Name = 
REMARK  5 active torsions:
REMARK  status: ('A' for Active; 'I' for Inactive)
REMARK    1  A    between atoms: C_1  and  O_2
REMARK    2  A    between atoms: O_2  and  C_3
REMARK    3  A    between atoms: C_3  and  C_5
REMARK    4  A    between atoms: C_16  and  C_17
REMARK    5  A    between atoms: C_26  and  C_28
REMARK                            x       y       z     vdW  Elec       q    Type
REMARK                         _______ _______ _______ _____ _____    ______ ____
ROOT
ATOM      1  C   UNL     1       0.579  12.161  21.180  0.00  0.00    +0.000 C 
ATOM      2  C   UNL     1       1.386  13.447  20.907  0.00  0.00    +0.000 C 
ATOM      3  C   UNL     1       0.674  14.330  19.954  0.00  0.00    +0.000 A 
ATOM      4  C   UNL     1      -0.289  13.841  19.100  0.00  0.00    +0.000 A 
ATOM      5  N   UNL     1      -0.698  14.874  18.295  0.00  0.00    +0.000 N 
ATOM      6  C   UNL     1      -0.032  16.030  18.642  0.00  0.00    +0.000 A 
ATOM      7  C   UNL     1      -0.127  17.318  18.103  0.00  0.00    +0.000 A 
ATOM      8  C   UNL     1       0.692  18.311  18.650  0.00  0.00    +0.000 A 
ATOM      9  C   UNL     1       1.572  18.023  19.691  0.00  0.00    +0.000 A 
ATOM     10  C   UNL     1       1.657  16.730  20.217  0.00  0.00    +0.000 A 
ATOM     11  C   UNL     1       0.841  15.713  19.685  0.00  0.00    +0.000 A 
ATOM     12  C   UNL     1      -0.793  12.434  18.986  0.00  0.00    +0.000 C 
ATOM     13  N   UNL     1      -0.042  11.566  19.944  0.00  0.00    +0.000 N 
ATOM     14  C   UNL     1      -0.025  10.194  19.654  0.00  0.00    +0.000 C 
ATOM     15  O   UNL     1      -0.583   9.755  18.648  0.00  0.00    +0.000 OA
ATOM     16  H   UNL     1      -1.381  14.807  17.551  0.00  0.00    +0.000 HD
ENDROOT
BRANCH  12  17
ATOM     17  C   UNL     1      -2.313  12.346  19.140  0.00  0.00    +0.000 A 
ATOM     18  C   UNL     1      -2.947  12.899  20.270  0.00  0.00    +0.000 A 
ATOM     19  C   UNL     1      -4.315  12.737  20.500  0.00  0.00    +0.000 A 
ATOM     20  C   UNL     1      -5.089  12.052  19.574  0.00  0.00    +0.000 A 
ATOM     21 CL   UNL     1      -6.770  11.834  19.863  0.00  0.00    +0.000 Cl
ATOM     22  C   UNL     1      -4.514  11.570  18.404  0.00  0.00    +0.000 A 
ATOM     23  C   UNL     1      -3.139  11.725  18.182  0.00  0.00    +0.000 A 
ATOM     24 CL   UNL     1      -2.548  11.194  16.646  0.00  0.00    +0.000 Cl
ENDBRANCH  12  17
BRANCH   1  25
ATOM     25  C   UNL     1      -0.441  12.251  22.328  0.00  0.00    +0.000 C 
ATOM     26  O   UNL     1      -1.258  11.364  22.561  0.00  0.00    +0.000 OA
BRANCH  25  28
ATOM     27  C   UNL     1      -1.522  13.884  23.656  0.00  0.00    +0.000 C 
ATOM     28  O   UNL     1      -0.320  13.391  23.053  0.00  0.00    +0.000 OA
ENDBRANCH  25  28
ENDBRANCH   1  25
BRANCH  14  29
ATOM     29  C   UNL     1       0.751   9.287  20.605  0.00  0.00    +0.000 C 
ATOM     30 CL   UNL     1      -0.325   8.358  21.671  0.00  0.00    +0.000 Cl
ENDBRANCH  14  29
TORSDOF 4
ENDMDL
MODEL 4
REMARK VINA RESULT:      -6.3      4.593      6.965
REMARK  Name = 
REMARK  5 active torsions:
REMARK  status: ('A' for Active; 'I' for Inactive)
REMARK    1  A    between atoms: C_1  and  O_2
REMARK    2  A    between atoms: O_2  and  C_3
REMARK    3  A    between atoms: C_3  and  C_5
REMARK    4  A    between atoms: C_16  and  C_17
REMARK    5  A    between atoms: C_26  and  C_28
REMARK                            x       y       z     vdW  Elec       q    Type
REMARK                         _______ _______ _______ _____ _____    ______ ____
ROOT
ATOM      1  C   UNL     1       0.920  11.756  20.651  0.00  0.00    +0.000 C 
ATOM      2  C   UNL     1       1.707  13.080  20.544  0.00  0.00    +0.000 C 
ATOM      3  C   UNL     1       0.943  14.092  19.778  0.00  0.00    +0.000 A 
ATOM      4  C   UNL     1      -0.061  13.732  18.908  0.00  0.00    +0.000 A 
ATOM      5  N   UNL     1      -0.515  14.872  18.297  0.00  0.00    +0.000 N 
ATOM      6  C   UNL     1       0.163  15.968  18.787  0.00  0.00    +0.000 A 
ATOM      7  C   UNL     1       0.035  17.323  18.463  0.00  0.00    +0.000 A 
ATOM      8  C   UNL     1       0.877  18.228  19.117  0.00  0.00    +0.000 A 
ATOM      9  C   UNL     1       1.810  17.792  20.054  0.00  0.00    +0.000 A 
ATOM     10  C   UNL     1       1.928  16.433  20.365  0.00  0.00    +0.000 A 
ATOM     11  C   UNL     1       1.090  15.502  19.722  0.00  0.00    +0.000 A 
ATOM     12  C   UNL     1      -0.565  12.354  18.600  0.00  0.00    +0.000 C 
ATOM     13  N   UNL     1       0.239  11.355  19.370  0.00  0.00    +0.000 N 
ATOM     14  C   UNL     1       0.247  10.046  18.868  0.00  0.00    +0.000 C 
ATOM     15  O   UNL     1      -0.361   9.763  17.835  0.00  0.00    +0.000 OA
ATOM     16  H   UNL     1      -1.236  14.914  17.586  0.00  0.00    +0.000 HD
ENDROOT
BRANCH  12  17
ATOM     17  C   UNL     1      -2.074  12.224  18.814  0.00  0.00    +0.000 A 
ATOM     18  C   UNL     1      -2.664  12.673  20.012  0.00  0.00    +0.000 A 
ATOM     19  C   UNL     1      -4.017  12.466  20.289  0.00  0.00    +0.000 A 
ATOM     20  C   UNL     1      -4.822  11.842  19.348  0.00  0.00    +0.000 A 
ATOM     21 CL   UNL     1      -6.484  11.568  19.693  0.00  0.00    +0.000 Cl
ATOM     22  C   UNL     1      -4.294  11.465  18.118  0.00  0.00    +0.000 A 
ATOM     23  C   UNL     1      -2.933  11.664  17.848  0.00  0.00    +0.000 A 
ATOM     24 CL   UNL     1      -2.405  11.269  16.248  0.00  0.00    +0.000 Cl
ENDBRANCH  12  17
BRANCH   1  25
ATOM     25  C   UNL     1      -0.039  11.652  21.849  0.00  0.00    +0.000 C 
ATOM     26  O   UNL     1      -0.217  12.576  22.639  0.00  0.00    +0.000 OA
BRANCH  25  28
ATOM     27  C   UNL     1      -0.364   9.645  23.059  0.00  0.00    +0.000 C 
ATOM     28  O   UNL     1      -0.670  10.454  21.917  0.00  0.00    +0.000 OA
ENDBRANCH  25  28
ENDBRANCH   1  25
BRANCH  14  29
ATOM     29  C   UNL     1       1.075   9.011  19.623  0.00  0.00    +0.000 C 
ATOM     30 CL   UNL     1       2.188   8.133  18.552  0.00  0.00    +0.000 Cl
ENDBRANCH  14  29
TORSDOF 4
ENDMDL
MODEL 5
REMARK VINA RESULT:      -6.1      4.219      6.128
REMARK  Name = 
REMARK  5 active torsions:
REMARK  status: ('A' for Active; 'I' for Inactive)
REMARK    1  A    between atoms: C_1  and  O_2
REMARK    2  A    between atoms: O_2  and  C_3
REMARK    3  A    between atoms: C_3  and  C_5
REMARK    4  A    between atoms: C_16  and  C_17
REMARK    5  A    between atoms: C_26  and  C_28
REMARK                            x       y       z     vdW  Elec       q    Type
REMARK                         _______ _______ _______ _____ _____    ______ ____
ROOT
ATOM      1  C   UNL     1       0.001  11.646  19.112  0.00  0.00    +0.000 C 
ATOM      2  C   UNL     1       0.990  12.774  18.749  0.00  0.00    +0.000 C 
ATOM      3  C   UNL     1       0.577  14.060  19.358  0.00  0.00    +0.000 A 
ATOM      4  C   UNL     1      -0.722  14.285  19.755  0.00  0.00    +0.000 A 
ATOM      5  N   UNL     1      -0.805  15.580  20.197  0.00  0.00    +0.000 N 
ATOM      6  C   UNL     1       0.432  16.182  20.121  0.00  0.00    +0.000 A 
ATOM      7  C   UNL     1       0.823  17.482  20.463  0.00  0.00    +0.000 A 
ATOM      8  C   UNL     1       2.162  17.830  20.261  0.00  0.00    +0.000 A 
ATOM      9  C   UNL     1       3.071  16.914  19.737  0.00  0.00    +0.000 A 
ATOM     10  C   UNL     1       2.665  15.620  19.397  0.00  0.00    +0.000 A 
ATOM     11  C   UNL     1       1.321  15.245  19.592  0.00  0.00    +0.000 A 
ATOM     12  C   UNL     1      -1.886  13.343  19.682  0.00  0.00    +0.000 C 
ATOM     13  N   UNL     1      -1.443  12.065  19.045  0.00  0.00    +0.000 N 
ATOM     14  C   UNL     1      -2.450  11.279  18.466  0.00  0.00    +0.000 C 
ATOM     15  O   UNL     1      -3.623  11.652  18.474  0.00  0.00    +0.000 OA
ATOM     16  H   UNL     1      -1.646  16.038  20.528  0.00  0.00    +0.000 HD
ENDROOT
BRANCH  12  17
ATOM     17  C   UNL     1      -2.564  13.149  21.040  0.00  0.00    +0.000 A 
ATOM     18  C   UNL     1      -1.854  12.578  22.114  0.00  0.00    +0.000 A 
ATOM     19  C   UNL     1      -2.472  12.280  23.330  0.00  0.00    +0.000 A 
ATOM     20  C   UNL     1      -3.812  12.592  23.513  0.00  0.00    +0.000 A 
ATOM     21 CL   UNL     1      -4.582  12.210  25.001  0.00  0.00    +0.000 Cl
ATOM     22  C   UNL     1      -4.521  13.238  22.506  0.00  0.00    +0.000 A 
ATOM     23  C   UNL     1      -3.900  13.525  21.283  0.00  0.00    +0.000 A 
ATOM     24 CL   UNL     1      -4.834  14.433  20.145  0.00  0.00    +0.000 Cl
ENDBRANCH  12  17
BRANCH   1  25
ATOM     25  C   UNL     1       0.304  10.897  20.421  0.00  0.00    +0.000 C 
ATOM     26  O   UNL     1       1.142  11.287  21.230  0.00  0.00    +0.000 OA
BRANCH  25  28
ATOM     27  C   UNL     1      -0.098   8.927  21.669  0.00  0.00    +0.000 C 
ATOM     28  O   UNL     1      -0.462   9.790  20.586  0.00  0.00    +0.000 OA
ENDBRANCH  25  28
ENDBRANCH   1  25
BRANCH  14  29
ATOM     29  C   UNL     1      -2.023   9.979  17.792  0.00  0.00    +0.000 C 
ATOM     30 CL   UNL     1      -2.658   9.845  16.137  0.00  0.00    +0.000 Cl
ENDBRANCH  14  29
TORSDOF 4
ENDMDL
MODEL 6
REMARK VINA RESULT:      -6.1      4.570      6.732
REMARK  Name = 
REMARK  5 active torsions:
REMARK  status: ('A' for Active; 'I' for Inactive)
REMARK    1  A    between atoms: C_1  and  O_2
REMARK    2  A    between atoms: O_2  and  C_3
REMARK    3  A    between atoms: C_3  and  C_5
REMARK    4  A    between atoms: C_16  and  C_17
REMARK    5  A    between atoms: C_26  and  C_28
REMARK                            x       y       z     vdW  Elec       q    Type
REMARK                         _______ _______ _______ _____ _____    ______ ____
ROOT
ATOM      1  C   UNL     1      -1.790  15.507  21.986  0.00  0.00    +0.000 C 
ATOM      2  C   UNL     1      -3.261  15.770  22.370  0.00  0.00    +0.000 C 
ATOM      3  C   UNL     1      -4.088  14.557  22.171  0.00  0.00    +0.000 A 
ATOM      4  C   UNL     1      -3.691  13.545  21.326  0.00  0.00    +0.000 A 
ATOM      5  N   UNL     1      -4.695  12.611  21.293  0.00  0.00    +0.000 N 
ATOM      6  C   UNL     1      -5.719  12.993  22.131  0.00  0.00    +0.000 A 
ATOM      7  C   UNL     1      -6.933  12.357  22.417  0.00  0.00    +0.000 A 
ATOM      8  C   UNL     1      -7.802  12.991  23.309  0.00  0.00    +0.000 A 
ATOM      9  C   UNL     1      -7.471  14.214  23.888  0.00  0.00    +0.000 A 
ATOM     10  C   UNL     1      -6.256  14.839  23.591  0.00  0.00    +0.000 A 
ATOM     11  C   UNL     1      -5.362  14.219  22.697  0.00  0.00    +0.000 A 
ATOM     12  C   UNL     1      -2.432  13.458  20.518  0.00  0.00    +0.000 C 
ATOM     13  N   UNL     1      -1.631  14.704  20.723  0.00  0.00    +0.000 N 
ATOM     14  C   UNL     1      -0.701  15.015  19.721  0.00  0.00    +0.000 C 
ATOM     15  O   UNL     1      -0.585  14.300  18.724  0.00  0.00    +0.000 OA
ATOM     16  H   UNL     1      -4.696  11.766  20.734  0.00  0.00    +0.000 HD
ENDROOT
BRANCH  12  17
ATOM     17  C   UNL     1      -1.649  12.173  20.795  0.00  0.00    +0.000 A 
ATOM     18  C   UNL     1      -1.252  11.851  22.108  0.00  0.00    +0.000 A 
ATOM     19  C   UNL     1      -0.440  10.749  22.383  0.00  0.00    +0.000 A 
ATOM     20  C   UNL     1      -0.044   9.915  21.347  0.00  0.00    +0.000 A 
ATOM     21 CL   UNL     1       0.972   8.568  21.678  0.00  0.00    +0.000 Cl
ATOM     22  C   UNL     1      -0.490  10.150  20.052  0.00  0.00    +0.000 A 
ATOM     23  C   UNL     1      -1.296  11.264  19.778  0.00  0.00    +0.000 A 
ATOM     24 CL   UNL     1      -1.891  11.398  18.160  0.00  0.00    +0.000 Cl
ENDBRANCH  12  17
BRANCH   1  25
ATOM     25  C   UNL     1      -0.900  14.956  23.113  0.00  0.00    +0.000 C 
ATOM     26  O   UNL     1       0.314  14.820  22.994  0.00  0.00    +0.000 OA
BRANCH  25  28
ATOM     27  C   UNL     1      -1.272  15.437  25.400  0.00  0.00    +0.000 C 
ATOM     28  O   UNL     1      -1.597  14.663  24.239  0.00  0.00    +0.000 OA
ENDBRANCH  25  28
ENDBRANCH   1  25
BRANCH  14  29
ATOM     29  C   UNL     1       0.115  16.292  19.895  0.00  0.00    +0.000 C 
ATOM     30 CL   UNL     1       1.853  15.957  20.067  0.00  0.00    +0.000 Cl
ENDBRANCH  14  29
TORSDOF 4
ENDMDL
MODEL 7
REMARK VINA RESULT:      -6.0      4.977      7.670
REMARK  Name = 
REMARK  5 active torsions:
REMARK  status: ('A' for Active; 'I' for Inactive)
REMARK    1  A    between atoms: C_1  and  O_2
REMARK    2  A    between atoms: O_2  and  C_3
REMARK    3  A    between atoms: C_3  and  C_5
REMARK    4  A    between atoms: C_16  and  C_17
REMARK    5  A    between atoms: C_26  and  C_28
REMARK                            x       y       z     vdW  Elec       q    Type
REMARK                         _______ _______ _______ _____ _____    ______ ____
ROOT
ATOM      1  C   UNL     1      -0.376  12.827  21.803  0.00  0.00    +0.000 C 
ATOM      2  C   UNL     1       0.703  13.926  21.707  0.00  0.00    +0.000 C 
ATOM      3  C   UNL     1       1.294  13.975  20.350  0.00  0.00    +0.000 A 
ATOM      4  C   UNL     1       1.228  12.897  19.495  0.00  0.00    +0.000 A 
ATOM      5  N   UNL     1       1.929  13.219  18.361  0.00  0.00    +0.000 N 
ATOM      6  C   UNL     1       2.418  14.503  18.461  0.00  0.00    +0.000 A 
ATOM      7  C   UNL     1       3.180  15.248  17.554  0.00  0.00    +0.000 A 
ATOM      8  C   UNL     1       3.555  16.541  17.932  0.00  0.00    +0.000 A 
ATOM      9  C   UNL     1       3.184  17.064  19.168  0.00  0.00    +0.000 A 
ATOM     10  C   UNL     1       2.424  16.306  20.066  0.00  0.00    +0.000 A 
ATOM     11  C   UNL     1       2.033  15.002  19.707  0.00  0.00    +0.000 A 
ATOM     12  C   UNL     1       0.576  11.569  19.734  0.00  0.00    +0.000 C 
ATOM     13  N   UNL     1       0.008  11.543  21.118  0.00  0.00    +0.000 N 
ATOM     14  C   UNL     1      -0.200  10.275  21.679  0.00  0.00    +0.000 C 
ATOM     15  O   UNL     1       0.098   9.254  21.058  0.00  0.00    +0.000 OA
ATOM     16  H   UNL     1       2.076  12.609  17.566  0.00  0.00    +0.000 HD
ENDROOT
BRANCH  12  17
ATOM     17  C   UNL     1      -0.441  11.215  18.648  0.00  0.00    +0.000 A 
ATOM     18  C   UNL     1      -1.551  12.051  18.413  0.00  0.00    +0.000 A 
ATOM     19  C   UNL     1      -2.559  11.702  17.512  0.00  0.00    +0.000 A 
ATOM     20  C   UNL     1      -2.452  10.523  16.787  0.00  0.00    +0.000 A 
ATOM     21 CL   UNL     1      -3.699  10.080  15.690  0.00  0.00    +0.000 Cl
ATOM     22  C   UNL     1      -1.327   9.718  16.927  0.00  0.00    +0.000 A 
ATOM     23  C   UNL     1      -0.324  10.066  17.841  0.00  0.00    +0.000 A 
ATOM     24 CL   UNL     1       1.084   9.061  17.851  0.00  0.00    +0.000 Cl
ENDBRANCH  12  17
BRANCH   1  25
ATOM     25  C   UNL     1      -1.800  13.262  21.413  0.00  0.00    +0.000 C 
ATOM     26  O   UNL     1      -2.039  14.334  20.865  0.00  0.00    +0.000 OA
BRANCH  25  28
ATOM     27  C   UNL     1      -3.892  12.808  22.420  0.00  0.00    +0.000 C 
ATOM     28  O   UNL     1      -2.738  12.332  21.719  0.00  0.00    +0.000 OA
ENDBRANCH  25  28
ENDBRANCH   1  25
BRANCH  14  29
ATOM     29  C   UNL     1      -0.759  10.220  23.097  0.00  0.00    +0.000 C 
ATOM     30 CL   UNL     1       0.301   9.313  24.199  0.00  0.00    +0.000 Cl
ENDBRANCH  14  29
TORSDOF 4
ENDMDL
MODEL 8
REMARK VINA RESULT:      -5.9      4.301      6.488
REMARK  Name = 
REMARK  5 active torsions:
REMARK  status: ('A' for Active; 'I' for Inactive)
REMARK    1  A    between atoms: C_1  and  O_2
REMARK    2  A    between atoms: O_2  and  C_3
REMARK    3  A    between atoms: C_3  and  C_5
REMARK    4  A    between atoms: C_16  and  C_17
REMARK    5  A    between atoms: C_26  and  C_28
REMARK                            x       y       z     vdW  Elec       q    Type
REMARK                         _______ _______ _______ _____ _____    ______ ____
ROOT
ATOM      1  C   UNL     1      -0.248  10.981  19.071  0.00  0.00    +0.000 C 
ATOM      2  C   UNL     1       0.969  11.876  18.758  0.00  0.00    +0.000 C 
ATOM      3  C   UNL     1       0.856  13.186  19.441  0.00  0.00    +0.000 A 
ATOM      4  C   UNL     1      -0.360  13.676  19.865  0.00  0.00    +0.000 A 
ATOM      5  N   UNL     1      -0.149  14.930  20.378  0.00  0.00    +0.000 N 
ATOM      6  C   UNL     1       1.192  15.242  20.320  0.00  0.00    +0.000 A 
ATOM      7  C   UNL     1       1.864  16.399  20.727  0.00  0.00    +0.000 A 
ATOM      8  C   UNL     1       3.248  16.448  20.530  0.00  0.00    +0.000 A 
ATOM      9  C   UNL     1       3.928  15.382  19.945  0.00  0.00    +0.000 A 
ATOM     10  C   UNL     1       3.241  14.233  19.540  0.00  0.00    +0.000 A 
ATOM     11  C   UNL     1       1.847  14.159  19.731  0.00  0.00    +0.000 A 
ATOM     12  C   UNL     1      -1.705  13.025  19.755  0.00  0.00    +0.000 C 
ATOM     13  N   UNL     1      -1.561  11.717  19.044  0.00  0.00    +0.000 N 
ATOM     14  C   UNL     1      -2.718  11.211  18.435  0.00  0.00    +0.000 C 
ATOM     15  O   UNL     1      -3.778  11.838  18.477  0.00  0.00    +0.000 OA
ATOM     16  H   UNL     1      -0.866  15.545  20.743  0.00  0.00    +0.000 HD
ENDROOT
BRANCH  12  17
ATOM     17  C   UNL     1      -2.411  12.913  21.108  0.00  0.00    +0.000 A 
ATOM     18  C   UNL     1      -1.839  12.154  22.147  0.00  0.00    +0.000 A 
ATOM     19  C   UNL     1      -2.507  11.935  23.354  0.00  0.00    +0.000 A 
ATOM     20  C   UNL     1      -3.751  12.513  23.562  0.00  0.00    +0.000 A 
ATOM     21 CL   UNL     1      -4.587  12.230  25.038  0.00  0.00    +0.000 Cl
ATOM     22  C   UNL     1      -4.307  13.341  22.594  0.00  0.00    +0.000 A 
ATOM     23  C   UNL     1      -3.638  13.549  21.380  0.00  0.00    +0.000 A 
ATOM     24 CL   UNL     1      -4.359  14.687  20.295  0.00  0.00    +0.000 Cl
ENDBRANCH  12  17
BRANCH   1  25
ATOM     25  C   UNL     1      -0.122  10.112  20.334  0.00  0.00    +0.000 C 
ATOM     26  O   UNL     1      -0.947   9.253  20.633  0.00  0.00    +0.000 OA
BRANCH  25  28
ATOM     27  C   UNL     1       1.324   9.448  22.085  0.00  0.00    +0.000 C 
ATOM     28  O   UNL     1       0.995  10.385  21.054  0.00  0.00    +0.000 OA
ENDBRANCH  25  28
ENDBRANCH   1  25
BRANCH  14  29
ATOM     29  C   UNL     1      -2.594   9.888  17.686  0.00  0.00    +0.000 C 
ATOM     30 CL   UNL     1      -2.560  10.118  15.923  0.00  0.00    +0.000 Cl
ENDBRANCH  14  29
TORSDOF 4
ENDMDL
MODEL 9
REMARK VINA RESULT:      -5.9      4.247      6.016
REMARK  Name = 
REMARK  5 active torsions:
REMARK  status: ('A' for Active; 'I' for Inactive)
REMARK    1  A    between atoms: C_1  and  O_2
REMARK    2  A    between atoms: O_2  and  C_3
REMARK    3  A    between atoms: C_3  and  C_5
REMARK    4  A    between atoms: C_16  and  C_17
REMARK    5  A    between atoms: C_26  and  C_28
REMARK                            x       y       z     vdW  Elec       q    Type
REMARK                         _______ _______ _______ _____ _____    ______ ____
ROOT
ATOM      1  C   UNL     1      -0.279  10.712  20.393  0.00  0.00    +0.000 C 
ATOM      2  C   UNL     1      -0.814   9.912  19.187  0.00  0.00    +0.000 C 
ATOM      3  C   UNL     1      -1.884  10.658  18.485  0.00  0.00    +0.000 A 
ATOM      4  C   UNL     1      -2.595  11.658  19.111  0.00  0.00    +0.000 A 
ATOM      5  N   UNL     1      -3.559  12.095  18.239  0.00  0.00    +0.000 N 
ATOM      6  C   UNL     1      -3.457  11.411  17.047  0.00  0.00    +0.000 A 
ATOM      7  C   UNL     1      -4.219  11.522  15.878  0.00  0.00    +0.000 A 
ATOM      8  C   UNL     1      -3.896  10.678  14.812  0.00  0.00    +0.000 A 
ATOM      9  C   UNL     1      -2.855   9.758  14.914  0.00  0.00    +0.000 A 
ATOM     10  C   UNL     1      -2.105   9.656  16.090  0.00  0.00    +0.000 A 
ATOM     11  C   UNL     1      -2.409  10.497  17.177  0.00  0.00    +0.000 A 
ATOM     12  C   UNL     1      -2.429  12.172  20.510  0.00  0.00    +0.000 C 
ATOM     13  N   UNL     1      -1.358  11.386  21.197  0.00  0.00    +0.000 N 
ATOM     14  C   UNL     1      -1.392  11.385  22.599  0.00  0.00    +0.000 C 
ATOM     15  O   UNL     1      -2.278  11.987  23.208  0.00  0.00    +0.000 OA
ATOM     16  H   UNL     1      -4.251  12.808  18.434  0.00  0.00    +0.000 HD
ENDROOT
BRANCH  12  17
ATOM     17  C   UNL     1      -2.202  13.684  20.551  0.00  0.00    +0.000 A 
ATOM     18  C   UNL     1      -1.073  14.252  19.928  0.00  0.00    +0.000 A 
ATOM     19  C   UNL     1      -0.773  15.611  20.043  0.00  0.00    +0.000 A 
ATOM     20  C   UNL     1      -1.627  16.443  20.751  0.00  0.00    +0.000 A 
ATOM     21 CL   UNL     1      -1.252  18.113  20.912  0.00  0.00    +0.000 Cl
ATOM     22  C   UNL     1      -2.797  15.935  21.304  0.00  0.00    +0.000 A 
ATOM     23  C   UNL     1      -3.089  14.569  21.196  0.00  0.00    +0.000 A 
ATOM     24 CL   UNL     1      -4.623  14.063  21.816  0.00  0.00    +0.000 Cl
ENDBRANCH  12  17
BRANCH   1  25
ATOM     25  C   UNL     1       0.873  11.684  20.082  0.00  0.00    +0.000 C 
ATOM     26  O   UNL     1       1.492  12.281  20.959  0.00  0.00    +0.000 OA
BRANCH  25  28
ATOM     27  C   UNL     1       2.081  12.791  18.375  0.00  0.00    +0.000 C 
ATOM     28  O   UNL     1       1.135  11.786  18.755  0.00  0.00    +0.000 OA
ENDBRANCH  25  28
ENDBRANCH   1  25
BRANCH  14  29
ATOM     29  C   UNL     1      -0.323  10.575  23.324  0.00  0.00    +0.000 C 
ATOM     30 CL   UNL     1      -0.435   8.839  22.957  0.00  0.00    +0.000 Cl
ENDBRANCH  14  29
TORSDOF 4
ENDMDL
