MODEL 1
REMARK VINA RESULT:      -7.8      0.000      0.000
REMARK  Name = 
REMARK  3 active torsions:
REMARK  status: ('A' for Active; 'I' for Inactive)
REMARK    1  A    between atoms: N_11  and  S_12
REMARK    2  A    between atoms: S_12  and  C_13
REMARK    3  A    between atoms: C_13  and  C_16
REMARK                            x       y       z     vdW  Elec       q    Type
REMARK                         _______ _______ _______ _____ _____    ______ ____
ROOT
ATOM      1  O   UNL     1       2.084   3.566  16.606  0.00  0.00    +0.000 OA
ATOM      2  C   UNL     1       2.735   3.066  17.513  0.00  0.00    +0.000 C 
ATOM      3  C   UNL     1       2.158   2.230  18.628  0.00  0.00    +0.000 C 
ATOM      4  C   UNL     1       0.751   2.682  19.018  0.00  0.00    +0.000 C 
ATOM      5  C   UNL     1       0.612   3.280  20.375  0.00  0.00    +0.000 C 
ATOM      6  C   UNL     1       1.580   3.289  21.295  0.00  0.00    +0.000 C 
ATOM      7  C   UNL     1       2.939   2.704  21.096  0.00  0.00    +0.000 C 
ATOM      8  C   UNL     1       3.265   2.208  19.685  0.00  0.00    +0.000 C 
ATOM      9  C   UNL     1       4.413   2.951  19.019  0.00  0.00    +0.000 C 
ATOM     10  O   UNL     1       5.439   3.290  19.597  0.00  0.00    +0.000 OA
ATOM     11  N   UNL     1       4.094   3.145  17.702  0.00  0.00    +0.000 N 
ENDROOT
BRANCH  11  12
ATOM     12  S   UNL     1       5.132   3.894  16.576  0.00  0.00    +0.000 S 
BRANCH  12  13
ATOM     13  C   UNL     1       5.214   5.654  17.208  0.00  0.00    +0.000 C 
ATOM     14 CL   UNL     1       4.998   6.792  15.821  0.00  0.00    +0.000 Cl
ATOM     15 CL   UNL     1       3.831   5.940  18.343  0.00  0.00    +0.000 Cl
BRANCH  13  16
ATOM     16  C   UNL     1       6.551   5.909  17.972  0.00  0.00    +0.000 C 
ATOM     17 CL   UNL     1       7.772   4.605  17.761  0.00  0.00    +0.000 Cl
ATOM     18 CL   UNL     1       7.363   7.459  17.520  0.00  0.00    +0.000 Cl
ENDBRANCH  13  16
ENDBRANCH  12  13
ENDBRANCH  11  12
TORSDOF 3
ENDMDL
MODEL 2
REMARK VINA RESULT:      -7.3      1.344      2.580
REMARK  Name = 
REMARK  3 active torsions:
REMARK  status: ('A' for Active; 'I' for Inactive)
REMARK    1  A    between atoms: N_11  and  S_12
REMARK    2  A    between atoms: S_12  and  C_13
REMARK    3  A    between atoms: C_13  and  C_16
REMARK                            x       y       z     vdW  Elec       q    Type
REMARK                         _______ _______ _______ _____ _____    ______ ____
ROOT
ATOM      1  O   UNL     1       5.046   4.906  19.504  0.00  0.00    +0.000 OA
ATOM      2  C   UNL     1       4.022   4.664  18.881  0.00  0.00    +0.000 C 
ATOM      3  C   UNL     1       2.627   4.981  19.361  0.00  0.00    +0.000 C 
ATOM      4  C   UNL     1       2.500   4.867  20.879  0.00  0.00    +0.000 C 
ATOM      5  C   UNL     1       1.636   3.761  21.379  0.00  0.00    +0.000 C 
ATOM      6  C   UNL     1       0.866   2.999  20.599  0.00  0.00    +0.000 C 
ATOM      7  C   UNL     1       0.760   3.143  19.117  0.00  0.00    +0.000 C 
ATOM      8  C   UNL     1       1.725   4.133  18.461  0.00  0.00    +0.000 C 
ATOM      9  C   UNL     1       2.694   3.493  17.479  0.00  0.00    +0.000 C 
ATOM     10  O   UNL     1       2.387   2.610  16.686  0.00  0.00    +0.000 OA
ATOM     11  N   UNL     1       3.921   4.079  17.641  0.00  0.00    +0.000 N 
ENDROOT
BRANCH  11  12
ATOM     12  S   UNL     1       5.287   3.693  16.698  0.00  0.00    +0.000 S 
BRANCH  12  13
ATOM     13  C   UNL     1       5.816   5.367  16.046  0.00  0.00    +0.000 C 
ATOM     14 CL   UNL     1       5.867   5.309  14.240  0.00  0.00    +0.000 Cl
ATOM     15 CL   UNL     1       4.568   6.600  16.498  0.00  0.00    +0.000 Cl
BRANCH  13  16
ATOM     16  C   UNL     1       7.188   5.793  16.657  0.00  0.00    +0.000 C 
ATOM     17 CL   UNL     1       7.150   7.382  17.498  0.00  0.00    +0.000 Cl
ATOM     18 CL   UNL     1       7.862   4.599  17.834  0.00  0.00    +0.000 Cl
ENDBRANCH  13  16
ENDBRANCH  12  13
ENDBRANCH  11  12
TORSDOF 3
ENDMDL
MODEL 3
REMARK VINA RESULT:      -7.2      1.993      2.505
REMARK  Name = 
REMARK  3 active torsions:
REMARK  status: ('A' for Active; 'I' for Inactive)
REMARK    1  A    between atoms: N_11  and  S_12
REMARK    2  A    between atoms: S_12  and  C_13
REMARK    3  A    between atoms: C_13  and  C_16
REMARK                            x       y       z     vdW  Elec       q    Type
REMARK                         _______ _______ _______ _____ _____    ______ ____
ROOT
ATOM      1  O   UNL     1       4.022   3.853  16.676  0.00  0.00    +0.000 OA
ATOM      2  C   UNL     1       3.808   4.262  17.808  0.00  0.00    +0.000 C 
ATOM      3  C   UNL     1       3.379   3.399  18.969  0.00  0.00    +0.000 C 
ATOM      4  C   UNL     1       2.492   2.235  18.526  0.00  0.00    +0.000 C 
ATOM      5  C   UNL     1       1.075   2.286  18.982  0.00  0.00    +0.000 C 
ATOM      6  C   UNL     1       0.600   3.172  19.861  0.00  0.00    +0.000 C 
ATOM      7  C   UNL     1       1.418   4.238  20.510  0.00  0.00    +0.000 C 
ATOM      8  C   UNL     1       2.852   4.400  20.000  0.00  0.00    +0.000 C 
ATOM      9  C   UNL     1       3.132   5.753  19.364  0.00  0.00    +0.000 C 
ATOM     10  O   UNL     1       2.714   6.819  19.802  0.00  0.00    +0.000 OA
ATOM     11  N   UNL     1       3.918   5.555  18.260  0.00  0.00    +0.000 N 
ENDROOT
BRANCH  11  12
ATOM     12  S   UNL     1       4.511   6.818  17.281  0.00  0.00    +0.000 S 
BRANCH  12  13
ATOM     13  C   UNL     1       6.366   6.610  17.431  0.00  0.00    +0.000 C 
ATOM     14 CL   UNL     1       7.138   8.240  17.540  0.00  0.00    +0.000 Cl
ATOM     15 CL   UNL     1       6.742   5.745  18.978  0.00  0.00    +0.000 Cl
BRANCH  13  16
ATOM     16  C   UNL     1       6.929   5.774  16.239  0.00  0.00    +0.000 C 
ATOM     17 CL   UNL     1       7.487   4.128  16.700  0.00  0.00    +0.000 Cl
ATOM     18 CL   UNL     1       5.756   5.563  14.880  0.00  0.00    +0.000 Cl
ENDBRANCH  13  16
ENDBRANCH  12  13
ENDBRANCH  11  12
TORSDOF 3
ENDMDL
MODEL 4
REMARK VINA RESULT:      -7.2      1.459      1.935
REMARK  Name = 
REMARK  3 active torsions:
REMARK  status: ('A' for Active; 'I' for Inactive)
REMARK    1  A    between atoms: N_11  and  S_12
REMARK    2  A    between atoms: S_12  and  C_13
REMARK    3  A    between atoms: C_13  and  C_16
REMARK                            x       y       z     vdW  Elec       q    Type
REMARK                         _______ _______ _______ _____ _____    ______ ____
ROOT
ATOM      1  O   UNL     1       1.645   5.205  17.698  0.00  0.00    +0.000 OA
ATOM      2  C   UNL     1       2.523   4.507  18.184  0.00  0.00    +0.000 C 
ATOM      3  C   UNL     1       2.306   3.135  18.775  0.00  0.00    +0.000 C 
ATOM      4  C   UNL     1       0.937   3.006  19.442  0.00  0.00    +0.000 C 
ATOM      5  C   UNL     1       0.946   2.844  20.923  0.00  0.00    +0.000 C 
ATOM      6  C   UNL     1       2.049   2.648  21.650  0.00  0.00    +0.000 C 
ATOM      7  C   UNL     1       3.428   2.563  21.085  0.00  0.00    +0.000 C 
ATOM      8  C   UNL     1       3.573   2.880  19.595  0.00  0.00    +0.000 C 
ATOM      9  C   UNL     1       4.441   4.095  19.304  0.00  0.00    +0.000 C 
ATOM     10  O   UNL     1       5.483   4.353  19.896  0.00  0.00    +0.000 OA
ATOM     11  N   UNL     1       3.861   4.804  18.286  0.00  0.00    +0.000 N 
ENDROOT
BRANCH  11  12
ATOM     12  S   UNL     1       4.538   6.214  17.608  0.00  0.00    +0.000 S 
BRANCH  12  13
ATOM     13  C   UNL     1       5.676   5.525  16.290  0.00  0.00    +0.000 C 
ATOM     14 CL   UNL     1       5.307   3.773  16.046  0.00  0.00    +0.000 Cl
ATOM     15 CL   UNL     1       5.333   6.358  14.718  0.00  0.00    +0.000 Cl
BRANCH  13  16
ATOM     16  C   UNL     1       7.172   5.761  16.668  0.00  0.00    +0.000 C 
ATOM     17 CL   UNL     1       7.468   7.302  17.548  0.00  0.00    +0.000 Cl
ATOM     18 CL   UNL     1       7.884   4.441  17.677  0.00  0.00    +0.000 Cl
ENDBRANCH  13  16
ENDBRANCH  12  13
ENDBRANCH  11  12
TORSDOF 3
ENDMDL
MODEL 5
REMARK VINA RESULT:      -7.1      0.880      1.970
REMARK  Name = 
REMARK  3 active torsions:
REMARK  status: ('A' for Active; 'I' for Inactive)
REMARK    1  A    between atoms: N_11  and  S_12
REMARK    2  A    between atoms: S_12  and  C_13
REMARK    3  A    between atoms: C_13  and  C_16
REMARK                            x       y       z     vdW  Elec       q    Type
REMARK                         _______ _______ _______ _____ _____    ______ ____
ROOT
ATOM      1  O   UNL     1       1.933   3.559  16.731  0.00  0.00    +0.000 OA
ATOM      2  C   UNL     1       2.645   3.064  17.593  0.00  0.00    +0.000 C 
ATOM      3  C   UNL     1       2.154   2.192  18.722  0.00  0.00    +0.000 C 
ATOM      4  C   UNL     1       0.756   2.594  19.193  0.00  0.00    +0.000 C 
ATOM      5  C   UNL     1       0.671   3.165  20.567  0.00  0.00    +0.000 C 
ATOM      6  C   UNL     1       1.686   3.189  21.434  0.00  0.00    +0.000 C 
ATOM      7  C   UNL     1       3.049   2.649  21.154  0.00  0.00    +0.000 C 
ATOM      8  C   UNL     1       3.315   2.187  19.719  0.00  0.00    +0.000 C 
ATOM      9  C   UNL     1       4.404   2.976  19.008  0.00  0.00    +0.000 C 
ATOM     10  O   UNL     1       5.448   3.337  19.537  0.00  0.00    +0.000 OA
ATOM     11  N   UNL     1       4.010   3.182  17.712  0.00  0.00    +0.000 N 
ENDROOT
BRANCH  11  12
ATOM     12  S   UNL     1       4.964   3.981  16.548  0.00  0.00    +0.000 S 
BRANCH  12  13
ATOM     13  C   UNL     1       4.922   5.758  17.139  0.00  0.00    +0.000 C 
ATOM     14 CL   UNL     1       6.317   6.046  18.250  0.00  0.00    +0.000 Cl
ATOM     15 CL   UNL     1       5.145   6.859  15.718  0.00  0.00    +0.000 Cl
BRANCH  13  16
ATOM     16  C   UNL     1       3.555   6.085  17.817  0.00  0.00    +0.000 C 
ATOM     17 CL   UNL     1       3.588   5.984  19.613  0.00  0.00    +0.000 Cl
ATOM     18 CL   UNL     1       2.908   7.721  17.401  0.00  0.00    +0.000 Cl
ENDBRANCH  13  16
ENDBRANCH  12  13
ENDBRANCH  11  12
TORSDOF 3
ENDMDL
MODEL 6
REMARK VINA RESULT:      -7.1      1.650      2.509
REMARK  Name = 
REMARK  3 active torsions:
REMARK  status: ('A' for Active; 'I' for Inactive)
REMARK    1  A    between atoms: N_11  and  S_12
REMARK    2  A    between atoms: S_12  and  C_13
REMARK    3  A    between atoms: C_13  and  C_16
REMARK                            x       y       z     vdW  Elec       q    Type
REMARK                         _______ _______ _______ _____ _____    ______ ____
ROOT
ATOM      1  O   UNL     1       2.677   6.127  17.924  0.00  0.00    +0.000 OA
ATOM      2  C   UNL     1       3.179   5.015  18.009  0.00  0.00    +0.000 C 
ATOM      3  C   UNL     1       2.493   3.728  17.623  0.00  0.00    +0.000 C 
ATOM      4  C   UNL     1       0.988   3.777  17.883  0.00  0.00    +0.000 C 
ATOM      5  C   UNL     1       0.483   2.875  18.955  0.00  0.00    +0.000 C 
ATOM      6  C   UNL     1       1.221   1.942  19.562  0.00  0.00    +0.000 C 
ATOM      7  C   UNL     1       2.657   1.671  19.255  0.00  0.00    +0.000 C 
ATOM      8  C   UNL     1       3.341   2.642  18.290  0.00  0.00    +0.000 C 
ATOM      9  C   UNL     1       4.496   3.415  18.908  0.00  0.00    +0.000 C 
ATOM     10  O   UNL     1       5.320   2.926  19.672  0.00  0.00    +0.000 OA
ATOM     11  N   UNL     1       4.444   4.705  18.451  0.00  0.00    +0.000 N 
ENDROOT
BRANCH  11  12
ATOM     12  S   UNL     1       5.590   5.900  18.855  0.00  0.00    +0.000 S 
BRANCH  12  13
ATOM     13  C   UNL     1       6.816   5.779  17.445  0.00  0.00    +0.000 C 
ATOM     14 CL   UNL     1       7.745   7.326  17.333  0.00  0.00    +0.000 Cl
ATOM     15 CL   UNL     1       8.015   4.472  17.814  0.00  0.00    +0.000 Cl
BRANCH  13  16
ATOM     16  C   UNL     1       6.092   5.433  16.107  0.00  0.00    +0.000 C 
ATOM     17 CL   UNL     1       5.073   6.767  15.461  0.00  0.00    +0.000 Cl
ATOM     18 CL   UNL     1       7.215   4.947  14.776  0.00  0.00    +0.000 Cl
ENDBRANCH  13  16
ENDBRANCH  12  13
ENDBRANCH  11  12
TORSDOF 3
ENDMDL
MODEL 7
REMARK VINA RESULT:      -7.0      1.132      2.407
REMARK  Name = 
REMARK  3 active torsions:
REMARK  status: ('A' for Active; 'I' for Inactive)
REMARK    1  A    between atoms: N_11  and  S_12
REMARK    2  A    between atoms: S_12  and  C_13
REMARK    3  A    between atoms: C_13  and  C_16
REMARK                            x       y       z     vdW  Elec       q    Type
REMARK                         _______ _______ _______ _____ _____    ______ ____
ROOT
ATOM      1  O   UNL     1       5.252   4.044  19.731  0.00  0.00    +0.000 OA
ATOM      2  C   UNL     1       4.163   4.218  19.203  0.00  0.00    +0.000 C 
ATOM      3  C   UNL     1       2.903   4.613  19.934  0.00  0.00    +0.000 C 
ATOM      4  C   UNL     1       2.849   4.029  21.345  0.00  0.00    +0.000 C 
ATOM      5  C   UNL     1       1.797   3.002  21.585  0.00  0.00    +0.000 C 
ATOM      6  C   UNL     1       0.832   2.698  20.714  0.00  0.00    +0.000 C 
ATOM      7  C   UNL     1       0.668   3.342  19.377  0.00  0.00    +0.000 C 
ATOM      8  C   UNL     1       1.783   4.294  18.941  0.00  0.00    +0.000 C 
ATOM      9  C   UNL     1       2.526   3.844  17.692  0.00  0.00    +0.000 C 
ATOM     10  O   UNL     1       1.985   3.348  16.711  0.00  0.00    +0.000 OA
ATOM     11  N   UNL     1       3.860   4.105  17.867  0.00  0.00    +0.000 N 
ENDROOT
BRANCH  11  12
ATOM     12  S   UNL     1       5.047   3.804  16.682  0.00  0.00    +0.000 S 
BRANCH  12  13
ATOM     13  C   UNL     1       5.809   5.496  16.432  0.00  0.00    +0.000 C 
ATOM     14 CL   UNL     1       6.586   5.560  14.802  0.00  0.00    +0.000 Cl
ATOM     15 CL   UNL     1       4.495   6.743  16.439  0.00  0.00    +0.000 Cl
BRANCH  13  16
ATOM     16  C   UNL     1       6.819   5.824  17.576  0.00  0.00    +0.000 C 
ATOM     17 CL   UNL     1       8.062   4.552  17.841  0.00  0.00    +0.000 Cl
ATOM     18 CL   UNL     1       7.710   7.379  17.336  0.00  0.00    +0.000 Cl
ENDBRANCH  13  16
ENDBRANCH  12  13
ENDBRANCH  11  12
TORSDOF 3
ENDMDL
MODEL 8
REMARK VINA RESULT:      -7.0      3.049      5.347
REMARK  Name = 
REMARK  3 active torsions:
REMARK  status: ('A' for Active; 'I' for Inactive)
REMARK    1  A    between atoms: N_11  and  S_12
REMARK    2  A    between atoms: S_12  and  C_13
REMARK    3  A    between atoms: C_13  and  C_16
REMARK                            x       y       z     vdW  Elec       q    Type
REMARK                         _______ _______ _______ _____ _____    ______ ____
ROOT
ATOM      1  O   UNL     1       3.971   2.516  16.903  0.00  0.00    +0.000 OA
ATOM      2  C   UNL     1       4.471   3.548  17.326  0.00  0.00    +0.000 C 
ATOM      3  C   UNL     1       4.863   4.728  16.472  0.00  0.00    +0.000 C 
ATOM      4  C   UNL     1       5.342   4.301  15.084  0.00  0.00    +0.000 C 
ATOM      5  C   UNL     1       6.783   4.538  14.791  0.00  0.00    +0.000 C 
ATOM      6  C   UNL     1       7.608   5.226  15.584  0.00  0.00    +0.000 C 
ATOM      7  C   UNL     1       7.206   5.857  16.876  0.00  0.00    +0.000 C 
ATOM      8  C   UNL     1       5.792   5.545  17.373  0.00  0.00    +0.000 C 
ATOM      9  C   UNL     1       5.754   4.800  18.699  0.00  0.00    +0.000 C 
ATOM     10  O   UNL     1       6.493   5.044  19.646  0.00  0.00    +0.000 OA
ATOM     11  N   UNL     1       4.766   3.854  18.633  0.00  0.00    +0.000 N 
ENDROOT
BRANCH  11  12
ATOM     12  S   UNL     1       4.348   2.829  19.929  0.00  0.00    +0.000 S 
BRANCH  12  13
ATOM     13  C   UNL     1       2.519   3.171  20.143  0.00  0.00    +0.000 C 
ATOM     14 CL   UNL     1       1.574   1.867  19.324  0.00  0.00    +0.000 Cl
ATOM     15 CL   UNL     1       2.105   3.094  21.905  0.00  0.00    +0.000 Cl
BRANCH  13  16
ATOM     16  C   UNL     1       2.152   4.588  19.602  0.00  0.00    +0.000 C 
ATOM     17 CL   UNL     1       1.310   4.568  18.013  0.00  0.00    +0.000 Cl
ATOM     18 CL   UNL     1       1.115   5.550  20.727  0.00  0.00    +0.000 Cl
ENDBRANCH  13  16
ENDBRANCH  12  13
ENDBRANCH  11  12
TORSDOF 3
ENDMDL
MODEL 9
REMARK VINA RESULT:      -6.9      2.802      5.459
REMARK  Name = 
REMARK  3 active torsions:
REMARK  status: ('A' for Active; 'I' for Inactive)
REMARK    1  A    between atoms: N_11  and  S_12
REMARK    2  A    between atoms: S_12  and  C_13
REMARK    3  A    between atoms: C_13  and  C_16
REMARK                            x       y       z     vdW  Elec       q    Type
REMARK                         _______ _______ _______ _____ _____    ______ ____
ROOT
ATOM      1  O   UNL     1       3.803   2.706  16.782  0.00  0.00    +0.000 OA
ATOM      2  C   UNL     1       4.318   3.712  17.247  0.00  0.00    +0.000 C 
ATOM      3  C   UNL     1       4.815   4.881  16.432  0.00  0.00    +0.000 C 
ATOM      4  C   UNL     1       5.362   4.445  15.074  0.00  0.00    +0.000 C 
ATOM      5  C   UNL     1       6.828   4.621  14.876  0.00  0.00    +0.000 C 
ATOM      6  C   UNL     1       7.629   5.267  15.727  0.00  0.00    +0.000 C 
ATOM      7  C   UNL     1       7.172   5.904  16.997  0.00  0.00    +0.000 C 
ATOM      8  C   UNL     1       5.718   5.650  17.400  0.00  0.00    +0.000 C 
ATOM      9  C   UNL     1       5.563   4.897  18.713  0.00  0.00    +0.000 C 
ATOM     10  O   UNL     1       6.249   5.101  19.707  0.00  0.00    +0.000 OA
ATOM     11  N   UNL     1       4.542   3.994  18.573  0.00  0.00    +0.000 N 
ENDROOT
BRANCH  11  12
ATOM     12  S   UNL     1       3.998   2.978  19.829  0.00  0.00    +0.000 S 
BRANCH  12  13
ATOM     13  C   UNL     1       2.372   3.770  20.316  0.00  0.00    +0.000 C 
ATOM     14 CL   UNL     1       1.953   3.271  22.002  0.00  0.00    +0.000 Cl
ATOM     15 CL   UNL     1       2.573   5.570  20.335  0.00  0.00    +0.000 Cl
BRANCH  13  16
ATOM     16  C   UNL     1       1.248   3.401  19.299  0.00  0.00    +0.000 C 
ATOM     17 CL   UNL     1       1.214   4.447  17.836  0.00  0.00    +0.000 Cl
ATOM     18 CL   UNL     1       1.329   1.693  18.713  0.00  0.00    +0.000 Cl
ENDBRANCH  13  16
ENDBRANCH  12  13
ENDBRANCH  11  12
TORSDOF 3
ENDMDL
