MODEL 1
REMARK VINA RESULT:      -8.2      0.000      0.000
REMARK  Name = 
REMARK  7 active torsions:
REMARK  status: ('A' for Active; 'I' for Inactive)
REMARK    1  A    between atoms: C_1  and  O_2
REMARK    2  A    between atoms: O_2  and  C_3
REMARK    3  A    between atoms: C_8  and  O_9
REMARK    4  A    between atoms: O_9  and  C_10
REMARK    5  A    between atoms: N_20  and  C_21
REMARK    6  A    between atoms: C_21  and  C_22
REMARK    7  A    between atoms: C_26  and  C_27
REMARK                            x       y       z     vdW  Elec       q    Type
REMARK                         _______ _______ _______ _____ _____    ______ ____
ROOT
ATOM      1  C   UNL     1       2.247   2.798  19.383  0.00  0.00    +0.000 A 
ATOM      2  C   UNL     1       1.451   3.295  20.406  0.00  0.00    +0.000 A 
ATOM      3  C   UNL     1       1.301   4.676  20.556  0.00  0.00    +0.000 A 
ATOM      4  C   UNL     1       1.929   5.584  19.715  0.00  0.00    +0.000 A 
ATOM      5  N   UNL     1       1.742   6.879  19.945  0.00  0.00    +0.000 NA
ATOM      6  C   UNL     1       2.354   7.738  19.122  0.00  0.00    +0.000 A 
ATOM      7  N   UNL     1       3.182   7.401  18.119  0.00  0.00    +0.000 NA
ATOM      8  C   UNL     1       3.368   6.087  17.891  0.00  0.00    +0.000 A 
ATOM      9  N   UNL     1       4.265   5.692  16.894  0.00  0.00    +0.000 N 
ATOM     10  C   UNL     1       2.735   5.102  18.681  0.00  0.00    +0.000 A 
ATOM     11  C   UNL     1       2.891   3.699  18.529  0.00  0.00    +0.000 A 
ATOM     12  H   UNL     1       3.875   5.051  16.209  0.00  0.00    +0.000 HD
ENDROOT
BRANCH   1  14
ATOM     13  C   UNL     1       3.765   1.178  18.557  0.00  0.00    +0.000 C 
ATOM     14  O   UNL     1       2.504   1.477  19.150  0.00  0.00    +0.000 OA
ENDBRANCH   1  14
BRANCH   6  15
ATOM     15  O   UNL     1       2.149   9.106  19.286  0.00  0.00    +0.000 OA
BRANCH  15  16
ATOM     16  C   UNL     1       0.882   9.608  19.066  0.00  0.00    +0.000 A 
ATOM     17  C   UNL     1       0.286   9.601  17.794  0.00  0.00    +0.000 A 
ATOM     18  C   UNL     1      -0.991  10.129  17.608  0.00  0.00    +0.000 A 
ATOM     19  C   UNL     1      -1.663  10.710  18.680  0.00  0.00    +0.000 A 
ATOM     20 CL   UNL     1      -3.239  11.360  18.444  0.00  0.00    +0.000 Cl
ATOM     21  C   UNL     1      -1.066  10.774  19.938  0.00  0.00    +0.000 A 
ATOM     22  C   UNL     1       0.208  10.226  20.127  0.00  0.00    +0.000 A 
ATOM     23 CL   UNL     1       0.915  10.339  21.699  0.00  0.00    +0.000 Cl
ENDBRANCH  15  16
ENDBRANCH   6  15
BRANCH   9  24
ATOM     24  C   UNL     1       5.148   6.695  16.309  0.00  0.00    +0.000 C 
BRANCH  24  25
ATOM     25  C   UNL     1       6.370   7.018  17.126  0.00  0.00    +0.000 A 
ATOM     26  O   UNL     1       6.826   8.304  17.072  0.00  0.00    +0.000 OA
ATOM     27  C   UNL     1       7.934   8.371  17.846  0.00  0.00    +0.000 A 
ATOM     28  C   UNL     1       8.202   7.147  18.412  0.00  0.00    +0.000 A 
ATOM     29  C   UNL     1       7.188   6.260  17.952  0.00  0.00    +0.000 A 
ATOM     30  C   UNL     1       7.057   4.819  18.283  0.00  0.00    +0.000 C 
ENDBRANCH  24  25
ENDBRANCH   9  24
TORSDOF 5
ENDMDL
MODEL 2
REMARK VINA RESULT:      -7.7      2.995      7.254
REMARK  Name = 
REMARK  7 active torsions:
REMARK  status: ('A' for Active; 'I' for Inactive)
REMARK    1  A    between atoms: C_1  and  O_2
REMARK    2  A    between atoms: O_2  and  C_3
REMARK    3  A    between atoms: C_8  and  O_9
REMARK    4  A    between atoms: O_9  and  C_10
REMARK    5  A    between atoms: N_20  and  C_21
REMARK    6  A    between atoms: C_21  and  C_22
REMARK    7  A    between atoms: C_26  and  C_27
REMARK                            x       y       z     vdW  Elec       q    Type
REMARK                         _______ _______ _______ _____ _____    ______ ____
ROOT
ATOM      1  C   UNL     1      -0.024  10.385  20.856  0.00  0.00    +0.000 A 
ATOM      2  C   UNL     1       0.297  11.170  19.757  0.00  0.00    +0.000 A 
ATOM      3  C   UNL     1       1.105  10.646  18.745  0.00  0.00    +0.000 A 
ATOM      4  C   UNL     1       1.612   9.356  18.798  0.00  0.00    +0.000 A 
ATOM      5  N   UNL     1       2.386   8.949  17.797  0.00  0.00    +0.000 NA
ATOM      6  C   UNL     1       2.863   7.701  17.864  0.00  0.00    +0.000 A 
ATOM      7  N   UNL     1       2.669   6.846  18.884  0.00  0.00    +0.000 NA
ATOM      8  C   UNL     1       1.883   7.265  19.894  0.00  0.00    +0.000 A 
ATOM      9  N   UNL     1       1.701   6.429  21.001  0.00  0.00    +0.000 N 
ATOM     10  C   UNL     1       1.302   8.551  19.896  0.00  0.00    +0.000 A 
ATOM     11  C   UNL     1       0.483   9.083  20.927  0.00  0.00    +0.000 A 
ATOM     12  H   UNL     1       0.728   6.250  21.235  0.00  0.00    +0.000 HD
ENDROOT
BRANCH   1  14
ATOM     13  C   UNL     1      -0.681   9.976  23.095  0.00  0.00    +0.000 C 
ATOM     14  O   UNL     1      -0.771  10.787  21.926  0.00  0.00    +0.000 OA
ENDBRANCH   1  14
BRANCH   6  15
ATOM     15  O   UNL     1       3.636   7.207  16.817  0.00  0.00    +0.000 OA
BRANCH  15  16
ATOM     16  C   UNL     1       4.802   6.535  17.124  0.00  0.00    +0.000 A 
ATOM     17  C   UNL     1       6.015   7.207  17.348  0.00  0.00    +0.000 A 
ATOM     18  C   UNL     1       7.175   6.493  17.644  0.00  0.00    +0.000 A 
ATOM     19  C   UNL     1       7.144   5.102  17.673  0.00  0.00    +0.000 A 
ATOM     20 CL   UNL     1       8.580   4.227  18.040  0.00  0.00    +0.000 Cl
ATOM     21  C   UNL     1       5.961   4.416  17.403  0.00  0.00    +0.000 A 
ATOM     22  C   UNL     1       4.793   5.134  17.125  0.00  0.00    +0.000 A 
ATOM     23 CL   UNL     1       3.354   4.243  16.782  0.00  0.00    +0.000 Cl
ENDBRANCH  15  16
ENDBRANCH   6  15
BRANCH   9  24
ATOM     24  C   UNL     1       2.553   5.253  21.138  0.00  0.00    +0.000 C 
BRANCH  24  25
ATOM     25  C   UNL     1       2.091   4.042  20.375  0.00  0.00    +0.000 A 
ATOM     26  O   UNL     1       0.770   3.996  20.030  0.00  0.00    +0.000 OA
ATOM     27  C   UNL     1       0.563   2.827  19.383  0.00  0.00    +0.000 A 
ATOM     28  C   UNL     1       1.734   2.112  19.291  0.00  0.00    +0.000 A 
ATOM     29  C   UNL     1       2.736   2.895  19.932  0.00  0.00    +0.000 A 
ATOM     30  C   UNL     1       4.166   2.537  20.099  0.00  0.00    +0.000 C 
ENDBRANCH  24  25
ENDBRANCH   9  24
TORSDOF 5
ENDMDL
MODEL 3
REMARK VINA RESULT:      -7.5      2.151      5.109
REMARK  Name = 
REMARK  7 active torsions:
REMARK  status: ('A' for Active; 'I' for Inactive)
REMARK    1  A    between atoms: C_1  and  O_2
REMARK    2  A    between atoms: O_2  and  C_3
REMARK    3  A    between atoms: C_8  and  O_9
REMARK    4  A    between atoms: O_9  and  C_10
REMARK    5  A    between atoms: N_20  and  C_21
REMARK    6  A    between atoms: C_21  and  C_22
REMARK    7  A    between atoms: C_26  and  C_27
REMARK                            x       y       z     vdW  Elec       q    Type
REMARK                         _______ _______ _______ _____ _____    ______ ____
ROOT
ATOM      1  C   UNL     1       6.131   4.595  14.890  0.00  0.00    +0.000 A 
ATOM      2  C   UNL     1       5.748   5.906  14.639  0.00  0.00    +0.000 A 
ATOM      3  C   UNL     1       5.034   6.616  15.608  0.00  0.00    +0.000 A 
ATOM      4  C   UNL     1       4.680   6.052  16.826  0.00  0.00    +0.000 A 
ATOM      5  N   UNL     1       3.986   6.797  17.679  0.00  0.00    +0.000 NA
ATOM      6  C   UNL     1       3.657   6.237  18.849  0.00  0.00    +0.000 A 
ATOM      7  N   UNL     1       3.923   4.970  19.209  0.00  0.00    +0.000 NA
ATOM      8  C   UNL     1       4.628   4.220  18.339  0.00  0.00    +0.000 A 
ATOM      9  N   UNL     1       4.878   2.880  18.649  0.00  0.00    +0.000 N 
ATOM     10  C   UNL     1       5.054   4.733  17.096  0.00  0.00    +0.000 A 
ATOM     11  C   UNL     1       5.778   4.011  16.111  0.00  0.00    +0.000 A 
ATOM     12  H   UNL     1       5.859   2.616  18.606  0.00  0.00    +0.000 HD
ENDROOT
BRANCH   1  14
ATOM     13  C   UNL     1       6.267   3.713  12.696  0.00  0.00    +0.000 C 
ATOM     14  O   UNL     1       6.797   3.784  14.017  0.00  0.00    +0.000 OA
ENDBRANCH   1  14
BRANCH   6  15
ATOM     15  O   UNL     1       2.975   6.991  19.800  0.00  0.00    +0.000 OA
BRANCH  15  16
ATOM     16  C   UNL     1       2.081   7.947  19.360  0.00  0.00    +0.000 A 
ATOM     17  C   UNL     1       1.956   8.283  18.002  0.00  0.00    +0.000 A 
ATOM     18  C   UNL     1       1.050   9.262  17.597  0.00  0.00    +0.000 A 
ATOM     19  C   UNL     1       0.297   9.946  18.548  0.00  0.00    +0.000 A 
ATOM     20 CL   UNL     1      -0.819  11.153  18.040  0.00  0.00    +0.000 Cl
ATOM     21  C   UNL     1       0.446   9.662  19.904  0.00  0.00    +0.000 A 
ATOM     22  C   UNL     1       1.341   8.665  20.308  0.00  0.00    +0.000 A 
ATOM     23 CL   UNL     1       1.503   8.356  21.999  0.00  0.00    +0.000 Cl
ENDBRANCH  15  16
ENDBRANCH   6  15
BRANCH   9  24
ATOM     24  C   UNL     1       4.166   2.275  19.770  0.00  0.00    +0.000 C 
BRANCH  24  25
ATOM     25  C   UNL     1       2.668   2.383  19.701  0.00  0.00    +0.000 A 
ATOM     26  O   UNL     1       2.077   2.047  18.517  0.00  0.00    +0.000 OA
ATOM     27  C   UNL     1       0.746   2.240  18.660  0.00  0.00    +0.000 A 
ATOM     28  C   UNL     1       0.458   2.688  19.927  0.00  0.00    +0.000 A 
ATOM     29  C   UNL     1       1.701   2.783  20.615  0.00  0.00    +0.000 A 
ATOM     30  C   UNL     1       1.907   3.235  22.014  0.00  0.00    +0.000 C 
ENDBRANCH  24  25
ENDBRANCH   9  24
TORSDOF 5
ENDMDL
MODEL 4
REMARK VINA RESULT:      -7.5      2.165      4.946
REMARK  Name = 
REMARK  7 active torsions:
REMARK  status: ('A' for Active; 'I' for Inactive)
REMARK    1  A    between atoms: C_1  and  O_2
REMARK    2  A    between atoms: O_2  and  C_3
REMARK    3  A    between atoms: C_8  and  O_9
REMARK    4  A    between atoms: O_9  and  C_10
REMARK    5  A    between atoms: N_20  and  C_21
REMARK    6  A    between atoms: C_21  and  C_22
REMARK    7  A    between atoms: C_26  and  C_27
REMARK                            x       y       z     vdW  Elec       q    Type
REMARK                         _______ _______ _______ _____ _____    ______ ____
ROOT
ATOM      1  C   UNL     1       6.148   4.877  15.260  0.00  0.00    +0.000 A 
ATOM      2  C   UNL     1       5.587   6.107  14.943  0.00  0.00    +0.000 A 
ATOM      3  C   UNL     1       4.780   6.761  15.878  0.00  0.00    +0.000 A 
ATOM      4  C   UNL     1       4.509   6.219  17.127  0.00  0.00    +0.000 A 
ATOM      5  N   UNL     1       3.718   6.905  17.945  0.00  0.00    +0.000 NA
ATOM      6  C   UNL     1       3.469   6.368  19.145  0.00  0.00    +0.000 A 
ATOM      7  N   UNL     1       3.910   5.171  19.569  0.00  0.00    +0.000 NA
ATOM      8  C   UNL     1       4.712   4.481  18.735  0.00  0.00    +0.000 A 
ATOM      9  N   UNL     1       5.147   3.207  19.113  0.00  0.00    +0.000 N 
ATOM     10  C   UNL     1       5.063   4.982  17.463  0.00  0.00    +0.000 A 
ATOM     11  C   UNL     1       5.881   4.315  16.512  0.00  0.00    +0.000 A 
ATOM     12  H   UNL     1       6.155   3.081  19.077  0.00  0.00    +0.000 HD
ENDROOT
BRANCH   1  14
ATOM     13  C   UNL     1       6.321   3.735  13.192  0.00  0.00    +0.000 C 
ATOM     14  O   UNL     1       6.921   4.121  14.425  0.00  0.00    +0.000 OA
ENDBRANCH   1  14
BRANCH   6  15
ATOM     15  O   UNL     1       2.689   7.069  20.060  0.00  0.00    +0.000 OA
BRANCH  15  16
ATOM     16  C   UNL     1       1.883   8.086  19.589  0.00  0.00    +0.000 A 
ATOM     17  C   UNL     1       1.791   8.393  18.221  0.00  0.00    +0.000 A 
ATOM     18  C   UNL     1       0.974   9.435  17.784  0.00  0.00    +0.000 A 
ATOM     19  C   UNL     1       0.281  10.209  18.712  0.00  0.00    +0.000 A 
ATOM     20 CL   UNL     1      -0.725  11.493  18.165  0.00  0.00    +0.000 Cl
ATOM     21  C   UNL     1       0.402   9.951  20.076  0.00  0.00    +0.000 A 
ATOM     22  C   UNL     1       1.206   8.892  20.512  0.00  0.00    +0.000 A 
ATOM     23 CL   UNL     1       1.336   8.619  22.213  0.00  0.00    +0.000 Cl
ENDBRANCH  15  16
ENDBRANCH   6  15
BRANCH   9  24
ATOM     24  C   UNL     1       4.527   2.570  20.270  0.00  0.00    +0.000 C 
BRANCH  24  25
ATOM     25  C   UNL     1       3.023   2.612  20.286  0.00  0.00    +0.000 A 
ATOM     26  O   UNL     1       2.427   2.934  21.471  0.00  0.00    +0.000 OA
ATOM     27  C   UNL     1       1.089   2.888  21.276  0.00  0.00    +0.000 A 
ATOM     28  C   UNL     1       0.803   2.550  19.974  0.00  0.00    +0.000 A 
ATOM     29  C   UNL     1       2.056   2.371  19.320  0.00  0.00    +0.000 A 
ATOM     30  C   UNL     1       2.265   1.987  17.901  0.00  0.00    +0.000 C 
ENDBRANCH  24  25
ENDBRANCH   9  24
TORSDOF 5
ENDMDL
MODEL 5
REMARK VINA RESULT:      -7.3      3.559      8.301
REMARK  Name = 
REMARK  7 active torsions:
REMARK  status: ('A' for Active; 'I' for Inactive)
REMARK    1  A    between atoms: C_1  and  O_2
REMARK    2  A    between atoms: O_2  and  C_3
REMARK    3  A    between atoms: C_8  and  O_9
REMARK    4  A    between atoms: O_9  and  C_10
REMARK    5  A    between atoms: N_20  and  C_21
REMARK    6  A    between atoms: C_21  and  C_22
REMARK    7  A    between atoms: C_26  and  C_27
REMARK                            x       y       z     vdW  Elec       q    Type
REMARK                         _______ _______ _______ _____ _____    ______ ____
ROOT
ATOM      1  C   UNL     1      -0.369  10.211  22.720  0.00  0.00    +0.000 A 
ATOM      2  C   UNL     1       0.641   9.348  23.127  0.00  0.00    +0.000 A 
ATOM      3  C   UNL     1       1.437   8.715  22.170  0.00  0.00    +0.000 A 
ATOM      4  C   UNL     1       1.253   8.912  20.808  0.00  0.00    +0.000 A 
ATOM      5  N   UNL     1       2.048   8.254  19.971  0.00  0.00    +0.000 NA
ATOM      6  C   UNL     1       1.857   8.458  18.662  0.00  0.00    +0.000 A 
ATOM      7  N   UNL     1       0.896   9.230  18.126  0.00  0.00    +0.000 NA
ATOM      8  C   UNL     1       0.094   9.894  18.981  0.00  0.00    +0.000 A 
ATOM      9  N   UNL     1      -0.955  10.663  18.466  0.00  0.00    +0.000 N 
ATOM     10  C   UNL     1       0.241   9.774  20.379  0.00  0.00    +0.000 A 
ATOM     11  C   UNL     1      -0.571  10.416  21.351  0.00  0.00    +0.000 A 
ATOM     12  H   UNL     1      -0.966  11.626  18.791  0.00  0.00    +0.000 HD
ENDROOT
BRANCH   1  14
ATOM     13  C   UNL     1      -1.583  12.192  23.176  0.00  0.00    +0.000 C 
ATOM     14  O   UNL     1      -1.237  10.861  23.549  0.00  0.00    +0.000 OA
ENDBRANCH   1  14
BRANCH   6  15
ATOM     15  O   UNL     1       2.696   7.834  17.743  0.00  0.00    +0.000 OA
BRANCH  15  16
ATOM     16  C   UNL     1       2.796   6.458  17.778  0.00  0.00    +0.000 A 
ATOM     17  C   UNL     1       1.694   5.636  18.063  0.00  0.00    +0.000 A 
ATOM     18  C   UNL     1       1.837   4.249  18.101  0.00  0.00    +0.000 A 
ATOM     19  C   UNL     1       3.090   3.676  17.900  0.00  0.00    +0.000 A 
ATOM     20 CL   UNL     1       3.259   1.964  17.947  0.00  0.00    +0.000 Cl
ATOM     21  C   UNL     1       4.205   4.479  17.667  0.00  0.00    +0.000 A 
ATOM     22  C   UNL     1       4.056   5.870  17.610  0.00  0.00    +0.000 A 
ATOM     23 CL   UNL     1       5.467   6.826  17.332  0.00  0.00    +0.000 Cl
ENDBRANCH  15  16
ENDBRANCH   6  15
BRANCH   9  24
ATOM     24  C   UNL     1      -1.298  10.525  17.055  0.00  0.00    +0.000 C 
BRANCH  24  25
ATOM     25  C   UNL     1      -2.714  10.893  16.708  0.00  0.00    +0.000 A 
ATOM     26  O   UNL     1      -3.449  11.507  17.682  0.00  0.00    +0.000 OA
ATOM     27  C   UNL     1      -4.686  11.723  17.178  0.00  0.00    +0.000 A 
ATOM     28  C   UNL     1      -4.766  11.268  15.883  0.00  0.00    +0.000 A 
ATOM     29  C   UNL     1      -3.487  10.727  15.566  0.00  0.00    +0.000 A 
ATOM     30  C   UNL     1      -3.084  10.103  14.281  0.00  0.00    +0.000 C 
ENDBRANCH  24  25
ENDBRANCH   9  24
TORSDOF 5
ENDMDL
MODEL 6
REMARK VINA RESULT:      -7.3      1.290      1.959
REMARK  Name = 
REMARK  7 active torsions:
REMARK  status: ('A' for Active; 'I' for Inactive)
REMARK    1  A    between atoms: C_1  and  O_2
REMARK    2  A    between atoms: O_2  and  C_3
REMARK    3  A    between atoms: C_8  and  O_9
REMARK    4  A    between atoms: O_9  and  C_10
REMARK    5  A    between atoms: N_20  and  C_21
REMARK    6  A    between atoms: C_21  and  C_22
REMARK    7  A    between atoms: C_26  and  C_27
REMARK                            x       y       z     vdW  Elec       q    Type
REMARK                         _______ _______ _______ _____ _____    ______ ____
ROOT
ATOM      1  C   UNL     1       3.373   2.947  20.433  0.00  0.00    +0.000 A 
ATOM      2  C   UNL     1       2.365   3.425  21.261  0.00  0.00    +0.000 A 
ATOM      3  C   UNL     1       1.865   4.715  21.068  0.00  0.00    +0.000 A 
ATOM      4  C   UNL     1       2.346   5.553  20.072  0.00  0.00    +0.000 A 
ATOM      5  N   UNL     1       1.822   6.770  19.974  0.00  0.00    +0.000 NA
ATOM      6  C   UNL     1       2.297   7.562  19.006  0.00  0.00    +0.000 A 
ATOM      7  N   UNL     1       3.295   7.248  18.161  0.00  0.00    +0.000 NA
ATOM      8  C   UNL     1       3.822   6.013  18.266  0.00  0.00    +0.000 A 
ATOM      9  N   UNL     1       4.899   5.665  17.445  0.00  0.00    +0.000 N 
ATOM     10  C   UNL     1       3.361   5.091  19.230  0.00  0.00    +0.000 A 
ATOM     11  C   UNL     1       3.872   3.781  19.427  0.00  0.00    +0.000 A 
ATOM     12  H   UNL     1       4.761   4.811  16.912  0.00  0.00    +0.000 HD
ENDROOT
BRANCH   1  14
ATOM     13  C   UNL     1       4.466   1.162  19.326  0.00  0.00    +0.000 C 
ATOM     14  O   UNL     1       3.971   1.724  20.539  0.00  0.00    +0.000 OA
ENDBRANCH   1  14
BRANCH   6  15
ATOM     15  O   UNL     1       1.746   8.828  18.826  0.00  0.00    +0.000 OA
BRANCH  15  16
ATOM     16  C   UNL     1       1.022   9.380  19.864  0.00  0.00    +0.000 A 
ATOM     17  C   UNL     1       1.382   9.191  21.208  0.00  0.00    +0.000 A 
ATOM     18  C   UNL     1       0.619   9.756  22.230  0.00  0.00    +0.000 A 
ATOM     19  C   UNL     1      -0.534  10.471  21.919  0.00  0.00    +0.000 A 
ATOM     20 CL   UNL     1      -1.471  11.165  23.186  0.00  0.00    +0.000 Cl
ATOM     21  C   UNL     1      -0.935  10.624  20.593  0.00  0.00    +0.000 A 
ATOM     22  C   UNL     1      -0.158  10.075  19.568  0.00  0.00    +0.000 A 
ATOM     23 CL   UNL     1      -0.700  10.277  17.940  0.00  0.00    +0.000 Cl
ENDBRANCH  15  16
ENDBRANCH   6  15
BRANCH   9  24
ATOM     24  C   UNL     1       5.572   6.716  16.689  0.00  0.00    +0.000 C 
BRANCH  24  25
ATOM     25  C   UNL     1       6.743   7.350  17.389  0.00  0.00    +0.000 A 
ATOM     26  O   UNL     1       6.978   8.669  17.127  0.00  0.00    +0.000 OA
ATOM     27  C   UNL     1       8.078   9.029  17.827  0.00  0.00    +0.000 A 
ATOM     28  C   UNL     1       8.559   7.964  18.551  0.00  0.00    +0.000 A 
ATOM     29  C   UNL     1       7.695   6.866  18.275  0.00  0.00    +0.000 A 
ATOM     30  C   UNL     1       7.814   5.489  18.818  0.00  0.00    +0.000 C 
ENDBRANCH  24  25
ENDBRANCH   9  24
TORSDOF 5
ENDMDL
MODEL 7
REMARK VINA RESULT:      -7.3      0.839      1.263
REMARK  Name = 
REMARK  7 active torsions:
REMARK  status: ('A' for Active; 'I' for Inactive)
REMARK    1  A    between atoms: C_1  and  O_2
REMARK    2  A    between atoms: O_2  and  C_3
REMARK    3  A    between atoms: C_8  and  O_9
REMARK    4  A    between atoms: O_9  and  C_10
REMARK    5  A    between atoms: N_20  and  C_21
REMARK    6  A    between atoms: C_21  and  C_22
REMARK    7  A    between atoms: C_26  and  C_27
REMARK                            x       y       z     vdW  Elec       q    Type
REMARK                         _______ _______ _______ _____ _____    ______ ____
ROOT
ATOM      1  C   UNL     1       1.989   2.568  19.056  0.00  0.00    +0.000 A 
ATOM      2  C   UNL     1       1.118   2.897  20.086  0.00  0.00    +0.000 A 
ATOM      3  C   UNL     1       0.977   4.232  20.472  0.00  0.00    +0.000 A 
ATOM      4  C   UNL     1       1.687   5.257  19.863  0.00  0.00    +0.000 A 
ATOM      5  N   UNL     1       1.500   6.495  20.309  0.00  0.00    +0.000 NA
ATOM      6  C   UNL     1       2.192   7.469  19.708  0.00  0.00    +0.000 A 
ATOM      7  N   UNL     1       3.097   7.294  18.729  0.00  0.00    +0.000 NA
ATOM      8  C   UNL     1       3.281   6.037  18.283  0.00  0.00    +0.000 A 
ATOM      9  N   UNL     1       4.254   5.801  17.305  0.00  0.00    +0.000 N 
ATOM     10  C   UNL     1       2.570   4.945  18.827  0.00  0.00    +0.000 A 
ATOM     11  C   UNL     1       2.717   3.589  18.435  0.00  0.00    +0.000 A 
ATOM     12  H   UNL     1       3.913   5.306  16.486  0.00  0.00    +0.000 HD
ENDROOT
BRANCH   1  14
ATOM     13  C   UNL     1       3.620   0.948  18.486  0.00  0.00    +0.000 C 
ATOM     14  O   UNL     1       2.246   1.303  18.608  0.00  0.00    +0.000 OA
ENDBRANCH   1  14
BRANCH   6  15
ATOM     15  O   UNL     1       1.995   8.790  20.100  0.00  0.00    +0.000 OA
BRANCH  15  16
ATOM     16  C   UNL     1       0.864   9.444  19.654  0.00  0.00    +0.000 A 
ATOM     17  C   UNL     1       0.589   9.610  18.286  0.00  0.00    +0.000 A 
ATOM     18  C   UNL     1      -0.559  10.286  17.873  0.00  0.00    +0.000 A 
ATOM     19  C   UNL     1      -1.414  10.843  18.820  0.00  0.00    +0.000 A 
ATOM     20 CL   UNL     1      -2.828  11.676  18.303  0.00  0.00    +0.000 Cl
ATOM     21  C   UNL     1      -1.129  10.733  20.180  0.00  0.00    +0.000 A 
ATOM     22  C   UNL     1       0.012  10.036  20.594  0.00  0.00    +0.000 A 
ATOM     23 CL   UNL     1       0.332   9.937  22.288  0.00  0.00    +0.000 Cl
ENDBRANCH  15  16
ENDBRANCH   6  15
BRANCH   9  24
ATOM     24  C   UNL     1       5.198   6.866  16.986  0.00  0.00    +0.000 C 
BRANCH  24  25
ATOM     25  C   UNL     1       6.492   6.818  17.751  0.00  0.00    +0.000 A 
ATOM     26  O   UNL     1       6.773   5.659  18.417  0.00  0.00    +0.000 OA
ATOM     27  C   UNL     1       7.953   5.836  19.054  0.00  0.00    +0.000 A 
ATOM     28  C   UNL     1       8.452   7.092  18.804  0.00  0.00    +0.000 A 
ATOM     29  C   UNL     1       7.510   7.739  17.955  0.00  0.00    +0.000 A 
ATOM     30  C   UNL     1       7.604   9.121  17.422  0.00  0.00    +0.000 C 
ENDBRANCH  24  25
ENDBRANCH   9  24
TORSDOF 5
ENDMDL
MODEL 8
REMARK VINA RESULT:      -7.1      3.594      6.777
REMARK  Name = 
REMARK  7 active torsions:
REMARK  status: ('A' for Active; 'I' for Inactive)
REMARK    1  A    between atoms: C_1  and  O_2
REMARK    2  A    between atoms: O_2  and  C_3
REMARK    3  A    between atoms: C_8  and  O_9
REMARK    4  A    between atoms: O_9  and  C_10
REMARK    5  A    between atoms: N_20  and  C_21
REMARK    6  A    between atoms: C_21  and  C_22
REMARK    7  A    between atoms: C_26  and  C_27
REMARK                            x       y       z     vdW  Elec       q    Type
REMARK                         _______ _______ _______ _____ _____    ______ ____
ROOT
ATOM      1  C   UNL     1      -3.024  10.099  16.566  0.00  0.00    +0.000 A 
ATOM      2  C   UNL     1      -3.787  10.904  17.402  0.00  0.00    +0.000 A 
ATOM      3  C   UNL     1      -3.200  11.482  18.530  0.00  0.00    +0.000 A 
ATOM      4  C   UNL     1      -1.867  11.277  18.857  0.00  0.00    +0.000 A 
ATOM      5  N   UNL     1      -1.400  11.855  19.959  0.00  0.00    +0.000 NA
ATOM      6  C   UNL     1      -0.112  11.647  20.256  0.00  0.00    +0.000 A 
ATOM      7  N   UNL     1       0.731  10.862  19.563  0.00  0.00    +0.000 NA
ATOM      8  C   UNL     1       0.251  10.280  18.448  0.00  0.00    +0.000 A 
ATOM      9  N   UNL     1       1.077   9.411  17.728  0.00  0.00    +0.000 N 
ATOM     10  C   UNL     1      -1.084  10.469  18.030  0.00  0.00    +0.000 A 
ATOM     11  C   UNL     1      -1.680   9.879  16.884  0.00  0.00    +0.000 A 
ATOM     12  H   UNL     1       1.166   9.638  16.742  0.00  0.00    +0.000 HD
ENDROOT
BRANCH   1  14
ATOM     13  C   UNL     1      -3.457  10.188  14.239  0.00  0.00    +0.000 C 
ATOM     14  O   UNL     1      -3.483   9.448  15.457  0.00  0.00    +0.000 OA
ENDBRANCH   1  14
BRANCH   6  15
ATOM     15  O   UNL     1       0.441  12.271  21.371  0.00  0.00    +0.000 OA
BRANCH  15  16
ATOM     16  C   UNL     1      -0.406  12.922  22.244  0.00  0.00    +0.000 A 
ATOM     17  C   UNL     1      -1.422  12.248  22.942  0.00  0.00    +0.000 A 
ATOM     18  C   UNL     1      -2.266  12.942  23.808  0.00  0.00    +0.000 A 
ATOM     19  C   UNL     1      -2.134  14.321  23.947  0.00  0.00    +0.000 A 
ATOM     20 CL   UNL     1      -3.179  15.171  25.018  0.00  0.00    +0.000 Cl
ATOM     21  C   UNL     1      -1.166  15.015  23.224  0.00  0.00    +0.000 A 
ATOM     22  C   UNL     1      -0.306  14.314  22.370  0.00  0.00    +0.000 A 
ATOM     23 CL   UNL     1       0.870  15.216  21.483  0.00  0.00    +0.000 Cl
ENDBRANCH  15  16
ENDBRANCH   6  15
BRANCH   9  24
ATOM     24  C   UNL     1       2.329   8.972  18.335  0.00  0.00    +0.000 C 
BRANCH  24  25
ATOM     25  C   UNL     1       2.264   7.638  19.028  0.00  0.00    +0.000 A 
ATOM     26  O   UNL     1       2.735   6.559  18.336  0.00  0.00    +0.000 OA
ATOM     27  C   UNL     1       2.561   5.470  19.119  0.00  0.00    +0.000 A 
ATOM     28  C   UNL     1       1.990   5.825  20.319  0.00  0.00    +0.000 A 
ATOM     29  C   UNL     1       1.795   7.235  20.271  0.00  0.00    +0.000 A 
ATOM     30  C   UNL     1       1.196   8.081  21.333  0.00  0.00    +0.000 C 
ENDBRANCH  24  25
ENDBRANCH   9  24
TORSDOF 5
ENDMDL
MODEL 9
REMARK VINA RESULT:      -7.1      3.732      6.899
REMARK  Name = 
REMARK  7 active torsions:
REMARK  status: ('A' for Active; 'I' for Inactive)
REMARK    1  A    between atoms: C_1  and  O_2
REMARK    2  A    between atoms: O_2  and  C_3
REMARK    3  A    between atoms: C_8  and  O_9
REMARK    4  A    between atoms: O_9  and  C_10
REMARK    5  A    between atoms: N_20  and  C_21
REMARK    6  A    between atoms: C_21  and  C_22
REMARK    7  A    between atoms: C_26  and  C_27
REMARK                            x       y       z     vdW  Elec       q    Type
REMARK                         _______ _______ _______ _____ _____    ______ ____
ROOT
ATOM      1  C   UNL     1      -2.314  10.415  16.740  0.00  0.00    +0.000 A 
ATOM      2  C   UNL     1      -3.166  11.359  17.298  0.00  0.00    +0.000 A 
ATOM      3  C   UNL     1      -2.920  11.836  18.588  0.00  0.00    +0.000 A 
ATOM      4  C   UNL     1      -1.846  11.393  19.347  0.00  0.00    +0.000 A 
ATOM      5  N   UNL     1      -1.700  11.892  20.570  0.00  0.00    +0.000 NA
ATOM      6  C   UNL     1      -0.658  11.454  21.286  0.00  0.00    +0.000 A 
ATOM      7  N   UNL     1       0.221  10.516  20.890  0.00  0.00    +0.000 NA
ATOM      8  C   UNL     1       0.067  10.016  19.649  0.00  0.00    +0.000 A 
ATOM      9  N   UNL     1       0.925   8.998  19.219  0.00  0.00    +0.000 N 
ATOM     10  C   UNL     1      -0.979  10.442  18.803  0.00  0.00    +0.000 A 
ATOM     11  C   UNL     1      -1.230   9.955  17.494  0.00  0.00    +0.000 A 
ATOM     12  H   UNL     1       1.393   9.190  18.338  0.00  0.00    +0.000 HD
ENDROOT
BRANCH   1  14
ATOM     13  C   UNL     1      -3.556  10.316  14.726  0.00  0.00    +0.000 C 
ATOM     14  O   UNL     1      -2.463   9.843  15.509  0.00  0.00    +0.000 OA
ENDBRANCH   1  14
BRANCH   6  15
ATOM     15  O   UNL     1      -0.429  11.982  22.553  0.00  0.00    +0.000 OA
BRANCH  15  16
ATOM     16  C   UNL     1      -1.340  12.886  23.060  0.00  0.00    +0.000 A 
ATOM     17  C   UNL     1      -2.591  12.486  23.559  0.00  0.00    +0.000 A 
ATOM     18  C   UNL     1      -3.491  13.430  24.052  0.00  0.00    +0.000 A 
ATOM     19  C   UNL     1      -3.169  14.784  24.007  0.00  0.00    +0.000 A 
ATOM     20 CL   UNL     1      -4.284  15.943  24.618  0.00  0.00    +0.000 Cl
ATOM     21  C   UNL     1      -1.954  15.203  23.468  0.00  0.00    +0.000 A 
ATOM     22  C   UNL     1      -1.043  14.253  22.992  0.00  0.00    +0.000 A 
ATOM     23 CL   UNL     1       0.444  14.820  22.320  0.00  0.00    +0.000 Cl
ENDBRANCH  15  16
ENDBRANCH   6  15
BRANCH   9  24
ATOM     24  C   UNL     1       1.784   8.345  20.200  0.00  0.00    +0.000 C 
BRANCH  24  25
ATOM     25  C   UNL     1       2.192   6.940  19.850  0.00  0.00    +0.000 A 
ATOM     26  O   UNL     1       1.778   5.948  20.692  0.00  0.00    +0.000 OA
ATOM     27  C   UNL     1       2.270   4.782  20.215  0.00  0.00    +0.000 A 
ATOM     28  C   UNL     1       2.992   4.998  19.065  0.00  0.00    +0.000 A 
ATOM     29  C   UNL     1       2.946   6.399  18.817  0.00  0.00    +0.000 A 
ATOM     30  C   UNL     1       3.591   7.120  17.690  0.00  0.00    +0.000 C 
ENDBRANCH  24  25
ENDBRANCH   9  24
TORSDOF 5
ENDMDL
