MODEL 1
REMARK VINA RESULT:      -7.7      0.000      0.000
REMARK  Name = 
REMARK  5 active torsions:
REMARK  status: ('A' for Active; 'I' for Inactive)
REMARK    1  A    between atoms: C_1  and  C_2
REMARK    2  A    between atoms: C_2  and  N_3
REMARK    3  A    between atoms: C_4  and  S_5
REMARK    4  A    between atoms: S_5  and  C_6
REMARK    5  A    between atoms: C_6  and  C_7
REMARK                            x       y       z     vdW  Elec       q    Type
REMARK                         _______ _______ _______ _____ _____    ______ ____
ROOT
ATOM      1  N   UNL     1       1.768   4.460  19.565  0.00  0.00    +0.000 N 
ATOM      2  C   UNL     1       2.113   5.813  19.681  0.00  0.00    +0.000 A 
ATOM      3  N   UNL     1       3.034   6.396  18.969  0.00  0.00    +0.000 NA
ATOM      4  C   UNL     1       3.717   5.619  18.009  0.00  0.00    +0.000 A 
ATOM      5  N   UNL     1       4.659   6.243  17.254  0.00  0.00    +0.000 NA
ATOM      6  C   UNL     1       5.324   5.508  16.300  0.00  0.00    +0.000 A 
ATOM      7  C   UNL     1       5.035   4.165  16.030  0.00  0.00    +0.000 A 
ATOM      8  C   UNL     1       4.094   3.544  16.836  0.00  0.00    +0.000 A 
ATOM      9  C   UNL     1       3.451   4.281  17.832  0.00  0.00    +0.000 A 
ATOM     10  C   UNL     1       2.524   3.639  18.737  0.00  0.00    +0.000 A 
ATOM     11  O   UNL     1       2.499   2.408  18.736  0.00  0.00    +0.000 OA
ATOM     12  C   UNL     1       5.738   3.356  14.975  0.00  0.00    +0.000 C 
ATOM     13  C   UNL     1       6.491   4.216  13.968  0.00  0.00    +0.000 C 
ATOM     14  C   UNL     1       7.308   5.269  14.705  0.00  0.00    +0.000 C 
ATOM     15  C   UNL     1       6.386   6.218  15.486  0.00  0.00    +0.000 C 
ENDROOT
BRANCH   1  17
ATOM     16  C   UNL     1       1.447   2.980  21.626  0.00  0.00    +0.000 C 
ATOM     17  C   UNL     1       0.828   3.768  20.472  0.00  0.00    +0.000 C 
ENDBRANCH   1  17
BRANCH   2  18
ATOM     18  S   UNL     1       1.200   6.707  20.898  0.00  0.00    +0.000 S 
BRANCH  18  19
ATOM     19  C   UNL     1       1.866   8.378  20.960  0.00  0.00    +0.000 C 
BRANCH  19  20
ATOM     20  C   UNL     1       0.784   9.410  20.640  0.00  0.00    +0.000 A 
ATOM     21  C   UNL     1      -0.027   9.971  21.651  0.00  0.00    +0.000 A 
ATOM     22 CL   UNL     1       0.075   9.452  23.299  0.00  0.00    +0.000 Cl
ATOM     23  C   UNL     1      -0.973  10.971  21.371  0.00  0.00    +0.000 A 
ATOM     24  C   UNL     1      -1.147  11.429  20.070  0.00  0.00    +0.000 A 
ATOM     25  C   UNL     1      -0.407  10.853  19.044  0.00  0.00    +0.000 A 
ATOM     26  C   UNL     1       0.532   9.844  19.320  0.00  0.00    +0.000 A 
ATOM     27 CL   UNL     1       1.332   9.144  17.955  0.00  0.00    +0.000 Cl
ENDBRANCH  19  20
ENDBRANCH  18  19
ENDBRANCH   2  18
TORSDOF 4
ENDMDL
MODEL 2
REMARK VINA RESULT:      -7.6      0.205      1.765
REMARK  Name = 
REMARK  5 active torsions:
REMARK  status: ('A' for Active; 'I' for Inactive)
REMARK    1  A    between atoms: C_1  and  C_2
REMARK    2  A    between atoms: C_2  and  N_3
REMARK    3  A    between atoms: C_4  and  S_5
REMARK    4  A    between atoms: S_5  and  C_6
REMARK    5  A    between atoms: C_6  and  C_7
REMARK                            x       y       z     vdW  Elec       q    Type
REMARK                         _______ _______ _______ _____ _____    ______ ____
ROOT
ATOM      1  N   UNL     1       1.772   4.360  19.518  0.00  0.00    +0.000 N 
ATOM      2  C   UNL     1       2.111   5.714  19.649  0.00  0.00    +0.000 A 
ATOM      3  N   UNL     1       3.028   6.309  18.942  0.00  0.00    +0.000 NA
ATOM      4  C   UNL     1       3.713   5.545  17.973  0.00  0.00    +0.000 A 
ATOM      5  N   UNL     1       4.651   6.182  17.224  0.00  0.00    +0.000 NA
ATOM      6  C   UNL     1       5.319   5.460  16.260  0.00  0.00    +0.000 A 
ATOM      7  C   UNL     1       5.035   4.120  15.976  0.00  0.00    +0.000 A 
ATOM      8  C   UNL     1       4.099   3.485  16.777  0.00  0.00    +0.000 A 
ATOM      9  C   UNL     1       3.453   4.208  17.782  0.00  0.00    +0.000 A 
ATOM     10  C   UNL     1       2.530   3.552  18.681  0.00  0.00    +0.000 A 
ATOM     11  O   UNL     1       2.511   2.321  18.666  0.00  0.00    +0.000 OA
ATOM     12  C   UNL     1       5.741   3.326  14.912  0.00  0.00    +0.000 C 
ATOM     13  C   UNL     1       6.489   4.200  13.913  0.00  0.00    +0.000 C 
ATOM     14  C   UNL     1       7.302   5.249  14.661  0.00  0.00    +0.000 C 
ATOM     15  C   UNL     1       6.377   6.185  15.453  0.00  0.00    +0.000 C 
ENDROOT
BRANCH   1  17
ATOM     16  C   UNL     1       1.459   2.877  21.578  0.00  0.00    +0.000 C 
ATOM     17  C   UNL     1       0.836   3.653  20.418  0.00  0.00    +0.000 C 
ENDBRANCH   1  17
BRANCH   2  18
ATOM     18  S   UNL     1       1.195   6.590  20.877  0.00  0.00    +0.000 S 
BRANCH  18  19
ATOM     19  C   UNL     1       1.885   8.248  20.991  0.00  0.00    +0.000 C 
BRANCH  19  20
ATOM     20  C   UNL     1       0.863   9.297  20.554  0.00  0.00    +0.000 A 
ATOM     21  C   UNL     1       0.771   9.726  19.211  0.00  0.00    +0.000 A 
ATOM     22 CL   UNL     1       1.874   9.176  17.997  0.00  0.00    +0.000 Cl
ATOM     23  C   UNL     1      -0.213  10.638  18.792  0.00  0.00    +0.000 A 
ATOM     24  C   UNL     1      -1.124  11.159  19.704  0.00  0.00    +0.000 A 
ATOM     25  C   UNL     1      -1.020  10.803  21.043  0.00  0.00    +0.000 A 
ATOM     26  C   UNL     1      -0.029   9.900  21.468  0.00  0.00    +0.000 A 
ATOM     27 CL   UNL     1       0.056   9.597  23.169  0.00  0.00    +0.000 Cl
ENDBRANCH  19  20
ENDBRANCH  18  19
ENDBRANCH   2  18
TORSDOF 4
ENDMDL
MODEL 3
REMARK VINA RESULT:      -7.2      4.510      6.855
REMARK  Name = 
REMARK  5 active torsions:
REMARK  status: ('A' for Active; 'I' for Inactive)
REMARK    1  A    between atoms: C_1  and  C_2
REMARK    2  A    between atoms: C_2  and  N_3
REMARK    3  A    between atoms: C_4  and  S_5
REMARK    4  A    between atoms: S_5  and  C_6
REMARK    5  A    between atoms: C_6  and  C_7
REMARK                            x       y       z     vdW  Elec       q    Type
REMARK                         _______ _______ _______ _____ _____    ______ ____
ROOT
ATOM      1  N   UNL     1      -0.476  11.461  21.767  0.00  0.00    +0.000 N 
ATOM      2  C   UNL     1      -0.265  11.950  20.471  0.00  0.00    +0.000 A 
ATOM      3  N   UNL     1       0.356  11.293  19.534  0.00  0.00    +0.000 NA
ATOM      4  C   UNL     1       0.833  10.001  19.841  0.00  0.00    +0.000 A 
ATOM      5  N   UNL     1       1.458   9.313  18.849  0.00  0.00    +0.000 NA
ATOM      6  C   UNL     1       1.915   8.043  19.121  0.00  0.00    +0.000 A 
ATOM      7  C   UNL     1       1.714   7.406  20.350  0.00  0.00    +0.000 A 
ATOM      8  C   UNL     1       1.104   8.140  21.354  0.00  0.00    +0.000 A 
ATOM      9  C   UNL     1       0.679   9.444  21.089  0.00  0.00    +0.000 A 
ATOM     10  C   UNL     1       0.112  10.259  22.140  0.00  0.00    +0.000 A 
ATOM     11  O   UNL     1       0.225   9.846  23.294  0.00  0.00    +0.000 OA
ATOM     12  C   UNL     1       2.189   6.011  20.653  0.00  0.00    +0.000 C 
ATOM     13  C   UNL     1       2.538   5.215  19.402  0.00  0.00    +0.000 C 
ATOM     14  C   UNL     1       3.403   6.065  18.481  0.00  0.00    +0.000 C 
ATOM     15  C   UNL     1       2.629   7.305  18.007  0.00  0.00    +0.000 C 
ENDROOT
BRANCH   1  17
ATOM     16  C   UNL     1      -2.515  11.998  23.216  0.00  0.00    +0.000 C 
ATOM     17  C   UNL     1      -1.050  12.264  22.869  0.00  0.00    +0.000 C 
ENDBRANCH   1  17
BRANCH   2  18
ATOM     18  S   UNL     1      -0.905  13.568  20.178  0.00  0.00    +0.000 S 
BRANCH  18  19
ATOM     19  C   UNL     1      -0.256  14.133  18.598  0.00  0.00    +0.000 C 
BRANCH  19  20
ATOM     20  C   UNL     1       0.850  15.168  18.799  0.00  0.00    +0.000 A 
ATOM     21  C   UNL     1       0.556  16.528  19.044  0.00  0.00    +0.000 A 
ATOM     22 CL   UNL     1      -1.066  17.131  19.026  0.00  0.00    +0.000 Cl
ATOM     23  C   UNL     1       1.567  17.470  19.299  0.00  0.00    +0.000 A 
ATOM     24  C   UNL     1       2.903  17.083  19.303  0.00  0.00    +0.000 A 
ATOM     25  C   UNL     1       3.228  15.765  19.004  0.00  0.00    +0.000 A 
ATOM     26  C   UNL     1       2.218  14.824  18.737  0.00  0.00    +0.000 A 
ATOM     27 CL   UNL     1       2.746  13.235  18.297  0.00  0.00    +0.000 Cl
ENDBRANCH  19  20
ENDBRANCH  18  19
ENDBRANCH   2  18
TORSDOF 4
ENDMDL
MODEL 4
REMARK VINA RESULT:      -7.2      2.891      6.916
REMARK  Name = 
REMARK  5 active torsions:
REMARK  status: ('A' for Active; 'I' for Inactive)
REMARK    1  A    between atoms: C_1  and  C_2
REMARK    2  A    between atoms: C_2  and  N_3
REMARK    3  A    between atoms: C_4  and  S_5
REMARK    4  A    between atoms: S_5  and  C_6
REMARK    5  A    between atoms: C_6  and  C_7
REMARK                            x       y       z     vdW  Elec       q    Type
REMARK                         _______ _______ _______ _____ _____    ______ ____
ROOT
ATOM      1  N   UNL     1       4.639   5.783  17.527  0.00  0.00    +0.000 N 
ATOM      2  C   UNL     1       4.515   5.291  18.833  0.00  0.00    +0.000 A 
ATOM      3  N   UNL     1       3.719   5.797  19.732  0.00  0.00    +0.000 NA
ATOM      4  C   UNL     1       2.923   6.901  19.361  0.00  0.00    +0.000 A 
ATOM      5  N   UNL     1       2.078   7.406  20.298  0.00  0.00    +0.000 NA
ATOM      6  C   UNL     1       1.279   8.472  19.952  0.00  0.00    +0.000 A 
ATOM      7  C   UNL     1       1.252   9.020  18.665  0.00  0.00    +0.000 A 
ATOM      8  C   UNL     1       2.146   8.509  17.737  0.00  0.00    +0.000 A 
ATOM      9  C   UNL     1       2.986   7.456  18.104  0.00  0.00    +0.000 A 
ATOM     10  C   UNL     1       3.982   6.956  17.181  0.00  0.00    +0.000 A 
ATOM     11  O   UNL     1       4.201   7.629  16.174  0.00  0.00    +0.000 OA
ATOM     12  C   UNL     1       0.368  10.170  18.266  0.00  0.00    +0.000 C 
ATOM     13  C   UNL     1      -0.769  10.416  19.250  0.00  0.00    +0.000 C 
ATOM     14  C   UNL     1      -0.224  10.410  20.672  0.00  0.00    +0.000 C 
ATOM     15  C   UNL     1       0.363   9.033  21.020  0.00  0.00    +0.000 C 
ENDROOT
BRANCH   1  17
ATOM     16  C   UNL     1       5.161   4.294  15.513  0.00  0.00    +0.000 C 
ATOM     17  C   UNL     1       5.645   5.300  16.557  0.00  0.00    +0.000 C 
ENDBRANCH   1  17
BRANCH   2  18
ATOM     18  S   UNL     1       5.541   3.904  19.202  0.00  0.00    +0.000 S 
BRANCH  18  19
ATOM     19  C   UNL     1       4.590   2.784  20.242  0.00  0.00    +0.000 C 
BRANCH  19  20
ATOM     20  C   UNL     1       3.151   2.661  19.741  0.00  0.00    +0.000 A 
ATOM     21  C   UNL     1       2.058   3.114  20.512  0.00  0.00    +0.000 A 
ATOM     22 CL   UNL     1       2.263   3.737  22.114  0.00  0.00    +0.000 Cl
ATOM     23  C   UNL     1       0.740   3.067  20.027  0.00  0.00    +0.000 A 
ATOM     24  C   UNL     1       0.474   2.554  18.763  0.00  0.00    +0.000 A 
ATOM     25  C   UNL     1       1.522   2.044  18.004  0.00  0.00    +0.000 A 
ATOM     26  C   UNL     1       2.840   2.078  18.493  0.00  0.00    +0.000 A 
ATOM     27 CL   UNL     1       4.048   1.340  17.498  0.00  0.00    +0.000 Cl
ENDBRANCH  19  20
ENDBRANCH  18  19
ENDBRANCH   2  18
TORSDOF 4
ENDMDL
MODEL 5
REMARK VINA RESULT:      -7.1      2.903      7.041
REMARK  Name = 
REMARK  5 active torsions:
REMARK  status: ('A' for Active; 'I' for Inactive)
REMARK    1  A    between atoms: C_1  and  C_2
REMARK    2  A    between atoms: C_2  and  N_3
REMARK    3  A    between atoms: C_4  and  S_5
REMARK    4  A    between atoms: S_5  and  C_6
REMARK    5  A    between atoms: C_6  and  C_7
REMARK                            x       y       z     vdW  Elec       q    Type
REMARK                         _______ _______ _______ _____ _____    ______ ____
ROOT
ATOM      1  N   UNL     1       4.544   6.045  17.273  0.00  0.00    +0.000 N 
ATOM      2  C   UNL     1       4.475   5.470  18.549  0.00  0.00    +0.000 A 
ATOM      3  N   UNL     1       3.714   5.912  19.509  0.00  0.00    +0.000 NA
ATOM      4  C   UNL     1       2.898   7.032  19.242  0.00  0.00    +0.000 A 
ATOM      5  N   UNL     1       2.090   7.471  20.242  0.00  0.00    +0.000 NA
ATOM      6  C   UNL     1       1.272   8.551  19.997  0.00  0.00    +0.000 A 
ATOM      7  C   UNL     1       1.191   9.180  18.749  0.00  0.00    +0.000 A 
ATOM      8  C   UNL     1       2.049   8.735  17.756  0.00  0.00    +0.000 A 
ATOM      9  C   UNL     1       2.909   7.666  18.021  0.00  0.00    +0.000 A 
ATOM     10  C   UNL     1       3.868   7.233  17.030  0.00  0.00    +0.000 A 
ATOM     11  O   UNL     1       4.044   7.970  16.059  0.00  0.00    +0.000 OA
ATOM     12  C   UNL     1       0.286  10.346  18.461  0.00  0.00    +0.000 C 
ATOM     13  C   UNL     1      -0.811  10.521  19.503  0.00  0.00    +0.000 C 
ATOM     14  C   UNL     1      -0.210  10.428  20.899  0.00  0.00    +0.000 C 
ATOM     15  C   UNL     1       0.397   9.037  21.134  0.00  0.00    +0.000 C 
ENDROOT
BRANCH   1  17
ATOM     16  C   UNL     1       5.095   4.470  15.333  0.00  0.00    +0.000 C 
ATOM     17  C   UNL     1       5.513   5.632  16.235  0.00  0.00    +0.000 C 
ENDBRANCH   1  17
BRANCH   2  18
ATOM     18  S   UNL     1       5.521   4.069  18.788  0.00  0.00    +0.000 S 
BRANCH  18  19
ATOM     19  C   UNL     1       4.508   2.594  18.598  0.00  0.00    +0.000 C 
BRANCH  19  20
ATOM     20  C   UNL     1       3.286   2.647  19.515  0.00  0.00    +0.000 A 
ATOM     21  C   UNL     1       3.351   2.218  20.860  0.00  0.00    +0.000 A 
ATOM     22 CL   UNL     1       4.781   1.506  21.526  0.00  0.00    +0.000 Cl
ATOM     23  C   UNL     1       2.250   2.330  21.726  0.00  0.00    +0.000 A 
ATOM     24  C   UNL     1       1.049   2.861  21.271  0.00  0.00    +0.000 A 
ATOM     25  C   UNL     1       0.935   3.235  19.937  0.00  0.00    +0.000 A 
ATOM     26  C   UNL     1       2.032   3.112  19.065  0.00  0.00    +0.000 A 
ATOM     27 CL   UNL     1       1.748   3.531  17.410  0.00  0.00    +0.000 Cl
ENDBRANCH  19  20
ENDBRANCH  18  19
ENDBRANCH   2  18
TORSDOF 4
ENDMDL
MODEL 6
REMARK VINA RESULT:      -7.1      4.490      6.917
REMARK  Name = 
REMARK  5 active torsions:
REMARK  status: ('A' for Active; 'I' for Inactive)
REMARK    1  A    between atoms: C_1  and  C_2
REMARK    2  A    between atoms: C_2  and  N_3
REMARK    3  A    between atoms: C_4  and  S_5
REMARK    4  A    between atoms: S_5  and  C_6
REMARK    5  A    between atoms: C_6  and  C_7
REMARK                            x       y       z     vdW  Elec       q    Type
REMARK                         _______ _______ _______ _____ _____    ______ ____
ROOT
ATOM      1  N   UNL     1      -0.504  11.438  21.757  0.00  0.00    +0.000 N 
ATOM      2  C   UNL     1      -0.301  11.909  20.453  0.00  0.00    +0.000 A 
ATOM      3  N   UNL     1       0.319  11.241  19.523  0.00  0.00    +0.000 NA
ATOM      4  C   UNL     1       0.805   9.957  19.846  0.00  0.00    +0.000 A 
ATOM      5  N   UNL     1       1.429   9.258  18.862  0.00  0.00    +0.000 NA
ATOM      6  C   UNL     1       1.895   7.995  19.150  0.00  0.00    +0.000 A 
ATOM      7  C   UNL     1       1.703   7.375  20.390  0.00  0.00    +0.000 A 
ATOM      8  C   UNL     1       1.094   8.121  21.386  0.00  0.00    +0.000 A 
ATOM      9  C   UNL     1       0.660   9.418  21.103  0.00  0.00    +0.000 A 
ATOM     10  C   UNL     1       0.093  10.245  22.145  0.00  0.00    +0.000 A 
ATOM     11  O   UNL     1       0.213   9.849  23.304  0.00  0.00    +0.000 OA
ATOM     12  C   UNL     1       2.187   5.987  20.711  0.00  0.00    +0.000 C 
ATOM     13  C   UNL     1       2.535   5.175  19.470  0.00  0.00    +0.000 C 
ATOM     14  C   UNL     1       3.390   6.016  18.533  0.00  0.00    +0.000 C 
ATOM     15  C   UNL     1       2.608   7.245  18.044  0.00  0.00    +0.000 C 
ENDROOT
BRANCH   1  17
ATOM     16  C   UNL     1      -2.544  11.998  23.195  0.00  0.00    +0.000 C 
ATOM     17  C   UNL     1      -1.077  12.254  22.849  0.00  0.00    +0.000 C 
ENDBRANCH   1  17
BRANCH   2  18
ATOM     18  S   UNL     1      -0.952  13.519  20.139  0.00  0.00    +0.000 S 
BRANCH  18  19
ATOM     19  C   UNL     1      -0.274  14.084  18.570  0.00  0.00    +0.000 C 
BRANCH  19  20
ATOM     20  C   UNL     1       0.823  15.125  18.791  0.00  0.00    +0.000 A 
ATOM     21  C   UNL     1       2.192  14.786  18.712  0.00  0.00    +0.000 A 
ATOM     22 CL   UNL     1       2.718  13.155  18.468  0.00  0.00    +0.000 Cl
ATOM     23  C   UNL     1       3.203  15.753  18.845  0.00  0.00    +0.000 A 
ATOM     24  C   UNL     1       2.876  17.084  19.074  0.00  0.00    +0.000 A 
ATOM     25  C   UNL     1       1.540  17.439  19.218  0.00  0.00    +0.000 A 
ATOM     26  C   UNL     1       0.527  16.471  19.098  0.00  0.00    +0.000 A 
ATOM     27 CL   UNL     1      -1.092  17.014  19.379  0.00  0.00    +0.000 Cl
ENDBRANCH  19  20
ENDBRANCH  18  19
ENDBRANCH   2  18
TORSDOF 4
ENDMDL
MODEL 7
REMARK VINA RESULT:      -7.0      5.374      8.257
REMARK  Name = 
REMARK  5 active torsions:
REMARK  status: ('A' for Active; 'I' for Inactive)
REMARK    1  A    between atoms: C_1  and  C_2
REMARK    2  A    between atoms: C_2  and  N_3
REMARK    3  A    between atoms: C_4  and  S_5
REMARK    4  A    between atoms: S_5  and  C_6
REMARK    5  A    between atoms: C_6  and  C_7
REMARK                            x       y       z     vdW  Elec       q    Type
REMARK                         _______ _______ _______ _____ _____    ______ ____
ROOT
ATOM      1  N   UNL     1      -2.438  12.400  22.295  0.00  0.00    +0.000 N 
ATOM      2  C   UNL     1      -2.806  12.803  21.004  0.00  0.00    +0.000 A 
ATOM      3  N   UNL     1      -2.255  12.352  19.913  0.00  0.00    +0.000 NA
ATOM      4  C   UNL     1      -1.234  11.386  20.040  0.00  0.00    +0.000 A 
ATOM      5  N   UNL     1      -0.684  10.904  18.895  0.00  0.00    +0.000 NA
ATOM      6  C   UNL     1       0.301   9.947  18.995  0.00  0.00    +0.000 A 
ATOM      7  C   UNL     1       0.718   9.405  20.216  0.00  0.00    +0.000 A 
ATOM      8  C   UNL     1       0.165   9.937  21.370  0.00  0.00    +0.000 A 
ATOM      9  C   UNL     1      -0.803  10.938  21.267  0.00  0.00    +0.000 A 
ATOM     10  C   UNL     1      -1.339  11.565  22.455  0.00  0.00    +0.000 A 
ATOM     11  O   UNL     1      -0.758  11.344  23.517  0.00  0.00    +0.000 OA
ATOM     12  C   UNL     1       1.777   8.343  20.339  0.00  0.00    +0.000 C 
ATOM     13  C   UNL     1       2.060   7.629  19.023  0.00  0.00    +0.000 C 
ATOM     14  C   UNL     1       2.221   8.655  17.909  0.00  0.00    +0.000 C 
ATOM     15  C   UNL     1       0.916   9.442  17.707  0.00  0.00    +0.000 C 
ENDROOT
BRANCH   1  17
ATOM     16  C   UNL     1      -4.115  12.292  24.224  0.00  0.00    +0.000 C 
ATOM     17  C   UNL     1      -2.961  13.017  23.532  0.00  0.00    +0.000 C 
ENDBRANCH   1  17
BRANCH   2  18
ATOM     18  S   UNL     1      -4.096  14.005  20.944  0.00  0.00    +0.000 S 
BRANCH  18  19
ATOM     19  C   UNL     1      -5.231  13.522  19.634  0.00  0.00    +0.000 C 
BRANCH  19  20
ATOM     20  C   UNL     1      -6.134  12.375  20.088  0.00  0.00    +0.000 A 
ATOM     21  C   UNL     1      -7.008  12.513  21.190  0.00  0.00    +0.000 A 
ATOM     22 CL   UNL     1      -7.036  13.945  22.161  0.00  0.00    +0.000 Cl
ATOM     23  C   UNL     1      -7.891  11.487  21.567  0.00  0.00    +0.000 A 
ATOM     24  C   UNL     1      -7.916  10.288  20.864  0.00  0.00    +0.000 A 
ATOM     25  C   UNL     1      -7.026  10.099  19.814  0.00  0.00    +0.000 A 
ATOM     26  C   UNL     1      -6.133  11.120  19.442  0.00  0.00    +0.000 A 
ATOM     27 CL   UNL     1      -5.016  10.740  18.176  0.00  0.00    +0.000 Cl
ENDBRANCH  19  20
ENDBRANCH  18  19
ENDBRANCH   2  18
TORSDOF 4
ENDMDL
MODEL 8
REMARK VINA RESULT:      -7.0      5.049      7.567
REMARK  Name = 
REMARK  5 active torsions:
REMARK  status: ('A' for Active; 'I' for Inactive)
REMARK    1  A    between atoms: C_1  and  C_2
REMARK    2  A    between atoms: C_2  and  N_3
REMARK    3  A    between atoms: C_4  and  S_5
REMARK    4  A    between atoms: S_5  and  C_6
REMARK    5  A    between atoms: C_6  and  C_7
REMARK                            x       y       z     vdW  Elec       q    Type
REMARK                         _______ _______ _______ _____ _____    ______ ____
ROOT
ATOM      1  N   UNL     1      -1.287  11.921  22.084  0.00  0.00    +0.000 N 
ATOM      2  C   UNL     1      -1.307  12.519  20.817  0.00  0.00    +0.000 A 
ATOM      3  N   UNL     1      -0.690  12.043  19.774  0.00  0.00    +0.000 NA
ATOM      4  C   UNL     1       0.032  10.840  19.927  0.00  0.00    +0.000 A 
ATOM      5  N   UNL     1       0.652  10.338  18.827  0.00  0.00    +0.000 NA
ATOM      6  C   UNL     1       1.347   9.157  18.950  0.00  0.00    +0.000 A 
ATOM      7  C   UNL     1       1.396   8.419  20.138  0.00  0.00    +0.000 A 
ATOM      8  C   UNL     1       0.784   8.969  21.253  0.00  0.00    +0.000 A 
ATOM      9  C   UNL     1       0.115  10.189  21.136  0.00  0.00    +0.000 A 
ATOM     10  C   UNL     1      -0.464  10.823  22.299  0.00  0.00    +0.000 A 
ATOM     11  O   UNL     1      -0.155  10.366  23.400  0.00  0.00    +0.000 OA
ATOM     12  C   UNL     1       2.133   7.115  20.280  0.00  0.00    +0.000 C 
ATOM     13  C   UNL     1       2.473   6.473  18.941  0.00  0.00    +0.000 C 
ATOM     14  C   UNL     1       3.072   7.520  18.011  0.00  0.00    +0.000 C 
ATOM     15  C   UNL     1       2.050   8.629  17.716  0.00  0.00    +0.000 C 
ENDROOT
BRANCH   1  17
ATOM     16  C   UNL     1      -3.287  12.118  23.666  0.00  0.00    +0.000 C 
ATOM     17  C   UNL     1      -1.865  12.538  23.297  0.00  0.00    +0.000 C 
ENDBRANCH   1  17
BRANCH   2  18
ATOM     18  S   UNL     1      -2.244  14.011  20.719  0.00  0.00    +0.000 S 
BRANCH  18  19
ATOM     19  C   UNL     1      -1.122  15.381  21.043  0.00  0.00    +0.000 C 
BRANCH  19  20
ATOM     20  C   UNL     1      -1.111  16.368  19.876  0.00  0.00    +0.000 A 
ATOM     21  C   UNL     1      -2.078  17.391  19.763  0.00  0.00    +0.000 A 
ATOM     22 CL   UNL     1      -3.397  17.531  20.874  0.00  0.00    +0.000 Cl
ATOM     23  C   UNL     1      -2.030  18.343  18.730  0.00  0.00    +0.000 A 
ATOM     24  C   UNL     1      -1.024  18.291  17.772  0.00  0.00    +0.000 A 
ATOM     25  C   UNL     1      -0.094  17.259  17.821  0.00  0.00    +0.000 A 
ATOM     26  C   UNL     1      -0.147  16.299  18.846  0.00  0.00    +0.000 A 
ATOM     27 CL   UNL     1       1.011  15.015  18.758  0.00  0.00    +0.000 Cl
ENDBRANCH  19  20
ENDBRANCH  18  19
ENDBRANCH   2  18
TORSDOF 4
ENDMDL
MODEL 9
REMARK VINA RESULT:      -7.0      3.032      7.123
REMARK  Name = 
REMARK  5 active torsions:
REMARK  status: ('A' for Active; 'I' for Inactive)
REMARK    1  A    between atoms: C_1  and  C_2
REMARK    2  A    between atoms: C_2  and  N_3
REMARK    3  A    between atoms: C_4  and  S_5
REMARK    4  A    between atoms: S_5  and  C_6
REMARK    5  A    between atoms: C_6  and  C_7
REMARK                            x       y       z     vdW  Elec       q    Type
REMARK                         _______ _______ _______ _____ _____    ______ ____
ROOT
ATOM      1  N   UNL     1       3.342   4.414  19.502  0.00  0.00    +0.000 N 
ATOM      2  C   UNL     1       3.731   5.028  18.304  0.00  0.00    +0.000 A 
ATOM      3  N   UNL     1       3.386   6.235  17.956  0.00  0.00    +0.000 NA
ATOM      4  C   UNL     1       2.583   6.975  18.849  0.00  0.00    +0.000 A 
ATOM      5  N   UNL     1       2.250   8.242  18.488  0.00  0.00    +0.000 NA
ATOM      6  C   UNL     1       1.482   8.988  19.353  0.00  0.00    +0.000 A 
ATOM      7  C   UNL     1       1.080   8.525  20.611  0.00  0.00    +0.000 A 
ATOM      8  C   UNL     1       1.404   7.219  20.941  0.00  0.00    +0.000 A 
ATOM      9  C   UNL     1       2.147   6.449  20.043  0.00  0.00    +0.000 A 
ATOM     10  C   UNL     1       2.432   5.061  20.328  0.00  0.00    +0.000 A 
ATOM     11  O   UNL     1       1.818   4.541  21.260  0.00  0.00    +0.000 OA
ATOM     12  C   UNL     1       0.260   9.338  21.575  0.00  0.00    +0.000 C 
ATOM     13  C   UNL     1       0.251  10.825  21.244  0.00  0.00    +0.000 C 
ATOM     14  C   UNL     1      -0.021  11.016  19.758  0.00  0.00    +0.000 C 
ATOM     15  C   UNL     1       1.103  10.389  18.918  0.00  0.00    +0.000 C 
ENDROOT
BRANCH   1  17
ATOM     16  C   UNL     1       2.647   1.966  19.244  0.00  0.00    +0.000 C 
ATOM     17  C   UNL     1       3.612   2.997  19.828  0.00  0.00    +0.000 C 
ENDBRANCH   1  17
BRANCH   2  18
ATOM     18  S   UNL     1       4.742   4.031  17.256  0.00  0.00    +0.000 S 
BRANCH  18  19
ATOM     19  C   UNL     1       6.427   4.116  17.883  0.00  0.00    +0.000 C 
BRANCH  19  20
ATOM     20  C   UNL     1       6.978   5.538  17.779  0.00  0.00    +0.000 A 
ATOM     21  C   UNL     1       6.728   6.348  16.648  0.00  0.00    +0.000 A 
ATOM     22 CL   UNL     1       5.876   5.751  15.265  0.00  0.00    +0.000 Cl
ATOM     23  C   UNL     1       7.173   7.679  16.579  0.00  0.00    +0.000 A 
ATOM     24  C   UNL     1       7.893   8.235  17.630  0.00  0.00    +0.000 A 
ATOM     25  C   UNL     1       8.208   7.445  18.729  0.00  0.00    +0.000 A 
ATOM     26  C   UNL     1       7.774   6.109  18.796  0.00  0.00    +0.000 A 
ATOM     27 CL   UNL     1       8.296   5.199  20.172  0.00  0.00    +0.000 Cl
ENDBRANCH  19  20
ENDBRANCH  18  19
ENDBRANCH   2  18
TORSDOF 4
ENDMDL
