MODEL 1
REMARK VINA RESULT:      -8.1      0.000      0.000
REMARK  Name = 
REMARK  7 active torsions:
REMARK  status: ('A' for Active; 'I' for Inactive)
REMARK    1  A    between atoms: C_1  and  C_2
REMARK    2  A    between atoms: C_7  and  C_8
REMARK    3  A    between atoms: C_8  and  C_9
REMARK    4  A    between atoms: C_9  and  C_10
REMARK    5  A    between atoms: C_10  and  N_11
REMARK    6  A    between atoms: N_14  and  C_15
REMARK    7  A    between atoms: N_17  and  C_18
REMARK                            x       y       z     vdW  Elec       q    Type
REMARK                         _______ _______ _______ _____ _____    ______ ____
ROOT
ATOM      1  N   UNL     1       7.236   7.790  17.167  0.00  0.00    +0.000 N 
ATOM      2  C   UNL     1       6.445   6.709  17.378  0.00  0.00    +0.000 C 
ATOM      3  N   UNL     1       6.037   6.218  16.176  0.00  0.00    +0.000 N 
ATOM      4  N   UNL     1       6.207   6.206  18.555  0.00  0.00    +0.000 NA
ATOM      5  H   UNL     1       7.163   8.265  16.279  0.00  0.00    +0.000 HD
ATOM      6  H   UNL     1       5.744   6.909  15.493  0.00  0.00    +0.000 HD
ATOM      7  H   UNL     1       5.305   5.509  16.279  0.00  0.00    +0.000 HD
ENDROOT
BRANCH   4   8
ATOM      8  C   UNL     1       5.309   5.168  18.612  0.00  0.00    +0.000 C 
ATOM      9  O   UNL     1       5.590   4.015  18.292  0.00  0.00    +0.000 OA
ATOM     10  N   UNL     1       4.053   5.574  19.008  0.00  0.00    +0.000 N 
ATOM     11  H   UNL     1       3.926   6.578  19.039  0.00  0.00    +0.000 HD
BRANCH  10  12
ATOM     12  C   UNL     1       2.958   4.715  19.240  0.00  0.00    +0.000 A 
ATOM     13  C   UNL     1       2.316   4.035  18.200  0.00  0.00    +0.000 A 
ATOM     14  C   UNL     1       1.213   3.207  18.443  0.00  0.00    +0.000 A 
ATOM     15  C   UNL     1       0.757   3.035  19.740  0.00  0.00    +0.000 A 
ATOM     16  C   UNL     1       1.402   3.685  20.793  0.00  0.00    +0.000 A 
ATOM     17  C   UNL     1       2.507   4.516  20.548  0.00  0.00    +0.000 A 
ENDBRANCH  10  12
ENDBRANCH   4   8
BRANCH   1  18
ATOM     18  C   UNL     1       8.259   8.264  18.064  0.00  0.00    +0.000 C 
BRANCH  18  19
ATOM     19  C   UNL     1       8.478   9.774  17.923  0.00  0.00    +0.000 C 
BRANCH  19  20
ATOM     20  C   UNL     1       9.332  10.367  19.050  0.00  0.00    +0.000 C 
BRANCH  20  27
ATOM     21  C   UNL     1      12.114  11.913  19.853  0.00  0.00    +0.000 C 
ATOM     22  C   UNL     1      10.956  12.432  19.076  0.00  0.00    +0.000 A 
ATOM     23  N   UNL     1      11.048  13.727  18.590  0.00  0.00    +0.000 NA
ATOM     24  C   UNL     1       9.984  14.035  17.897  0.00  0.00    +0.000 A 
ATOM     25  N   UNL     1       9.833  15.224  17.290  0.00  0.00    +0.000 N 
ATOM     26  S   UNL     1       8.779  12.820  17.825  0.00  0.00    +0.000 S 
ATOM     27  C   UNL     1       9.780  11.771  18.751  0.00  0.00    +0.000 A 
ATOM     28  H   UNL     1      10.464  15.953  17.604  0.00  0.00    +0.000 HD
ATOM     29  H   UNL     1       8.895  15.535  17.075  0.00  0.00    +0.000 HD
ENDBRANCH  20  27
ENDBRANCH  19  20
ENDBRANCH  18  19
ENDBRANCH   1  18
TORSDOF 6
ENDMDL
MODEL 2
REMARK VINA RESULT:      -8.0      0.359      1.065
REMARK  Name = 
REMARK  7 active torsions:
REMARK  status: ('A' for Active; 'I' for Inactive)
REMARK    1  A    between atoms: C_1  and  C_2
REMARK    2  A    between atoms: C_7  and  C_8
REMARK    3  A    between atoms: C_8  and  C_9
REMARK    4  A    between atoms: C_9  and  C_10
REMARK    5  A    between atoms: C_10  and  N_11
REMARK    6  A    between atoms: N_14  and  C_15
REMARK    7  A    between atoms: N_17  and  C_18
REMARK                            x       y       z     vdW  Elec       q    Type
REMARK                         _______ _______ _______ _____ _____    ______ ____
ROOT
ATOM      1  N   UNL     1       7.088   7.569  17.202  0.00  0.00    +0.000 N 
ATOM      2  C   UNL     1       6.313   6.503  17.520  0.00  0.00    +0.000 C 
ATOM      3  N   UNL     1       5.780   5.986  16.378  0.00  0.00    +0.000 N 
ATOM      4  N   UNL     1       6.192   6.032  18.728  0.00  0.00    +0.000 NA
ATOM      5  H   UNL     1       6.929   8.022  16.313  0.00  0.00    +0.000 HD
ATOM      6  H   UNL     1       5.425   6.663  15.711  0.00  0.00    +0.000 HD
ATOM      7  H   UNL     1       5.057   5.288  16.574  0.00  0.00    +0.000 HD
ENDROOT
BRANCH   4   8
ATOM      8  C   UNL     1       5.296   5.005  18.903  0.00  0.00    +0.000 C 
ATOM      9  O   UNL     1       5.611   3.819  18.852  0.00  0.00    +0.000 OA
ATOM     10  N   UNL     1       4.005   5.453  19.081  0.00  0.00    +0.000 N 
ATOM     11  H   UNL     1       3.872   6.440  18.895  0.00  0.00    +0.000 HD
BRANCH  10  12
ATOM     12  C   UNL     1       2.893   4.633  19.371  0.00  0.00    +0.000 A 
ATOM     13  C   UNL     1       2.449   4.425  20.681  0.00  0.00    +0.000 A 
ATOM     14  C   UNL     1       1.360   3.587  20.955  0.00  0.00    +0.000 A 
ATOM     15  C   UNL     1       0.692   2.967  19.911  0.00  0.00    +0.000 A 
ATOM     16  C   UNL     1       1.105   3.185  18.596  0.00  0.00    +0.000 A 
ATOM     17  C   UNL     1       2.197   4.025  18.323  0.00  0.00    +0.000 A 
ENDBRANCH  10  12
ENDBRANCH   4   8
BRANCH   1  18
ATOM     18  C   UNL     1       8.200   8.053  17.977  0.00  0.00    +0.000 C 
BRANCH  18  19
ATOM     19  C   UNL     1       8.244   9.586  18.006  0.00  0.00    +0.000 C 
BRANCH  19  20
ATOM     20  C   UNL     1       9.303  10.140  18.966  0.00  0.00    +0.000 C 
BRANCH  20  27
ATOM     21  C   UNL     1      11.652  12.077  20.193  0.00  0.00    +0.000 C 
ATOM     22  C   UNL     1      10.553  12.433  19.255  0.00  0.00    +0.000 A 
ATOM     23  N   UNL     1      10.507  13.742  18.800  0.00  0.00    +0.000 NA
ATOM     24  C   UNL     1       9.521  13.901  17.956  0.00  0.00    +0.000 A 
ATOM     25  N   UNL     1       9.273  15.071  17.344  0.00  0.00    +0.000 N 
ATOM     26  S   UNL     1       8.551  12.515  17.693  0.00  0.00    +0.000 S 
ATOM     27  C   UNL     1       9.559  11.606  18.750  0.00  0.00    +0.000 A 
ATOM     28  H   UNL     1       9.726  15.879  17.756  0.00  0.00    +0.000 HD
ATOM     29  H   UNL     1       8.339  15.237  16.993  0.00  0.00    +0.000 HD
ENDBRANCH  20  27
ENDBRANCH  19  20
ENDBRANCH  18  19
ENDBRANCH   1  18
TORSDOF 6
ENDMDL
MODEL 3
REMARK VINA RESULT:      -7.8      1.079      1.257
REMARK  Name = 
REMARK  7 active torsions:
REMARK  status: ('A' for Active; 'I' for Inactive)
REMARK    1  A    between atoms: C_1  and  C_2
REMARK    2  A    between atoms: C_7  and  C_8
REMARK    3  A    between atoms: C_8  and  C_9
REMARK    4  A    between atoms: C_9  and  C_10
REMARK    5  A    between atoms: C_10  and  N_11
REMARK    6  A    between atoms: N_14  and  C_15
REMARK    7  A    between atoms: N_17  and  C_18
REMARK                            x       y       z     vdW  Elec       q    Type
REMARK                         _______ _______ _______ _____ _____    ______ ____
ROOT
ATOM      1  N   UNL     1       7.945   7.725  17.181  0.00  0.00    +0.000 N 
ATOM      2  C   UNL     1       6.969   6.794  17.042  0.00  0.00    +0.000 C 
ATOM      3  N   UNL     1       7.327   5.921  16.060  0.00  0.00    +0.000 N 
ATOM      4  N   UNL     1       5.913   6.734  17.802  0.00  0.00    +0.000 NA
ATOM      5  H   UNL     1       8.583   7.862  16.410  0.00  0.00    +0.000 HD
ATOM      6  H   UNL     1       7.726   6.335  15.224  0.00  0.00    +0.000 HD
ATOM      7  H   UNL     1       6.555   5.301  15.798  0.00  0.00    +0.000 HD
ENDROOT
BRANCH   4   8
ATOM      8  C   UNL     1       4.970   5.791  17.473  0.00  0.00    +0.000 C 
ATOM      9  O   UNL     1       4.659   5.523  16.315  0.00  0.00    +0.000 OA
ATOM     10  N   UNL     1       4.375   5.227  18.580  0.00  0.00    +0.000 N 
ATOM     11  H   UNL     1       4.587   5.692  19.454  0.00  0.00    +0.000 HD
BRANCH  10  12
ATOM     12  C   UNL     1       3.438   4.172  18.551  0.00  0.00    +0.000 A 
ATOM     13  C   UNL     1       3.834   2.830  18.572  0.00  0.00    +0.000 A 
ATOM     14  C   UNL     1       2.894   1.793  18.515  0.00  0.00    +0.000 A 
ATOM     15  C   UNL     1       1.542   2.095  18.460  0.00  0.00    +0.000 A 
ATOM     16  C   UNL     1       1.129   3.428  18.465  0.00  0.00    +0.000 A 
ATOM     17  C   UNL     1       2.073   4.467  18.521  0.00  0.00    +0.000 A 
ENDBRANCH  10  12
ENDBRANCH   4   8
BRANCH   1  18
ATOM     18  C   UNL     1       8.224   8.468  18.383  0.00  0.00    +0.000 C 
BRANCH  18  19
ATOM     19  C   UNL     1       8.600   9.922  18.073  0.00  0.00    +0.000 C 
BRANCH  19  20
ATOM     20  C   UNL     1       9.508  10.549  19.137  0.00  0.00    +0.000 C 
BRANCH  20  27
ATOM     21  C   UNL     1      12.330  12.094  19.791  0.00  0.00    +0.000 C 
ATOM     22  C   UNL     1      11.158  12.590  19.019  0.00  0.00    +0.000 A 
ATOM     23  N   UNL     1      11.253  13.858  18.467  0.00  0.00    +0.000 NA
ATOM     24  C   UNL     1      10.176  14.146  17.787  0.00  0.00    +0.000 A 
ATOM     25  N   UNL     1      10.024  15.305  17.125  0.00  0.00    +0.000 N 
ATOM     26  S   UNL     1       8.955  12.946  17.807  0.00  0.00    +0.000 S 
ATOM     27  C   UNL     1       9.966  11.930  18.758  0.00  0.00    +0.000 A 
ATOM     28  H   UNL     1      10.672  16.040  17.387  0.00  0.00    +0.000 HD
ATOM     29  H   UNL     1       9.084  15.619  16.920  0.00  0.00    +0.000 HD
ENDBRANCH  20  27
ENDBRANCH  19  20
ENDBRANCH  18  19
ENDBRANCH   1  18
TORSDOF 6
ENDMDL
MODEL 4
REMARK VINA RESULT:      -7.7      1.435      1.567
REMARK  Name = 
REMARK  7 active torsions:
REMARK  status: ('A' for Active; 'I' for Inactive)
REMARK    1  A    between atoms: C_1  and  C_2
REMARK    2  A    between atoms: C_7  and  C_8
REMARK    3  A    between atoms: C_8  and  C_9
REMARK    4  A    between atoms: C_9  and  C_10
REMARK    5  A    between atoms: C_10  and  N_11
REMARK    6  A    between atoms: N_14  and  C_15
REMARK    7  A    between atoms: N_17  and  C_18
REMARK                            x       y       z     vdW  Elec       q    Type
REMARK                         _______ _______ _______ _____ _____    ______ ____
ROOT
ATOM      1  N   UNL     1       8.105   7.915  17.380  0.00  0.00    +0.000 N 
ATOM      2  C   UNL     1       7.140   6.976  17.223  0.00  0.00    +0.000 C 
ATOM      3  N   UNL     1       7.728   5.756  17.087  0.00  0.00    +0.000 N 
ATOM      4  N   UNL     1       5.865   7.233  17.280  0.00  0.00    +0.000 NA
ATOM      5  H   UNL     1       9.040   7.691  17.069  0.00  0.00    +0.000 HD
ATOM      6  H   UNL     1       8.542   5.722  16.482  0.00  0.00    +0.000 HD
ATOM      7  H   UNL     1       7.058   5.037  16.798  0.00  0.00    +0.000 HD
ENDROOT
BRANCH   4   8
ATOM      8  C   UNL     1       5.013   6.191  17.007  0.00  0.00    +0.000 C 
ATOM      9  O   UNL     1       4.832   5.746  15.876  0.00  0.00    +0.000 OA
ATOM     10  N   UNL     1       4.346   5.743  18.126  0.00  0.00    +0.000 N 
ATOM     11  H   UNL     1       4.445   6.336  18.941  0.00  0.00    +0.000 HD
BRANCH  10  12
ATOM     12  C   UNL     1       3.478   4.631  18.165  0.00  0.00    +0.000 A 
ATOM     13  C   UNL     1       2.090   4.771  18.063  0.00  0.00    +0.000 A 
ATOM     14  C   UNL     1       1.240   3.660  18.130  0.00  0.00    +0.000 A 
ATOM     15  C   UNL     1       1.779   2.391  18.276  0.00  0.00    +0.000 A 
ATOM     16  C   UNL     1       3.163   2.231  18.352  0.00  0.00    +0.000 A 
ATOM     17  C   UNL     1       4.014   3.346  18.286  0.00  0.00    +0.000 A 
ENDBRANCH  10  12
ENDBRANCH   4   8
BRANCH   1  18
ATOM     18  C   UNL     1       7.940   9.177  18.054  0.00  0.00    +0.000 C 
BRANCH  18  19
ATOM     19  C   UNL     1       9.221   9.600  18.782  0.00  0.00    +0.000 C 
BRANCH  19  20
ATOM     20  C   UNL     1       9.114  10.983  19.436  0.00  0.00    +0.000 C 
BRANCH  20  27
ATOM     21  C   UNL     1      12.290  11.710  19.835  0.00  0.00    +0.000 C 
ATOM     22  C   UNL     1      11.310  12.321  18.898  0.00  0.00    +0.000 A 
ATOM     23  N   UNL     1      11.778  13.312  18.047  0.00  0.00    +0.000 NA
ATOM     24  C   UNL     1      10.825  13.727  17.255  0.00  0.00    +0.000 A 
ATOM     25  N   UNL     1      11.022  14.664  16.314  0.00  0.00    +0.000 N 
ATOM     26  S   UNL     1       9.294  13.003  17.510  0.00  0.00    +0.000 S 
ATOM     27  C   UNL     1       9.965  12.011  18.744  0.00  0.00    +0.000 A 
ATOM     28  H   UNL     1      11.871  15.208  16.416  0.00  0.00    +0.000 HD
ATOM     29  H   UNL     1      10.220  15.184  15.982  0.00  0.00    +0.000 HD
ENDBRANCH  20  27
ENDBRANCH  19  20
ENDBRANCH  18  19
ENDBRANCH   1  18
TORSDOF 6
ENDMDL
MODEL 5
REMARK VINA RESULT:      -7.6      1.559      1.765
REMARK  Name = 
REMARK  7 active torsions:
REMARK  status: ('A' for Active; 'I' for Inactive)
REMARK    1  A    between atoms: C_1  and  C_2
REMARK    2  A    between atoms: C_7  and  C_8
REMARK    3  A    between atoms: C_8  and  C_9
REMARK    4  A    between atoms: C_9  and  C_10
REMARK    5  A    between atoms: C_10  and  N_11
REMARK    6  A    between atoms: N_14  and  C_15
REMARK    7  A    between atoms: N_17  and  C_18
REMARK                            x       y       z     vdW  Elec       q    Type
REMARK                         _______ _______ _______ _____ _____    ______ ____
ROOT
ATOM      1  N   UNL     1       8.003   8.300  17.448  0.00  0.00    +0.000 N 
ATOM      2  C   UNL     1       7.476   7.053  17.529  0.00  0.00    +0.000 C 
ATOM      3  N   UNL     1       7.503   6.480  16.294  0.00  0.00    +0.000 N 
ATOM      4  N   UNL     1       7.093   6.501  18.644  0.00  0.00    +0.000 NA
ATOM      5  H   UNL     1       8.031   8.745  16.541  0.00  0.00    +0.000 HD
ATOM      6  H   UNL     1       7.222   7.077  15.523  0.00  0.00    +0.000 HD
ATOM      7  H   UNL     1       6.966   5.608  16.263  0.00  0.00    +0.000 HD
ENDROOT
BRANCH   4   8
ATOM      8  C   UNL     1       6.492   5.269  18.548  0.00  0.00    +0.000 C 
ATOM      9  O   UNL     1       7.121   4.217  18.467  0.00  0.00    +0.000 OA
ATOM     10  N   UNL     1       5.118   5.352  18.492  0.00  0.00    +0.000 N 
ATOM     11  H   UNL     1       4.758   6.289  18.363  0.00  0.00    +0.000 HD
BRANCH  10  12
ATOM     12  C   UNL     1       4.237   4.249  18.481  0.00  0.00    +0.000 A 
ATOM     13  C   UNL     1       3.508   3.895  17.340  0.00  0.00    +0.000 A 
ATOM     14  C   UNL     1       2.618   2.814  17.352  0.00  0.00    +0.000 A 
ATOM     15  C   UNL     1       2.468   2.061  18.506  0.00  0.00    +0.000 A 
ATOM     16  C   UNL     1       3.208   2.384  19.645  0.00  0.00    +0.000 A 
ATOM     17  C   UNL     1       4.100   3.469  19.632  0.00  0.00    +0.000 A 
ENDBRANCH  10  12
ENDBRANCH   4   8
BRANCH   1  18
ATOM     18  C   UNL     1       8.629   9.013  18.530  0.00  0.00    +0.000 C 
BRANCH  18  19
ATOM     19  C   UNL     1       8.690  10.520  18.254  0.00  0.00    +0.000 C 
BRANCH  19  20
ATOM     20  C   UNL     1       9.981  11.174  18.759  0.00  0.00    +0.000 C 
BRANCH  20  27
ATOM     21  C   UNL     1       8.672  13.913  20.007  0.00  0.00    +0.000 C 
ATOM     22  C   UNL     1       9.574  13.768  18.832  0.00  0.00    +0.000 A 
ATOM     23  N   UNL     1       9.952  14.929  18.175  0.00  0.00    +0.000 NA
ATOM     24  C   UNL     1      10.772  14.658  17.195  0.00  0.00    +0.000 A 
ATOM     25  N   UNL     1      11.312  15.610  16.417  0.00  0.00    +0.000 N 
ATOM     26  S   UNL     1      11.104  12.994  16.958  0.00  0.00    +0.000 S 
ATOM     27  C   UNL     1      10.114  12.602  18.308  0.00  0.00    +0.000 A 
ATOM     28  H   UNL     1      10.859  16.515  16.465  0.00  0.00    +0.000 HD
ATOM     29  H   UNL     1      11.642  15.345  15.497  0.00  0.00    +0.000 HD
ENDBRANCH  20  27
ENDBRANCH  19  20
ENDBRANCH  18  19
ENDBRANCH   1  18
TORSDOF 6
ENDMDL
MODEL 6
REMARK VINA RESULT:      -7.6      0.798      1.248
REMARK  Name = 
REMARK  7 active torsions:
REMARK  status: ('A' for Active; 'I' for Inactive)
REMARK    1  A    between atoms: C_1  and  C_2
REMARK    2  A    between atoms: C_7  and  C_8
REMARK    3  A    between atoms: C_8  and  C_9
REMARK    4  A    between atoms: C_9  and  C_10
REMARK    5  A    between atoms: C_10  and  N_11
REMARK    6  A    between atoms: N_14  and  C_15
REMARK    7  A    between atoms: N_17  and  C_18
REMARK                            x       y       z     vdW  Elec       q    Type
REMARK                         _______ _______ _______ _____ _____    ______ ____
ROOT
ATOM      1  N   UNL     1       7.589   7.717  17.075  0.00  0.00    +0.000 N 
ATOM      2  C   UNL     1       6.923   6.602  17.461  0.00  0.00    +0.000 C 
ATOM      3  N   UNL     1       7.523   5.513  16.907  0.00  0.00    +0.000 N 
ATOM      4  N   UNL     1       5.924   6.610  18.296  0.00  0.00    +0.000 NA
ATOM      5  H   UNL     1       8.166   7.662  16.247  0.00  0.00    +0.000 HD
ATOM      6  H   UNL     1       7.793   5.605  15.933  0.00  0.00    +0.000 HD
ATOM      7  H   UNL     1       6.964   4.663  17.027  0.00  0.00    +0.000 HD
ENDROOT
BRANCH   4   8
ATOM      8  C   UNL     1       5.293   5.408  18.514  0.00  0.00    +0.000 C 
ATOM      9  O   UNL     1       5.873   4.408  18.929  0.00  0.00    +0.000 OA
ATOM     10  N   UNL     1       3.961   5.437  18.162  0.00  0.00    +0.000 N 
ATOM     11  H   UNL     1       3.680   6.262  17.648  0.00  0.00    +0.000 HD
BRANCH  10  12
ATOM     12  C   UNL     1       3.047   4.380  18.358  0.00  0.00    +0.000 A 
ATOM     13  C   UNL     1       2.021   4.455  19.306  0.00  0.00    +0.000 A 
ATOM     14  C   UNL     1       1.137   3.387  19.508  0.00  0.00    +0.000 A 
ATOM     15  C   UNL     1       1.261   2.240  18.741  0.00  0.00    +0.000 A 
ATOM     16  C   UNL     1       2.262   2.159  17.771  0.00  0.00    +0.000 A 
ATOM     17  C   UNL     1       3.148   3.230  17.571  0.00  0.00    +0.000 A 
ENDBRANCH  10  12
ENDBRANCH   4   8
BRANCH   1  18
ATOM     18  C   UNL     1       7.635   8.958  17.805  0.00  0.00    +0.000 C 
BRANCH  18  19
ATOM     19  C   UNL     1       9.077   9.419  18.046  0.00  0.00    +0.000 C 
BRANCH  19  20
ATOM     20  C   UNL     1       9.206  10.409  19.209  0.00  0.00    +0.000 C 
BRANCH  20  27
ATOM     21  C   UNL     1      12.196  11.703  19.616  0.00  0.00    +0.000 C 
ATOM     22  C   UNL     1      11.016  12.293  18.928  0.00  0.00    +0.000 A 
ATOM     23  N   UNL     1      11.179  13.542  18.348  0.00  0.00    +0.000 NA
ATOM     24  C   UNL     1      10.081  13.917  17.747  0.00  0.00    +0.000 A 
ATOM     25  N   UNL     1       9.981  15.078  17.079  0.00  0.00    +0.000 N 
ATOM     26  S   UNL     1       8.764  12.831  17.883  0.00  0.00    +0.000 S 
ATOM     27  C   UNL     1       9.753  11.739  18.771  0.00  0.00    +0.000 A 
ATOM     28  H   UNL     1      10.710  15.755  17.277  0.00  0.00    +0.000 HD
ATOM     29  H   UNL     1       9.060  15.472  16.941  0.00  0.00    +0.000 HD
ENDBRANCH  20  27
ENDBRANCH  19  20
ENDBRANCH  18  19
ENDBRANCH   1  18
TORSDOF 6
ENDMDL
MODEL 7
REMARK VINA RESULT:      -7.5      1.030      1.257
REMARK  Name = 
REMARK  7 active torsions:
REMARK  status: ('A' for Active; 'I' for Inactive)
REMARK    1  A    between atoms: C_1  and  C_2
REMARK    2  A    between atoms: C_7  and  C_8
REMARK    3  A    between atoms: C_8  and  C_9
REMARK    4  A    between atoms: C_9  and  C_10
REMARK    5  A    between atoms: C_10  and  N_11
REMARK    6  A    between atoms: N_14  and  C_15
REMARK    7  A    between atoms: N_17  and  C_18
REMARK                            x       y       z     vdW  Elec       q    Type
REMARK                         _______ _______ _______ _____ _____    ______ ____
ROOT
ATOM      1  N   UNL     1       8.238   7.264  18.375  0.00  0.00    +0.000 N 
ATOM      2  C   UNL     1       7.243   6.359  18.548  0.00  0.00    +0.000 C 
ATOM      3  N   UNL     1       7.563   5.544  19.590  0.00  0.00    +0.000 N 
ATOM      4  N   UNL     1       6.139   6.358  17.858  0.00  0.00    +0.000 NA
ATOM      5  H   UNL     1       9.149   7.047  18.756  0.00  0.00    +0.000 HD
ATOM      6  H   UNL     1       8.525   5.221  19.619  0.00  0.00    +0.000 HD
ATOM      7  H   UNL     1       6.931   4.740  19.658  0.00  0.00    +0.000 HD
ENDROOT
BRANCH   4   8
ATOM      8  C   UNL     1       5.270   5.319  18.088  0.00  0.00    +0.000 C 
ATOM      9  O   UNL     1       5.547   4.144  17.858  0.00  0.00    +0.000 OA
ATOM     10  N   UNL     1       4.042   5.745  18.546  0.00  0.00    +0.000 N 
ATOM     11  H   UNL     1       3.897   6.746  18.491  0.00  0.00    +0.000 HD
BRANCH  10  12
ATOM     12  C   UNL     1       2.987   4.899  18.950  0.00  0.00    +0.000 A 
ATOM     13  C   UNL     1       2.258   4.136  18.032  0.00  0.00    +0.000 A 
ATOM     14  C   UNL     1       1.196   3.321  18.444  0.00  0.00    +0.000 A 
ATOM     15  C   UNL     1       0.870   3.247  19.790  0.00  0.00    +0.000 A 
ATOM     16  C   UNL     1       1.605   3.981  20.722  0.00  0.00    +0.000 A 
ATOM     17  C   UNL     1       2.669   4.798  20.307  0.00  0.00    +0.000 A 
ENDBRANCH  10  12
ENDBRANCH   4   8
BRANCH   1  18
ATOM     18  C   UNL     1       8.086   8.568  17.784  0.00  0.00    +0.000 C 
BRANCH  18  19
ATOM     19  C   UNL     1       8.592   9.674  18.717  0.00  0.00    +0.000 C 
BRANCH  19  20
ATOM     20  C   UNL     1       9.677  10.550  18.081  0.00  0.00    +0.000 C 
BRANCH  20  27
ATOM     21  C   UNL     1      11.236  12.860  19.816  0.00  0.00    +0.000 C 
ATOM     22  C   UNL     1      10.040  13.005  18.944  0.00  0.00    +0.000 A 
ATOM     23  N   UNL     1       9.508  14.279  18.803  0.00  0.00    +0.000 NA
ATOM     24  C   UNL     1       8.492  14.265  17.982  0.00  0.00    +0.000 A 
ATOM     25  N   UNL     1       7.814  15.376  17.649  0.00  0.00    +0.000 N 
ATOM     26  S   UNL     1       8.069  12.724  17.366  0.00  0.00    +0.000 S 
ATOM     27  C   UNL     1       9.383  12.018  18.222  0.00  0.00    +0.000 A 
ATOM     28  H   UNL     1       7.968  16.174  18.255  0.00  0.00    +0.000 HD
ATOM     29  H   UNL     1       6.867  15.273  17.309  0.00  0.00    +0.000 HD
ENDBRANCH  20  27
ENDBRANCH  19  20
ENDBRANCH  18  19
ENDBRANCH   1  18
TORSDOF 6
ENDMDL
MODEL 8
REMARK VINA RESULT:      -7.4      1.106      1.832
REMARK  Name = 
REMARK  7 active torsions:
REMARK  status: ('A' for Active; 'I' for Inactive)
REMARK    1  A    between atoms: C_1  and  C_2
REMARK    2  A    between atoms: C_7  and  C_8
REMARK    3  A    between atoms: C_8  and  C_9
REMARK    4  A    between atoms: C_9  and  C_10
REMARK    5  A    between atoms: C_10  and  N_11
REMARK    6  A    between atoms: N_14  and  C_15
REMARK    7  A    between atoms: N_17  and  C_18
REMARK                            x       y       z     vdW  Elec       q    Type
REMARK                         _______ _______ _______ _____ _____    ______ ____
ROOT
ATOM      1  N   UNL     1       7.200   7.457  17.217  0.00  0.00    +0.000 N 
ATOM      2  C   UNL     1       6.429   6.391  17.544  0.00  0.00    +0.000 C 
ATOM      3  N   UNL     1       6.143   5.688  16.414  0.00  0.00    +0.000 N 
ATOM      4  N   UNL     1       6.107   6.080  18.767  0.00  0.00    +0.000 NA
ATOM      5  H   UNL     1       7.188   7.774  16.257  0.00  0.00    +0.000 HD
ATOM      6  H   UNL     1       5.887   6.241  15.602  0.00  0.00    +0.000 HD
ATOM      7  H   UNL     1       5.428   4.972  16.577  0.00  0.00    +0.000 HD
ENDROOT
BRANCH   4   8
ATOM      8  C   UNL     1       5.242   5.024  18.927  0.00  0.00    +0.000 C 
ATOM      9  O   UNL     1       5.605   3.851  18.943  0.00  0.00    +0.000 OA
ATOM     10  N   UNL     1       3.926   5.425  19.008  0.00  0.00    +0.000 N 
ATOM     11  H   UNL     1       3.767   6.397  18.775  0.00  0.00    +0.000 HD
BRANCH  10  12
ATOM     12  C   UNL     1       2.831   4.571  19.262  0.00  0.00    +0.000 A 
ATOM     13  C   UNL     1       2.300   4.410  20.546  0.00  0.00    +0.000 A 
ATOM     14  C   UNL     1       1.230   3.539  20.787  0.00  0.00    +0.000 A 
ATOM     15  C   UNL     1       0.667   2.836  19.733  0.00  0.00    +0.000 A 
ATOM     16  C   UNL     1       1.168   3.004  18.441  0.00  0.00    +0.000 A 
ATOM     17  C   UNL     1       2.241   3.878  18.201  0.00  0.00    +0.000 A 
ENDBRANCH  10  12
ENDBRANCH   4   8
BRANCH   1  18
ATOM     18  C   UNL     1       8.124   8.121  18.098  0.00  0.00    +0.000 C 
BRANCH  18  19
ATOM     19  C   UNL     1       8.538   9.493  17.554  0.00  0.00    +0.000 C 
BRANCH  19  20
ATOM     20  C   UNL     1       8.773  10.532  18.656  0.00  0.00    +0.000 C 
BRANCH  20  27
ATOM     21  C   UNL     1       7.624  13.515  17.910  0.00  0.00    +0.000 C 
ATOM     22  C   UNL     1       9.024  13.017  17.840  0.00  0.00    +0.000 A 
ATOM     23  N   UNL     1       9.998  13.918  17.438  0.00  0.00    +0.000 NA
ATOM     24  C   UNL     1      11.180  13.360  17.461  0.00  0.00    +0.000 A 
ATOM     25  N   UNL     1      12.302  14.026  17.144  0.00  0.00    +0.000 N 
ATOM     26  S   UNL     1      11.200  11.708  17.912  0.00  0.00    +0.000 S 
ATOM     27  C   UNL     1       9.497  11.749  18.150  0.00  0.00    +0.000 A 
ATOM     28  H   UNL     1      12.162  14.898  16.647  0.00  0.00    +0.000 HD
ATOM     29  H   UNL     1      13.108  13.490  16.848  0.00  0.00    +0.000 HD
ENDBRANCH  20  27
ENDBRANCH  19  20
ENDBRANCH  18  19
ENDBRANCH   1  18
TORSDOF 6
ENDMDL
MODEL 9
REMARK VINA RESULT:      -7.4      1.346      1.429
REMARK  Name = 
REMARK  7 active torsions:
REMARK  status: ('A' for Active; 'I' for Inactive)
REMARK    1  A    between atoms: C_1  and  C_2
REMARK    2  A    between atoms: C_7  and  C_8
REMARK    3  A    between atoms: C_8  and  C_9
REMARK    4  A    between atoms: C_9  and  C_10
REMARK    5  A    between atoms: C_10  and  N_11
REMARK    6  A    between atoms: N_14  and  C_15
REMARK    7  A    between atoms: N_17  and  C_18
REMARK                            x       y       z     vdW  Elec       q    Type
REMARK                         _______ _______ _______ _____ _____    ______ ____
ROOT
ATOM      1  N   UNL     1       7.234   7.551  16.899  0.00  0.00    +0.000 N 
ATOM      2  C   UNL     1       6.059   6.891  17.040  0.00  0.00    +0.000 C 
ATOM      3  N   UNL     1       5.788   6.220  15.886  0.00  0.00    +0.000 N 
ATOM      4  N   UNL     1       5.373   6.862  18.146  0.00  0.00    +0.000 NA
ATOM      5  H   UNL     1       7.565   7.739  15.963  0.00  0.00    +0.000 HD
ATOM      6  H   UNL     1       5.958   6.732  15.027  0.00  0.00    +0.000 HD
ATOM      7  H   UNL     1       4.836   5.843  15.876  0.00  0.00    +0.000 HD
ENDROOT
BRANCH   4   8
ATOM      8  C   UNL     1       4.156   6.227  18.100  0.00  0.00    +0.000 C 
ATOM      9  O   UNL     1       3.238   6.580  17.364  0.00  0.00    +0.000 OA
ATOM     10  N   UNL     1       4.062   5.195  19.009  0.00  0.00    +0.000 N 
ATOM     11  H   UNL     1       4.817   5.156  19.681  0.00  0.00    +0.000 HD
BRANCH  10  12
ATOM     12  C   UNL     1       2.966   4.313  19.125  0.00  0.00    +0.000 A 
ATOM     13  C   UNL     1       2.790   3.233  18.253  0.00  0.00    +0.000 A 
ATOM     14  C   UNL     1       1.683   2.382  18.364  0.00  0.00    +0.000 A 
ATOM     15  C   UNL     1       0.753   2.593  19.370  0.00  0.00    +0.000 A 
ATOM     16  C   UNL     1       0.928   3.649  20.265  0.00  0.00    +0.000 A 
ATOM     17  C   UNL     1       2.038   4.503  20.152  0.00  0.00    +0.000 A 
ENDBRANCH  10  12
ENDBRANCH   4   8
BRANCH   1  18
ATOM     18  C   UNL     1       8.117   7.922  17.974  0.00  0.00    +0.000 C 
BRANCH  18  19
ATOM     19  C   UNL     1       8.329   9.439  18.035  0.00  0.00    +0.000 C 
BRANCH  19  20
ATOM     20  C   UNL     1       9.230   9.876  19.195  0.00  0.00    +0.000 C 
BRANCH  20  27
ATOM     21  C   UNL     1       8.962  11.975  21.705  0.00  0.00    +0.000 C 
ATOM     22  C   UNL     1       9.328  12.262  20.292  0.00  0.00    +0.000 A 
ATOM     23  N   UNL     1       9.629  13.577  19.968  0.00  0.00    +0.000 NA
ATOM     24  C   UNL     1       9.970  13.675  18.711  0.00  0.00    +0.000 A 
ATOM     25  N   UNL     1      10.338  14.838  18.149  0.00  0.00    +0.000 N 
ATOM     26  S   UNL     1       9.901  12.216  17.817  0.00  0.00    +0.000 S 
ATOM     27  C   UNL     1       9.429  11.366  19.236  0.00  0.00    +0.000 A 
ATOM     28  H   UNL     1      10.097  15.669  18.677  0.00  0.00    +0.000 HD
ATOM     29  H   UNL     1      10.255  14.931  17.145  0.00  0.00    +0.000 HD
ENDBRANCH  20  27
ENDBRANCH  19  20
ENDBRANCH  18  19
ENDBRANCH   1  18
TORSDOF 6
ENDMDL
