MODEL 1
REMARK VINA RESULT:      -7.3      0.000      0.000
REMARK  Name = 
REMARK  11 active torsions:
REMARK  status: ('A' for Active; 'I' for Inactive)
REMARK    1  A    between atoms: C_1  and  O_2
REMARK    2  A    between atoms: O_2  and  C_3
REMARK    3  A    between atoms: C_3  and  C_4
REMARK    4  A    between atoms: C_9  and  C_10
REMARK    5  A    between atoms: C_11  and  C_12
REMARK    6  A    between atoms: C_12  and  C_14
REMARK    7  A    between atoms: C_14  and  C_15
REMARK    8  A    between atoms: C_14  and  C_16
REMARK    9  A    between atoms: N_21  and  C_22
REMARK   10  A    between atoms: C_25  and  C_26
REMARK   11  A    between atoms: C_29  and  C_30
REMARK                            x       y       z     vdW  Elec       q    Type
REMARK                         _______ _______ _______ _____ _____    ______ ____
ROOT
ATOM      1  C   UNL     1       4.696   4.940  18.310  0.00  0.00    +0.000 C 
ATOM      2  C   UNL     1       5.979   4.458  17.576  0.00  0.00    +0.000 C 
ATOM      3  C   UNL     1       6.647   5.795  17.419  0.00  0.00    +0.000 C 
ATOM      4  O   UNL     1       7.843   5.986  17.301  0.00  0.00    +0.000 OA
ATOM      5  C   UNL     1       5.590   6.901  17.406  0.00  0.00    +0.000 C 
ATOM      6  O   UNL     1       5.817   8.050  17.089  0.00  0.00    +0.000 OA
ATOM      7  N   UNL     1       4.417   6.293  17.813  0.00  0.00    +0.000 N 
ENDROOT
BRANCH   1  13
ATOM      8  C   UNL     1       3.271   3.061  19.369  0.00  0.00    +0.000 A 
ATOM      9  C   UNL     1       2.013   2.424  19.475  0.00  0.00    +0.000 A 
ATOM     10  C   UNL     1       0.960   2.756  18.629  0.00  0.00    +0.000 A 
ATOM     11  C   UNL     1       1.173   3.653  17.598  0.00  0.00    +0.000 A 
ATOM     12  C   UNL     1       2.432   4.226  17.429  0.00  0.00    +0.000 A 
ATOM     13  C   UNL     1       3.478   4.016  18.349  0.00  0.00    +0.000 A 
BRANCH   8  14
ATOM     14  C   UNL     1       4.293   2.750  20.442  0.00  0.00    +0.000 C 
BRANCH  14  16
ATOM     15  C   UNL     1       5.499   0.906  21.352  0.00  0.00    +0.000 C 
ATOM     16  O   UNL     1       5.019   1.551  20.174  0.00  0.00    +0.000 OA
ENDBRANCH  14  16
ENDBRANCH   8  14
ENDBRANCH   1  13
BRANCH   7  17
ATOM     17  C   UNL     1       3.289   7.037  18.235  0.00  0.00    +0.000 A 
ATOM     18  C   UNL     1       2.872   6.870  19.558  0.00  0.00    +0.000 A 
ATOM     19  C   UNL     1       1.973   7.767  20.142  0.00  0.00    +0.000 A 
ATOM     20  C   UNL     1       1.402   8.796  19.386  0.00  0.00    +0.000 A 
ATOM     21  C   UNL     1       1.736   8.889  18.025  0.00  0.00    +0.000 A 
ATOM     22  C   UNL     1       2.699   8.035  17.456  0.00  0.00    +0.000 A 
BRANCH  20  23
ATOM     23  C   UNL     1       0.481   9.761  19.990  0.00  0.00    +0.000 A 
ATOM     24  C   UNL     1      -0.136  10.779  19.283  0.00  0.00    +0.000 A 
ATOM     25  S   UNL     1      -1.113  11.718  20.335  0.00  0.00    +0.000 S 
ATOM     26  C   UNL     1      -0.661  10.698  21.640  0.00  0.00    +0.000 A 
ATOM     27  C   UNL     1      -1.161  10.965  23.015  0.00  0.00    +0.000 C 
ATOM     28  N   UNL     1       0.149   9.698  21.331  0.00  0.00    +0.000 NA
ENDBRANCH  20  23
ENDBRANCH   7  17
BRANCH   2  29
ATOM     29  C   UNL     1       5.851   3.816  16.200  0.00  0.00    +0.000 C 
ATOM     30  O   UNL     1       5.622   2.610  16.087  0.00  0.00    +0.000 OA
BRANCH  29  31
ATOM     31  C   UNL     1       5.917   4.728  14.951  0.00  0.00    +0.000 C 
ATOM     32  C   UNL     1       7.310   4.717  14.307  0.00  0.00    +0.000 C 
ATOM     33  C   UNL     1       4.900   4.336  13.880  0.00  0.00    +0.000 C 
ENDBRANCH  29  31
ENDBRANCH   2  29
TORSDOF 7
ENDMDL
MODEL 2
REMARK VINA RESULT:      -7.2      8.016     11.297
REMARK  Name = 
REMARK  11 active torsions:
REMARK  status: ('A' for Active; 'I' for Inactive)
REMARK    1  A    between atoms: C_1  and  O_2
REMARK    2  A    between atoms: O_2  and  C_3
REMARK    3  A    between atoms: C_3  and  C_4
REMARK    4  A    between atoms: C_9  and  C_10
REMARK    5  A    between atoms: C_11  and  C_12
REMARK    6  A    between atoms: C_12  and  C_14
REMARK    7  A    between atoms: C_14  and  C_15
REMARK    8  A    between atoms: C_14  and  C_16
REMARK    9  A    between atoms: N_21  and  C_22
REMARK   10  A    between atoms: C_25  and  C_26
REMARK   11  A    between atoms: C_29  and  C_30
REMARK                            x       y       z     vdW  Elec       q    Type
REMARK                         _______ _______ _______ _____ _____    ______ ____
ROOT
ATOM      1  C   UNL     1       9.170  14.184  19.249  0.00  0.00    +0.000 C 
ATOM      2  C   UNL     1      10.144  15.376  19.040  0.00  0.00    +0.000 C 
ATOM      3  C   UNL     1      10.731  14.942  17.726  0.00  0.00    +0.000 C 
ATOM      4  O   UNL     1      11.225  15.673  16.888  0.00  0.00    +0.000 OA
ATOM      5  C   UNL     1      10.638  13.420  17.599  0.00  0.00    +0.000 C 
ATOM      6  O   UNL     1      11.212  12.777  16.745  0.00  0.00    +0.000 OA
ATOM      7  N   UNL     1       9.803  13.016  18.624  0.00  0.00    +0.000 N 
ENDROOT
BRANCH   1  13
ATOM      8  C   UNL     1       7.318  14.337  21.046  0.00  0.00    +0.000 A 
ATOM      9  C   UNL     1       6.780  13.849  22.259  0.00  0.00    +0.000 A 
ATOM     10  C   UNL     1       7.474  12.933  23.043  0.00  0.00    +0.000 A 
ATOM     11  C   UNL     1       8.759  12.567  22.684  0.00  0.00    +0.000 A 
ATOM     12  C   UNL     1       9.335  13.106  21.535  0.00  0.00    +0.000 A 
ATOM     13  C   UNL     1       8.610  13.926  20.648  0.00  0.00    +0.000 A 
BRANCH   8  14
ATOM     14  C   UNL     1       6.414  15.196  20.188  0.00  0.00    +0.000 C 
BRANCH  14  16
ATOM     15  C   UNL     1       6.314  17.501  20.787  0.00  0.00    +0.000 C 
ATOM     16  O   UNL     1       6.940  16.507  19.981  0.00  0.00    +0.000 OA
ENDBRANCH  14  16
ENDBRANCH   8  14
ENDBRANCH   1  13
BRANCH   7  17
ATOM     17  C   UNL     1       9.215  11.729  18.653  0.00  0.00    +0.000 A 
ATOM     18  C   UNL     1       8.207  11.465  17.722  0.00  0.00    +0.000 A 
ATOM     19  C   UNL     1       7.783  10.156  17.480  0.00  0.00    +0.000 A 
ATOM     20  C   UNL     1       8.293   9.092  18.231  0.00  0.00    +0.000 A 
ATOM     21  C   UNL     1       9.221   9.376  19.246  0.00  0.00    +0.000 A 
ATOM     22  C   UNL     1       9.706  10.683  19.439  0.00  0.00    +0.000 A 
BRANCH  20  23
ATOM     23  C   UNL     1       7.881   7.712  17.970  0.00  0.00    +0.000 A 
ATOM     24  C   UNL     1       8.014   6.684  18.889  0.00  0.00    +0.000 A 
ATOM     25  S   UNL     1       7.452   5.212  18.211  0.00  0.00    +0.000 S 
ATOM     26  C   UNL     1       7.058   6.047  16.763  0.00  0.00    +0.000 A 
ATOM     27  C   UNL     1       6.496   5.313  15.597  0.00  0.00    +0.000 C 
ATOM     28  N   UNL     1       7.302   7.348  16.768  0.00  0.00    +0.000 NA
ENDBRANCH  20  23
ENDBRANCH   7  17
BRANCH   2  29
ATOM     29  C   UNL     1      11.282  15.590  20.032  0.00  0.00    +0.000 C 
ATOM     30  O   UNL     1      12.270  14.853  20.024  0.00  0.00    +0.000 OA
BRANCH  29  31
ATOM     31  C   UNL     1      11.212  16.810  20.983  0.00  0.00    +0.000 C 
ATOM     32  C   UNL     1      10.571  18.028  20.305  0.00  0.00    +0.000 C 
ATOM     33  C   UNL     1      10.431  16.515  22.261  0.00  0.00    +0.000 C 
ENDBRANCH  29  31
ENDBRANCH   2  29
TORSDOF 7
ENDMDL
MODEL 3
REMARK VINA RESULT:      -7.0      0.965      1.285
REMARK  Name = 
REMARK  11 active torsions:
REMARK  status: ('A' for Active; 'I' for Inactive)
REMARK    1  A    between atoms: C_1  and  O_2
REMARK    2  A    between atoms: O_2  and  C_3
REMARK    3  A    between atoms: C_3  and  C_4
REMARK    4  A    between atoms: C_9  and  C_10
REMARK    5  A    between atoms: C_11  and  C_12
REMARK    6  A    between atoms: C_12  and  C_14
REMARK    7  A    between atoms: C_14  and  C_15
REMARK    8  A    between atoms: C_14  and  C_16
REMARK    9  A    between atoms: N_21  and  C_22
REMARK   10  A    between atoms: C_25  and  C_26
REMARK   11  A    between atoms: C_29  and  C_30
REMARK                            x       y       z     vdW  Elec       q    Type
REMARK                         _______ _______ _______ _____ _____    ______ ____
ROOT
ATOM      1  C   UNL     1       4.552   4.829  18.388  0.00  0.00    +0.000 C 
ATOM      2  C   UNL     1       5.852   4.322  17.702  0.00  0.00    +0.000 C 
ATOM      3  C   UNL     1       6.590   5.629  17.655  0.00  0.00    +0.000 C 
ATOM      4  O   UNL     1       7.799   5.766  17.615  0.00  0.00    +0.000 OA
ATOM      5  C   UNL     1       5.589   6.786  17.641  0.00  0.00    +0.000 C 
ATOM      6  O   UNL     1       5.888   7.937  17.400  0.00  0.00    +0.000 OA
ATOM      7  N   UNL     1       4.366   6.218  17.948  0.00  0.00    +0.000 N 
ENDROOT
BRANCH   1  13
ATOM      8  C   UNL     1       2.989   2.961  19.253  0.00  0.00    +0.000 A 
ATOM      9  C   UNL     1       1.699   2.383  19.258  0.00  0.00    +0.000 A 
ATOM     10  C   UNL     1       0.707   2.818  18.386  0.00  0.00    +0.000 A 
ATOM     11  C   UNL     1       1.013   3.766  17.426  0.00  0.00    +0.000 A 
ATOM     12  C   UNL     1       2.305   4.284  17.354  0.00  0.00    +0.000 A 
ATOM     13  C   UNL     1       3.292   3.967  18.308  0.00  0.00    +0.000 A 
BRANCH   8  14
ATOM     14  C   UNL     1       3.939   2.534  20.351  0.00  0.00    +0.000 C 
BRANCH  14  16
ATOM     15  C   UNL     1       2.376   3.455  21.897  0.00  0.00    +0.000 C 
ATOM     16  O   UNL     1       3.290   2.398  21.615  0.00  0.00    +0.000 OA
ENDBRANCH  14  16
ENDBRANCH   8  14
ENDBRANCH   1  13
BRANCH   7  17
ATOM     17  C   UNL     1       3.252   6.995  18.346  0.00  0.00    +0.000 A 
ATOM     18  C   UNL     1       2.797   6.837  19.657  0.00  0.00    +0.000 A 
ATOM     19  C   UNL     1       1.912   7.759  20.222  0.00  0.00    +0.000 A 
ATOM     20  C   UNL     1       1.392   8.807  19.456  0.00  0.00    +0.000 A 
ATOM     21  C   UNL     1       1.762   8.895  18.104  0.00  0.00    +0.000 A 
ATOM     22  C   UNL     1       2.712   8.013  17.556  0.00  0.00    +0.000 A 
BRANCH  20  23
ATOM     23  C   UNL     1       0.486   9.798  20.041  0.00  0.00    +0.000 A 
ATOM     24  C   UNL     1       0.454  10.106  21.391  0.00  0.00    +0.000 A 
ATOM     25  S   UNL     1      -0.755  11.284  21.697  0.00  0.00    +0.000 S 
ATOM     26  C   UNL     1      -1.131  11.311  20.022  0.00  0.00    +0.000 A 
ATOM     27  C   UNL     1      -2.227  12.177  19.508  0.00  0.00    +0.000 C 
ATOM     28  N   UNL     1      -0.400  10.515  19.258  0.00  0.00    +0.000 NA
ENDBRANCH  20  23
ENDBRANCH   7  17
BRANCH   2  29
ATOM     29  C   UNL     1       5.775   3.757  16.288  0.00  0.00    +0.000 C 
ATOM     30  O   UNL     1       5.545   2.561  16.100  0.00  0.00    +0.000 OA
BRANCH  29  31
ATOM     31  C   UNL     1       5.895   4.736  15.095  0.00  0.00    +0.000 C 
ATOM     32  C   UNL     1       7.313   4.754  14.509  0.00  0.00    +0.000 C 
ATOM     33  C   UNL     1       4.922   4.408  13.965  0.00  0.00    +0.000 C 
ENDBRANCH  29  31
ENDBRANCH   2  29
TORSDOF 7
ENDMDL
MODEL 4
REMARK VINA RESULT:      -7.0      1.969      4.935
REMARK  Name = 
REMARK  11 active torsions:
REMARK  status: ('A' for Active; 'I' for Inactive)
REMARK    1  A    between atoms: C_1  and  O_2
REMARK    2  A    between atoms: O_2  and  C_3
REMARK    3  A    between atoms: C_3  and  C_4
REMARK    4  A    between atoms: C_9  and  C_10
REMARK    5  A    between atoms: C_11  and  C_12
REMARK    6  A    between atoms: C_12  and  C_14
REMARK    7  A    between atoms: C_14  and  C_15
REMARK    8  A    between atoms: C_14  and  C_16
REMARK    9  A    between atoms: N_21  and  C_22
REMARK   10  A    between atoms: C_25  and  C_26
REMARK   11  A    between atoms: C_29  and  C_30
REMARK                            x       y       z     vdW  Elec       q    Type
REMARK                         _______ _______ _______ _____ _____    ______ ____
ROOT
ATOM      1  C   UNL     1       3.407   3.974  17.819  0.00  0.00    +0.000 C 
ATOM      2  C   UNL     1       3.174   2.440  17.914  0.00  0.00    +0.000 C 
ATOM      3  C   UNL     1       1.705   2.469  18.227  0.00  0.00    +0.000 C 
ATOM      4  O   UNL     1       0.907   1.579  17.996  0.00  0.00    +0.000 OA
ATOM      5  C   UNL     1       1.350   3.791  18.912  0.00  0.00    +0.000 C 
ATOM      6  O   UNL     1       0.288   4.005  19.458  0.00  0.00    +0.000 OA
ATOM      7  N   UNL     1       2.462   4.596  18.754  0.00  0.00    +0.000 N 
ENDROOT
BRANCH   1  13
ATOM      8  C   UNL     1       5.625   4.800  16.778  0.00  0.00    +0.000 A 
ATOM      9  C   UNL     1       6.831   5.520  16.938  0.00  0.00    +0.000 A 
ATOM     10  C   UNL     1       7.231   5.994  18.183  0.00  0.00    +0.000 A 
ATOM     11  C   UNL     1       6.489   5.670  19.305  0.00  0.00    +0.000 A 
ATOM     12  C   UNL     1       5.342   4.888  19.173  0.00  0.00    +0.000 A 
ATOM     13  C   UNL     1       4.836   4.509  17.914  0.00  0.00    +0.000 A 
BRANCH   8  14
ATOM     14  C   UNL     1       5.199   4.476  15.361  0.00  0.00    +0.000 C 
BRANCH  14  16
ATOM     15  C   UNL     1       6.161   3.768  13.299  0.00  0.00    +0.000 C 
ATOM     16  O   UNL     1       6.099   3.580  14.710  0.00  0.00    +0.000 OA
ENDBRANCH  14  16
ENDBRANCH   8  14
ENDBRANCH   1  13
BRANCH   7  17
ATOM     17  C   UNL     1       2.415   5.995  18.965  0.00  0.00    +0.000 A 
ATOM     18  C   UNL     1       2.465   6.814  17.834  0.00  0.00    +0.000 A 
ATOM     19  C   UNL     1       2.129   8.168  17.918  0.00  0.00    +0.000 A 
ATOM     20  C   UNL     1       1.827   8.752  19.152  0.00  0.00    +0.000 A 
ATOM     21  C   UNL     1       1.892   7.950  20.304  0.00  0.00    +0.000 A 
ATOM     22  C   UNL     1       2.154   6.570  20.211  0.00  0.00    +0.000 A 
BRANCH  20  23
ATOM     23  C   UNL     1       1.445  10.162  19.253  0.00  0.00    +0.000 A 
ATOM     24  C   UNL     1       0.436  10.627  20.078  0.00  0.00    +0.000 A 
ATOM     25  S   UNL     1       0.263  12.324  19.898  0.00  0.00    +0.000 S 
ATOM     26  C   UNL     1       1.546  12.318  18.757  0.00  0.00    +0.000 A 
ATOM     27  C   UNL     1       1.966  13.578  18.086  0.00  0.00    +0.000 C 
ATOM     28  N   UNL     1       2.100  11.139  18.525  0.00  0.00    +0.000 NA
ENDBRANCH  20  23
ENDBRANCH   7  17
BRANCH   2  29
ATOM     29  C   UNL     1       3.886   1.646  19.003  0.00  0.00    +0.000 C 
ATOM     30  O   UNL     1       4.275   0.496  18.790  0.00  0.00    +0.000 OA
BRANCH  29  31
ATOM     31  C   UNL     1       4.197   2.350  20.346  0.00  0.00    +0.000 C 
ATOM     32  C   UNL     1       2.982   2.356  21.284  0.00  0.00    +0.000 C 
ATOM     33  C   UNL     1       5.365   1.708  21.091  0.00  0.00    +0.000 C 
ENDBRANCH  29  31
ENDBRANCH   2  29
TORSDOF 7
ENDMDL
MODEL 5
REMARK VINA RESULT:      -6.9      6.575      9.093
REMARK  Name = 
REMARK  11 active torsions:
REMARK  status: ('A' for Active; 'I' for Inactive)
REMARK    1  A    between atoms: C_1  and  O_2
REMARK    2  A    between atoms: O_2  and  C_3
REMARK    3  A    between atoms: C_3  and  C_4
REMARK    4  A    between atoms: C_9  and  C_10
REMARK    5  A    between atoms: C_11  and  C_12
REMARK    6  A    between atoms: C_12  and  C_14
REMARK    7  A    between atoms: C_14  and  C_15
REMARK    8  A    between atoms: C_14  and  C_16
REMARK    9  A    between atoms: N_21  and  C_22
REMARK   10  A    between atoms: C_25  and  C_26
REMARK   11  A    between atoms: C_29  and  C_30
REMARK                            x       y       z     vdW  Elec       q    Type
REMARK                         _______ _______ _______ _____ _____    ______ ____
ROOT
ATOM      1  C   UNL     1       1.140  12.611  20.408  0.00  0.00    +0.000 C 
ATOM      2  C   UNL     1       2.539  13.129  19.970  0.00  0.00    +0.000 C 
ATOM      3  C   UNL     1       2.810  14.026  21.144  0.00  0.00    +0.000 C 
ATOM      4  O   UNL     1       3.907  14.358  21.551  0.00  0.00    +0.000 OA
ATOM      5  C   UNL     1       1.485  14.491  21.753  0.00  0.00    +0.000 C 
ATOM      6  O   UNL     1       1.393  15.378  22.576  0.00  0.00    +0.000 OA
ATOM      7  N   UNL     1       0.514  13.701  21.167  0.00  0.00    +0.000 N 
ENDROOT
BRANCH   1  13
ATOM      8  C   UNL     1       0.066  10.568  19.244  0.00  0.00    +0.000 A 
ATOM      9  C   UNL     1      -0.971  10.060  18.428  0.00  0.00    +0.000 A 
ATOM     10  C   UNL     1      -1.863  10.907  17.779  0.00  0.00    +0.000 A 
ATOM     11  C   UNL     1      -1.674  12.276  17.849  0.00  0.00    +0.000 A 
ATOM     12  C   UNL     1      -0.605  12.789  18.581  0.00  0.00    +0.000 A 
ATOM     13  C   UNL     1       0.232  11.966  19.361  0.00  0.00    +0.000 A 
BRANCH   8  14
ATOM     14  C   UNL     1       0.873   9.563  20.038  0.00  0.00    +0.000 C 
BRANCH  14  16
ATOM     15  C   UNL     1       1.099   9.184  22.380  0.00  0.00    +0.000 C 
ATOM     16  O   UNL     1       0.228   9.179  21.251  0.00  0.00    +0.000 OA
ENDBRANCH  14  16
ENDBRANCH   8  14
ENDBRANCH   1  13
BRANCH   7  17
ATOM     17  C   UNL     1      -0.796  13.601  21.695  0.00  0.00    +0.000 A 
ATOM     18  C   UNL     1      -1.695  14.621  21.373  0.00  0.00    +0.000 A 
ATOM     19  C   UNL     1      -3.066  14.460  21.594  0.00  0.00    +0.000 A 
ATOM     20  C   UNL     1      -3.555  13.313  22.227  0.00  0.00    +0.000 A 
ATOM     21  C   UNL     1      -2.635  12.342  22.654  0.00  0.00    +0.000 A 
ATOM     22  C   UNL     1      -1.263  12.467  22.363  0.00  0.00    +0.000 A 
BRANCH  20  23
ATOM     23  C   UNL     1      -4.990  13.117  22.440  0.00  0.00    +0.000 A 
ATOM     24  C   UNL     1      -5.804  12.401  21.578  0.00  0.00    +0.000 A 
ATOM     25  S   UNL     1      -7.423  12.421  22.145  0.00  0.00    +0.000 S 
ATOM     26  C   UNL     1      -6.924  13.358  23.495  0.00  0.00    +0.000 A 
ATOM     27  C   UNL     1      -7.916  13.821  24.501  0.00  0.00    +0.000 C 
ATOM     28  N   UNL     1      -5.630  13.633  23.552  0.00  0.00    +0.000 NA
ENDBRANCH  20  23
ENDBRANCH   7  17
BRANCH   2  29
ATOM     29  C   UNL     1       2.660  13.952  18.692  0.00  0.00    +0.000 C 
ATOM     30  O   UNL     1       2.709  13.401  17.591  0.00  0.00    +0.000 OA
BRANCH  29  31
ATOM     31  C   UNL     1       2.622  15.496  18.803  0.00  0.00    +0.000 C 
ATOM     32  C   UNL     1       3.625  16.164  17.853  0.00  0.00    +0.000 C 
ATOM     33  C   UNL     1       1.238  16.073  18.509  0.00  0.00    +0.000 C 
ENDBRANCH  29  31
ENDBRANCH   2  29
TORSDOF 7
ENDMDL
MODEL 6
REMARK VINA RESULT:      -6.8      7.626      9.847
REMARK  Name = 
REMARK  11 active torsions:
REMARK  status: ('A' for Active; 'I' for Inactive)
REMARK    1  A    between atoms: C_1  and  O_2
REMARK    2  A    between atoms: O_2  and  C_3
REMARK    3  A    between atoms: C_3  and  C_4
REMARK    4  A    between atoms: C_9  and  C_10
REMARK    5  A    between atoms: C_11  and  C_12
REMARK    6  A    between atoms: C_12  and  C_14
REMARK    7  A    between atoms: C_14  and  C_15
REMARK    8  A    between atoms: C_14  and  C_16
REMARK    9  A    between atoms: N_21  and  C_22
REMARK   10  A    between atoms: C_25  and  C_26
REMARK   11  A    between atoms: C_29  and  C_30
REMARK                            x       y       z     vdW  Elec       q    Type
REMARK                         _______ _______ _______ _____ _____    ______ ____
ROOT
ATOM      1  C   UNL     1       1.092  13.719  21.235  0.00  0.00    +0.000 C 
ATOM      2  C   UNL     1       2.415  14.484  20.950  0.00  0.00    +0.000 C 
ATOM      3  C   UNL     1       2.352  15.450  22.099  0.00  0.00    +0.000 C 
ATOM      4  O   UNL     1       3.303  15.999  22.623  0.00  0.00    +0.000 OA
ATOM      5  C   UNL     1       0.894  15.668  22.510  0.00  0.00    +0.000 C 
ATOM      6  O   UNL     1       0.528  16.544  23.265  0.00  0.00    +0.000 OA
ATOM      7  N   UNL     1       0.176  14.689  21.848  0.00  0.00    +0.000 N 
ENDROOT
BRANCH   1  13
ATOM      8  C   UNL     1       0.266  11.487  20.226  0.00  0.00    +0.000 A 
ATOM      9  C   UNL     1      -0.535  10.828  19.265  0.00  0.00    +0.000 A 
ATOM     10  C   UNL     1      -1.168  11.531  18.245  0.00  0.00    +0.000 A 
ATOM     11  C   UNL     1      -0.932  12.887  18.106  0.00  0.00    +0.000 A 
ATOM     12  C   UNL     1      -0.077  13.535  18.996  0.00  0.00    +0.000 A 
ATOM     13  C   UNL     1       0.470  12.881  20.118  0.00  0.00    +0.000 A 
BRANCH   8  14
ATOM     14  C   UNL     1       0.771  10.657  21.387  0.00  0.00    +0.000 C 
BRANCH  14  16
ATOM     15  C   UNL     1      -0.410   9.672  23.207  0.00  0.00    +0.000 C 
ATOM     16  O   UNL     1      -0.170   9.668  21.802  0.00  0.00    +0.000 OA
ENDBRANCH  14  16
ENDBRANCH   8  14
ENDBRANCH   1  13
BRANCH   7  17
ATOM     17  C   UNL     1      -1.151  14.353  22.211  0.00  0.00    +0.000 A 
ATOM     18  C   UNL     1      -2.183  15.042  21.569  0.00  0.00    +0.000 A 
ATOM     19  C   UNL     1      -3.501  14.582  21.639  0.00  0.00    +0.000 A 
ATOM     20  C   UNL     1      -3.826  13.474  22.428  0.00  0.00    +0.000 A 
ATOM     21  C   UNL     1      -2.804  12.855  23.165  0.00  0.00    +0.000 A 
ATOM     22  C   UNL     1      -1.465  13.270  23.035  0.00  0.00    +0.000 A 
BRANCH  20  23
ATOM     23  C   UNL     1      -5.197  12.962  22.490  0.00  0.00    +0.000 A 
ATOM     24  C   UNL     1      -6.051  13.181  23.557  0.00  0.00    +0.000 A 
ATOM     25  S   UNL     1      -7.553  12.400  23.279  0.00  0.00    +0.000 S 
ATOM     26  C   UNL     1      -6.967  11.847  21.762  0.00  0.00    +0.000 A 
ATOM     27  C   UNL     1      -7.815  10.987  20.894  0.00  0.00    +0.000 C 
ATOM     28  N   UNL     1      -5.738  12.228  21.451  0.00  0.00    +0.000 NA
ENDBRANCH  20  23
ENDBRANCH   7  17
BRANCH   2  29
ATOM     29  C   UNL     1       2.550  15.277  19.656  0.00  0.00    +0.000 C 
ATOM     30  O   UNL     1       1.863  16.281  19.458  0.00  0.00    +0.000 OA
BRANCH  29  31
ATOM     31  C   UNL     1       3.638  14.851  18.640  0.00  0.00    +0.000 C 
ATOM     32  C   UNL     1       3.536  15.638  17.327  0.00  0.00    +0.000 C 
ATOM     33  C   UNL     1       5.054  15.027  19.185  0.00  0.00    +0.000 C 
ENDBRANCH  29  31
ENDBRANCH   2  29
TORSDOF 7
ENDMDL
MODEL 7
REMARK VINA RESULT:      -6.7      8.474     10.564
REMARK  Name = 
REMARK  11 active torsions:
REMARK  status: ('A' for Active; 'I' for Inactive)
REMARK    1  A    between atoms: C_1  and  O_2
REMARK    2  A    between atoms: O_2  and  C_3
REMARK    3  A    between atoms: C_3  and  C_4
REMARK    4  A    between atoms: C_9  and  C_10
REMARK    5  A    between atoms: C_11  and  C_12
REMARK    6  A    between atoms: C_12  and  C_14
REMARK    7  A    between atoms: C_14  and  C_15
REMARK    8  A    between atoms: C_14  and  C_16
REMARK    9  A    between atoms: N_21  and  C_22
REMARK   10  A    between atoms: C_25  and  C_26
REMARK   11  A    between atoms: C_29  and  C_30
REMARK                            x       y       z     vdW  Elec       q    Type
REMARK                         _______ _______ _______ _____ _____    ______ ____
ROOT
ATOM      1  C   UNL     1       9.211  15.154  20.298  0.00  0.00    +0.000 C 
ATOM      2  C   UNL     1      10.450  16.093  20.319  0.00  0.00    +0.000 C 
ATOM      3  C   UNL     1       9.723  17.401  20.446  0.00  0.00    +0.000 C 
ATOM      4  O   UNL     1      10.173  18.425  20.924  0.00  0.00    +0.000 OA
ATOM      5  C   UNL     1       8.317  17.268  19.856  0.00  0.00    +0.000 C 
ATOM      6  O   UNL     1       7.584  18.209  19.636  0.00  0.00    +0.000 OA
ATOM      7  N   UNL     1       8.128  15.913  19.660  0.00  0.00    +0.000 N 
ENDROOT
BRANCH   1  13
ATOM      8  C   UNL     1       9.359  12.594  20.620  0.00  0.00    +0.000 A 
ATOM      9  C   UNL     1       9.266  11.305  20.046  0.00  0.00    +0.000 A 
ATOM     10  C   UNL     1       9.140  11.132  18.672  0.00  0.00    +0.000 A 
ATOM     11  C   UNL     1       9.207  12.234  17.838  0.00  0.00    +0.000 A 
ATOM     12  C   UNL     1       9.383  13.504  18.385  0.00  0.00    +0.000 A 
ATOM     13  C   UNL     1       9.376  13.727  19.776  0.00  0.00    +0.000 A 
BRANCH   8  14
ATOM     14  C   UNL     1       9.324  12.679  22.131  0.00  0.00    +0.000 C 
BRANCH  14  16
ATOM     15  C   UNL     1       7.539  11.671  23.347  0.00  0.00    +0.000 C 
ATOM     16  O   UNL     1       7.997  12.820  22.640  0.00  0.00    +0.000 OA
ENDBRANCH  14  16
ENDBRANCH   8  14
ENDBRANCH   1  13
BRANCH   7  17
ATOM     17  C   UNL     1       6.846  15.356  19.433  0.00  0.00    +0.000 A 
ATOM     18  C   UNL     1       6.072  15.051  20.556  0.00  0.00    +0.000 A 
ATOM     19  C   UNL     1       4.706  14.784  20.430  0.00  0.00    +0.000 A 
ATOM     20  C   UNL     1       4.105  14.725  19.169  0.00  0.00    +0.000 A 
ATOM     21  C   UNL     1       4.911  14.917  18.035  0.00  0.00    +0.000 A 
ATOM     22  C   UNL     1       6.270  15.263  18.163  0.00  0.00    +0.000 A 
BRANCH  20  23
ATOM     23  C   UNL     1       2.670  14.475  19.023  0.00  0.00    +0.000 A 
ATOM     24  C   UNL     1       2.123  13.212  18.867  0.00  0.00    +0.000 A 
ATOM     25  S   UNL     1       0.420  13.325  18.696  0.00  0.00    +0.000 S 
ATOM     26  C   UNL     1       0.533  15.031  18.858  0.00  0.00    +0.000 A 
ATOM     27  C   UNL     1      -0.686  15.880  18.766  0.00  0.00    +0.000 C 
ATOM     28  N   UNL     1       1.752  15.508  19.051  0.00  0.00    +0.000 NA
ENDBRANCH  20  23
ENDBRANCH   7  17
BRANCH   2  29
ATOM     29  C   UNL     1      11.354  16.158  19.093  0.00  0.00    +0.000 C 
ATOM     30  O   UNL     1      12.332  15.414  18.992  0.00  0.00    +0.000 OA
BRANCH  29  31
ATOM     31  C   UNL     1      10.961  17.108  17.936  0.00  0.00    +0.000 C 
ATOM     32  C   UNL     1      12.079  18.108  17.611  0.00  0.00    +0.000 C 
ATOM     33  C   UNL     1      10.611  16.359  16.652  0.00  0.00    +0.000 C 
ENDBRANCH  29  31
ENDBRANCH   2  29
TORSDOF 7
ENDMDL
MODEL 8
REMARK VINA RESULT:      -6.6      4.641     10.205
REMARK  Name = 
REMARK  11 active torsions:
REMARK  status: ('A' for Active; 'I' for Inactive)
REMARK    1  A    between atoms: C_1  and  O_2
REMARK    2  A    between atoms: O_2  and  C_3
REMARK    3  A    between atoms: C_3  and  C_4
REMARK    4  A    between atoms: C_9  and  C_10
REMARK    5  A    between atoms: C_11  and  C_12
REMARK    6  A    between atoms: C_12  and  C_14
REMARK    7  A    between atoms: C_14  and  C_15
REMARK    8  A    between atoms: C_14  and  C_16
REMARK    9  A    between atoms: N_21  and  C_22
REMARK   10  A    between atoms: C_25  and  C_26
REMARK   11  A    between atoms: C_29  and  C_30
REMARK                            x       y       z     vdW  Elec       q    Type
REMARK                         _______ _______ _______ _____ _____    ______ ____
ROOT
ATOM      1  C   UNL     1      -1.138  11.965  20.575  0.00  0.00    +0.000 C 
ATOM      2  C   UNL     1      -1.907  12.874  21.574  0.00  0.00    +0.000 C 
ATOM      3  C   UNL     1      -1.170  12.486  22.824  0.00  0.00    +0.000 C 
ATOM      4  O   UNL     1      -1.052  13.169  23.825  0.00  0.00    +0.000 OA
ATOM      5  C   UNL     1      -0.598  11.075  22.668  0.00  0.00    +0.000 C 
ATOM      6  O   UNL     1      -0.136  10.428  23.584  0.00  0.00    +0.000 OA
ATOM      7  N   UNL     1      -0.737  10.769  21.327  0.00  0.00    +0.000 N 
ENDROOT
BRANCH   1  13
ATOM      8  C   UNL     1      -1.342  12.310  18.021  0.00  0.00    +0.000 A 
ATOM      9  C   UNL     1      -1.789  11.813  16.776  0.00  0.00    +0.000 A 
ATOM     10  C   UNL     1      -2.592  10.681  16.693  0.00  0.00    +0.000 A 
ATOM     11  C   UNL     1      -3.047  10.085  17.856  0.00  0.00    +0.000 A 
ATOM     12  C   UNL     1      -2.684  10.614  19.093  0.00  0.00    +0.000 A 
ATOM     13  C   UNL     1      -1.763  11.674  19.211  0.00  0.00    +0.000 A 
BRANCH   8  14
ATOM     14  C   UNL     1      -0.338  13.443  17.991  0.00  0.00    +0.000 C 
BRANCH  14  16
ATOM     15  C   UNL     1       0.167  15.645  18.751  0.00  0.00    +0.000 C 
ATOM     16  O   UNL     1      -0.706  14.522  18.850  0.00  0.00    +0.000 OA
ENDBRANCH  14  16
ENDBRANCH   8  14
ENDBRANCH   1  13
BRANCH   7  17
ATOM     17  C   UNL     1      -0.043   9.693  20.724  0.00  0.00    +0.000 A 
ATOM     18  C   UNL     1       0.623   9.953  19.524  0.00  0.00    +0.000 A 
ATOM     19  C   UNL     1       1.564   9.052  19.020  0.00  0.00    +0.000 A 
ATOM     20  C   UNL     1       1.791   7.828  19.657  0.00  0.00    +0.000 A 
ATOM     21  C   UNL     1       1.034   7.519  20.799  0.00  0.00    +0.000 A 
ATOM     22  C   UNL     1       0.142   8.458  21.352  0.00  0.00    +0.000 A 
BRANCH  20  23
ATOM     23  C   UNL     1       2.793   6.885  19.157  0.00  0.00    +0.000 A 
ATOM     24  C   UNL     1       3.171   5.736  19.832  0.00  0.00    +0.000 A 
ATOM     25  S   UNL     1       4.388   4.909  18.951  0.00  0.00    +0.000 S 
ATOM     26  C   UNL     1       4.311   6.121  17.737  0.00  0.00    +0.000 A 
ATOM     27  C   UNL     1       5.212   6.062  16.554  0.00  0.00    +0.000 C 
ATOM     28  N   UNL     1       3.425   7.081  17.943  0.00  0.00    +0.000 NA
ENDBRANCH  20  23
ENDBRANCH   7  17
BRANCH   2  29
ATOM     29  C   UNL     1      -3.397  12.640  21.796  0.00  0.00    +0.000 C 
ATOM     30  O   UNL     1      -3.800  12.080  22.818  0.00  0.00    +0.000 OA
BRANCH  29  31
ATOM     31  C   UNL     1      -4.396  13.207  20.758  0.00  0.00    +0.000 C 
ATOM     32  C   UNL     1      -5.797  12.602  20.922  0.00  0.00    +0.000 C 
ATOM     33  C   UNL     1      -4.527  14.726  20.836  0.00  0.00    +0.000 C 
ENDBRANCH  29  31
ENDBRANCH   2  29
TORSDOF 7
ENDMDL
MODEL 9
REMARK VINA RESULT:      -6.6      8.324     11.583
REMARK  Name = 
REMARK  11 active torsions:
REMARK  status: ('A' for Active; 'I' for Inactive)
REMARK    1  A    between atoms: C_1  and  O_2
REMARK    2  A    between atoms: O_2  and  C_3
REMARK    3  A    between atoms: C_3  and  C_4
REMARK    4  A    between atoms: C_9  and  C_10
REMARK    5  A    between atoms: C_11  and  C_12
REMARK    6  A    between atoms: C_12  and  C_14
REMARK    7  A    between atoms: C_14  and  C_15
REMARK    8  A    between atoms: C_14  and  C_16
REMARK    9  A    between atoms: N_21  and  C_22
REMARK   10  A    between atoms: C_25  and  C_26
REMARK   11  A    between atoms: C_29  and  C_30
REMARK                            x       y       z     vdW  Elec       q    Type
REMARK                         _______ _______ _______ _____ _____    ______ ____
ROOT
ATOM      1  C   UNL     1       9.286  14.861  18.814  0.00  0.00    +0.000 C 
ATOM      2  C   UNL     1      10.265  16.046  18.579  0.00  0.00    +0.000 C 
ATOM      3  C   UNL     1      11.013  15.473  17.410  0.00  0.00    +0.000 C 
ATOM      4  O   UNL     1      11.598  16.111  16.554  0.00  0.00    +0.000 OA
ATOM      5  C   UNL     1      10.955  13.945  17.460  0.00  0.00    +0.000 C 
ATOM      6  O   UNL     1      11.637  13.219  16.767  0.00  0.00    +0.000 OA
ATOM      7  N   UNL     1      10.006  13.644  18.418  0.00  0.00    +0.000 N 
ENDROOT
BRANCH   1  13
ATOM      8  C   UNL     1       7.171  14.969  20.297  0.00  0.00    +0.000 A 
ATOM      9  C   UNL     1       6.537  14.614  21.510  0.00  0.00    +0.000 A 
ATOM     10  C   UNL     1       7.243  14.017  22.549  0.00  0.00    +0.000 A 
ATOM     11  C   UNL     1       8.612  13.856  22.436  0.00  0.00    +0.000 A 
ATOM     12  C   UNL     1       9.265  14.278  21.279  0.00  0.00    +0.000 A 
ATOM     13  C   UNL     1       8.561  14.759  20.157  0.00  0.00    +0.000 A 
BRANCH   8  14
ATOM     14  C   UNL     1       6.283  15.456  19.172  0.00  0.00    +0.000 C 
BRANCH  14  16
ATOM     15  C   UNL     1       4.044  16.250  19.370  0.00  0.00    +0.000 C 
ATOM     16  O   UNL     1       5.428  16.526  19.575  0.00  0.00    +0.000 OA
ENDBRANCH  14  16
ENDBRANCH   8  14
ENDBRANCH   1  13
BRANCH   7  17
ATOM     17  C   UNL     1       9.433  12.355  18.534  0.00  0.00    +0.000 A 
ATOM     18  C   UNL     1       8.342  12.063  17.711  0.00  0.00    +0.000 A 
ATOM     19  C   UNL     1       7.908  10.746  17.541  0.00  0.00    +0.000 A 
ATOM     20  C   UNL     1       8.498   9.703  18.263  0.00  0.00    +0.000 A 
ATOM     21  C   UNL     1       9.517  10.017  19.177  0.00  0.00    +0.000 A 
ATOM     22  C   UNL     1      10.007  11.331  19.292  0.00  0.00    +0.000 A 
BRANCH  20  23
ATOM     23  C   UNL     1       8.074   8.315  18.075  0.00  0.00    +0.000 A 
ATOM     24  C   UNL     1       7.374   7.869  16.966  0.00  0.00    +0.000 A 
ATOM     25  S   UNL     1       7.030   6.195  17.121  0.00  0.00    +0.000 S 
ATOM     26  C   UNL     1       7.845   6.183  18.632  0.00  0.00    +0.000 A 
ATOM     27  C   UNL     1       7.920   4.935  19.439  0.00  0.00    +0.000 C 
ATOM     28  N   UNL     1       8.370   7.338  19.009  0.00  0.00    +0.000 NA
ENDBRANCH  20  23
ENDBRANCH   7  17
BRANCH   2  29
ATOM     29  C   UNL     1      11.269  16.408  19.668  0.00  0.00    +0.000 C 
ATOM     30  O   UNL     1      12.333  15.795  19.770  0.00  0.00    +0.000 OA
BRANCH  29  31
ATOM     31  C   UNL     1      10.965  17.623  20.577  0.00  0.00    +0.000 C 
ATOM     32  C   UNL     1       9.625  18.282  20.224  0.00  0.00    +0.000 C 
ATOM     33  C   UNL     1      10.933  17.256  22.060  0.00  0.00    +0.000 C 
ENDBRANCH  29  31
ENDBRANCH   2  29
TORSDOF 7
ENDMDL
