MODEL 1
REMARK VINA RESULT:      -7.8      0.000      0.000
REMARK  Name = 
REMARK  9 active torsions:
REMARK  status: ('A' for Active; 'I' for Inactive)
REMARK    1  A    between atoms: C_1  and  O_2
REMARK    2  A    between atoms: O_2  and  C_3
REMARK    3  A    between atoms: C_6  and  C_7
REMARK    4  A    between atoms: C_7  and  C_8
REMARK    5  A    between atoms: N_10  and  C_11
REMARK    6  A    between atoms: N_13  and  C_14
REMARK    7  A    between atoms: C_16  and  N_17
REMARK    8  A    between atoms: N_17  and  S_18
REMARK    9  A    between atoms: S_18  and  C_19
REMARK                            x       y       z     vdW  Elec       q    Type
REMARK                         _______ _______ _______ _____ _____    ______ ____
ROOT
ATOM      1  C   UNL     1       8.142   6.992  18.498  0.00  0.00    +0.000 A 
ATOM      2  C   UNL     1       7.633   7.032  17.219  0.00  0.00    +0.000 A 
ATOM      3  N   UNL     1       7.247   5.742  16.961  0.00  0.00    +0.000 N 
ATOM      4  C   UNL     1       7.425   5.017  18.101  0.00  0.00    +0.000 A 
ATOM      5  N   UNL     1       8.008   5.744  19.027  0.00  0.00    +0.000 NA
ENDROOT
BRANCH   1   8
ATOM      6  C   UNL     1       8.626   9.365  18.691  0.00  0.00    +0.000 C 
ATOM      7  O   UNL     1       8.018   9.760  17.698  0.00  0.00    +0.000 OA
ATOM      8  N   UNL     1       8.682   8.068  19.164  0.00  0.00    +0.000 N 
ATOM      9  H   UNL     1       9.074   7.895  20.076  0.00  0.00    +0.000 HD
BRANCH   6  10
ATOM     10  C   UNL     1       9.377  10.358  19.564  0.00  0.00    +0.000 C 
BRANCH  10  14
ATOM     11  C   UNL     1      10.668  13.918  17.457  0.00  0.00    +0.000 A 
ATOM     12  C   UNL     1      11.253  12.679  17.198  0.00  0.00    +0.000 A 
ATOM     13  C   UNL     1      10.828  11.535  17.880  0.00  0.00    +0.000 A 
ATOM     14  C   UNL     1       9.825  11.617  18.855  0.00  0.00    +0.000 A 
ATOM     15  C   UNL     1       9.222  12.861  19.087  0.00  0.00    +0.000 A 
ATOM     16  C   UNL     1       9.649  14.006  18.404  0.00  0.00    +0.000 A 
BRANCH  11  18
ATOM     17  C   UNL     1      10.543  16.223  16.934  0.00  0.00    +0.000 C 
ATOM     18  O   UNL     1      11.185  14.966  16.747  0.00  0.00    +0.000 OA
ENDBRANCH  11  18
ENDBRANCH  10  14
ENDBRANCH   6  10
ENDBRANCH   1   8
BRANCH   3  19
ATOM     19  C   UNL     1       6.632   5.255  15.754  0.00  0.00    +0.000 C 
ATOM     20  C   UNL     1       6.044   3.829  15.810  0.00  0.00    +0.000 C 
ATOM     21  C   UNL     1       4.652   4.455  16.091  0.00  0.00    +0.000 C 
ATOM     22  C   UNL     1       5.199   5.782  15.503  0.00  0.00    +0.000 C 
BRANCH  21  23
ATOM     23  N   UNL     1       4.222   4.487  17.535  0.00  0.00    +0.000 NA
ATOM     24  H   UNL     1       4.122   5.434  17.903  0.00  0.00    +0.000 HD
BRANCH  23  25
ATOM     25  S   UNL     1       2.944   3.510  18.090  0.00  0.00    +0.000 S 
ATOM     26  C   UNL     1       2.616   4.253  19.672  0.00  0.00    +0.000 C 
ATOM     27  O   UNL     1       1.820   3.766  17.216  0.00  0.00    +0.000 OA
ATOM     28  O   UNL     1       3.466   2.178  18.295  0.00  0.00    +0.000 OA
ENDBRANCH  23  25
ENDBRANCH  21  23
ENDBRANCH   3  19
TORSDOF 7
ENDMDL
MODEL 2
REMARK VINA RESULT:      -7.8      6.028      9.068
REMARK  Name = 
REMARK  9 active torsions:
REMARK  status: ('A' for Active; 'I' for Inactive)
REMARK    1  A    between atoms: C_1  and  O_2
REMARK    2  A    between atoms: O_2  and  C_3
REMARK    3  A    between atoms: C_6  and  C_7
REMARK    4  A    between atoms: C_7  and  C_8
REMARK    5  A    between atoms: N_10  and  C_11
REMARK    6  A    between atoms: N_13  and  C_14
REMARK    7  A    between atoms: C_16  and  N_17
REMARK    8  A    between atoms: N_17  and  S_18
REMARK    9  A    between atoms: S_18  and  C_19
REMARK                            x       y       z     vdW  Elec       q    Type
REMARK                         _______ _______ _______ _____ _____    ______ ____
ROOT
ATOM      1  C   UNL     1       2.052   7.378  19.063  0.00  0.00    +0.000 A 
ATOM      2  C   UNL     1       2.392   6.383  18.175  0.00  0.00    +0.000 A 
ATOM      3  N   UNL     1       2.751   5.322  18.966  0.00  0.00    +0.000 N 
ATOM      4  C   UNL     1       2.510   5.668  20.262  0.00  0.00    +0.000 A 
ATOM      5  N   UNL     1       2.130   6.923  20.345  0.00  0.00    +0.000 NA
ENDROOT
BRANCH   1   8
ATOM      6  C   UNL     1       0.857   9.448  19.503  0.00  0.00    +0.000 C 
ATOM      7  O   UNL     1       0.483   9.206  20.649  0.00  0.00    +0.000 OA
ATOM      8  N   UNL     1       1.655   8.647  18.708  0.00  0.00    +0.000 N 
ATOM      9  H   UNL     1       2.030   9.024  17.853  0.00  0.00    +0.000 HD
BRANCH   6  10
ATOM     10  C   UNL     1       0.482  10.767  18.846  0.00  0.00    +0.000 C 
BRANCH  10  14
ATOM     11  C   UNL     1      -3.676  11.006  17.648  0.00  0.00    +0.000 A 
ATOM     12  C   UNL     1      -2.805  10.101  17.042  0.00  0.00    +0.000 A 
ATOM     13  C   UNL     1      -1.466  10.028  17.437  0.00  0.00    +0.000 A 
ATOM     14  C   UNL     1      -0.967  10.881  18.431  0.00  0.00    +0.000 A 
ATOM     15  C   UNL     1      -1.857  11.767  19.055  0.00  0.00    +0.000 A 
ATOM     16  C   UNL     1      -3.198  11.839  18.658  0.00  0.00    +0.000 A 
BRANCH  11  18
ATOM     17  C   UNL     1      -5.643  12.246  17.209  0.00  0.00    +0.000 C 
ATOM     18  O   UNL     1      -4.953  11.002  17.160  0.00  0.00    +0.000 OA
ENDBRANCH  11  18
ENDBRANCH  10  14
ENDBRANCH   6  10
ENDBRANCH   1   8
BRANCH   3  19
ATOM     19  C   UNL     1       3.174   4.021  18.519  0.00  0.00    +0.000 C 
ATOM     20  C   UNL     1       3.652   3.919  17.055  0.00  0.00    +0.000 C 
ATOM     21  C   UNL     1       5.113   4.057  17.563  0.00  0.00    +0.000 C 
ATOM     22  C   UNL     1       4.602   3.621  18.961  0.00  0.00    +0.000 C 
BRANCH  21  23
ATOM     23  N   UNL     1       5.717   5.435  17.468  0.00  0.00    +0.000 NA
ATOM     24  H   UNL     1       5.315   6.096  18.134  0.00  0.00    +0.000 HD
BRANCH  23  25
ATOM     25  S   UNL     1       7.403   5.648  17.383  0.00  0.00    +0.000 S 
ATOM     26  C   UNL     1       7.793   5.919  19.098  0.00  0.00    +0.000 C 
ATOM     27  O   UNL     1       7.959   4.376  16.977  0.00  0.00    +0.000 OA
ATOM     28  O   UNL     1       7.655   6.865  16.646  0.00  0.00    +0.000 OA
ENDBRANCH  23  25
ENDBRANCH  21  23
ENDBRANCH   3  19
TORSDOF 7
ENDMDL
MODEL 3
REMARK VINA RESULT:      -7.8      6.340      9.058
REMARK  Name = 
REMARK  9 active torsions:
REMARK  status: ('A' for Active; 'I' for Inactive)
REMARK    1  A    between atoms: C_1  and  O_2
REMARK    2  A    between atoms: O_2  and  C_3
REMARK    3  A    between atoms: C_6  and  C_7
REMARK    4  A    between atoms: C_7  and  C_8
REMARK    5  A    between atoms: N_10  and  C_11
REMARK    6  A    between atoms: N_13  and  C_14
REMARK    7  A    between atoms: C_16  and  N_17
REMARK    8  A    between atoms: N_17  and  S_18
REMARK    9  A    between atoms: S_18  and  C_19
REMARK                            x       y       z     vdW  Elec       q    Type
REMARK                         _______ _______ _______ _____ _____    ______ ____
ROOT
ATOM      1  C   UNL     1       2.140   7.376  18.922  0.00  0.00    +0.000 A 
ATOM      2  C   UNL     1       2.244   6.308  18.059  0.00  0.00    +0.000 A 
ATOM      3  N   UNL     1       2.735   5.288  18.831  0.00  0.00    +0.000 N 
ATOM      4  C   UNL     1       2.798   5.732  20.118  0.00  0.00    +0.000 A 
ATOM      5  N   UNL     1       2.486   7.006  20.186  0.00  0.00    +0.000 NA
ENDROOT
BRANCH   1   8
ATOM      6  C   UNL     1       0.886   9.413  19.355  0.00  0.00    +0.000 C 
ATOM      7  O   UNL     1       0.505   9.157  20.495  0.00  0.00    +0.000 OA
ATOM      8  N   UNL     1       1.714   8.636  18.566  0.00  0.00    +0.000 N 
ATOM      9  H   UNL     1       2.089   9.026  17.716  0.00  0.00    +0.000 HD
BRANCH   6  10
ATOM     10  C   UNL     1       0.485  10.724  18.697  0.00  0.00    +0.000 C 
BRANCH  10  14
ATOM     11  C   UNL     1      -3.743  11.005  17.787  0.00  0.00    +0.000 A 
ATOM     12  C   UNL     1      -2.923  10.095  17.119  0.00  0.00    +0.000 A 
ATOM     13  C   UNL     1      -1.561  10.008  17.422  0.00  0.00    +0.000 A 
ATOM     14  C   UNL     1      -0.988  10.853  18.382  0.00  0.00    +0.000 A 
ATOM     15  C   UNL     1      -1.825  11.743  19.070  0.00  0.00    +0.000 A 
ATOM     16  C   UNL     1      -3.189  11.829  18.765  0.00  0.00    +0.000 A 
BRANCH  11  18
ATOM     17  C   UNL     1      -5.617  12.296  17.141  0.00  0.00    +0.000 C 
ATOM     18  O   UNL     1      -5.050  11.014  17.387  0.00  0.00    +0.000 OA
ENDBRANCH  11  18
ENDBRANCH  10  14
ENDBRANCH   6  10
ENDBRANCH   1   8
BRANCH   3  19
ATOM     19  C   UNL     1       3.007   3.941  18.403  0.00  0.00    +0.000 C 
ATOM     20  C   UNL     1       3.505   3.768  16.953  0.00  0.00    +0.000 C 
ATOM     21  C   UNL     1       4.959   3.732  17.497  0.00  0.00    +0.000 C 
ATOM     22  C   UNL     1       4.364   3.374  18.884  0.00  0.00    +0.000 C 
BRANCH  21  23
ATOM     23  N   UNL     1       5.729   5.025  17.409  0.00  0.00    +0.000 NA
ATOM     24  H   UNL     1       5.820   5.499  18.309  0.00  0.00    +0.000 HD
BRANCH  23  25
ATOM     25  S   UNL     1       7.198   5.113  16.554  0.00  0.00    +0.000 S 
ATOM     26  C   UNL     1       6.710   4.446  14.979  0.00  0.00    +0.000 C 
ATOM     27  O   UNL     1       7.494   6.519  16.390  0.00  0.00    +0.000 OA
ATOM     28  O   UNL     1       8.126   4.203  17.183  0.00  0.00    +0.000 OA
ENDBRANCH  23  25
ENDBRANCH  21  23
ENDBRANCH   3  19
TORSDOF 7
ENDMDL
MODEL 4
REMARK VINA RESULT:      -7.7      1.169      1.658
REMARK  Name = 
REMARK  9 active torsions:
REMARK  status: ('A' for Active; 'I' for Inactive)
REMARK    1  A    between atoms: C_1  and  O_2
REMARK    2  A    between atoms: O_2  and  C_3
REMARK    3  A    between atoms: C_6  and  C_7
REMARK    4  A    between atoms: C_7  and  C_8
REMARK    5  A    between atoms: N_10  and  C_11
REMARK    6  A    between atoms: N_13  and  C_14
REMARK    7  A    between atoms: C_16  and  N_17
REMARK    8  A    between atoms: N_17  and  S_18
REMARK    9  A    between atoms: S_18  and  C_19
REMARK                            x       y       z     vdW  Elec       q    Type
REMARK                         _______ _______ _______ _____ _____    ______ ____
ROOT
ATOM      1  C   UNL     1       7.829   6.960  18.211  0.00  0.00    +0.000 A 
ATOM      2  C   UNL     1       6.560   7.131  17.706  0.00  0.00    +0.000 A 
ATOM      3  N   UNL     1       6.265   5.937  17.101  0.00  0.00    +0.000 N 
ATOM      4  C   UNL     1       7.291   5.077  17.354  0.00  0.00    +0.000 A 
ATOM      5  N   UNL     1       8.267   5.690  17.985  0.00  0.00    +0.000 NA
ENDROOT
BRANCH   1   8
ATOM      6  C   UNL     1       8.539   9.262  18.529  0.00  0.00    +0.000 C 
ATOM      7  O   UNL     1       7.838   9.793  17.671  0.00  0.00    +0.000 OA
ATOM      8  N   UNL     1       8.547   7.925  18.879  0.00  0.00    +0.000 N 
ATOM      9  H   UNL     1       9.044   7.638  19.707  0.00  0.00    +0.000 HD
BRANCH   6  10
ATOM     10  C   UNL     1       9.487  10.109  19.364  0.00  0.00    +0.000 C 
BRANCH  10  14
ATOM     11  C   UNL     1      10.364  14.057  17.806  0.00  0.00    +0.000 A 
ATOM     12  C   UNL     1       9.524  13.890  18.908  0.00  0.00    +0.000 A 
ATOM     13  C   UNL     1       9.250  12.612  19.406  0.00  0.00    +0.000 A 
ATOM     14  C   UNL     1       9.791  11.475  18.792  0.00  0.00    +0.000 A 
ATOM     15  C   UNL     1      10.657  11.655  17.704  0.00  0.00    +0.000 A 
ATOM     16  C   UNL     1      10.930  12.934  17.205  0.00  0.00    +0.000 A 
BRANCH  11  18
ATOM     17  C   UNL     1       9.392  16.192  17.493  0.00  0.00    +0.000 C 
ATOM     18  O   UNL     1      10.536  15.350  17.396  0.00  0.00    +0.000 OA
ENDBRANCH  11  18
ENDBRANCH  10  14
ENDBRANCH   6  10
ENDBRANCH   1   8
BRANCH   3  19
ATOM     19  C   UNL     1       5.038   5.592  16.432  0.00  0.00    +0.000 C 
ATOM     20  C   UNL     1       4.837   4.101  16.090  0.00  0.00    +0.000 C 
ATOM     21  C   UNL     1       3.997   3.956  17.388  0.00  0.00    +0.000 C 
ATOM     22  C   UNL     1       3.803   5.495  17.360  0.00  0.00    +0.000 C 
BRANCH  21  23
ATOM     23  N   UNL     1       4.723   3.392  18.583  0.00  0.00    +0.000 NA
ATOM     24  H   UNL     1       5.101   4.112  19.199  0.00  0.00    +0.000 HD
BRANCH  23  25
ATOM     25  S   UNL     1       4.042   2.135  19.507  0.00  0.00    +0.000 S 
ATOM     26  C   UNL     1       2.707   2.995  20.310  0.00  0.00    +0.000 C 
ATOM     27  O   UNL     1       3.483   1.189  18.567  0.00  0.00    +0.000 OA
ATOM     28  O   UNL     1       5.015   1.745  20.501  0.00  0.00    +0.000 OA
ENDBRANCH  23  25
ENDBRANCH  21  23
ENDBRANCH   3  19
TORSDOF 7
ENDMDL
MODEL 5
REMARK VINA RESULT:      -7.7      5.934      8.936
REMARK  Name = 
REMARK  9 active torsions:
REMARK  status: ('A' for Active; 'I' for Inactive)
REMARK    1  A    between atoms: C_1  and  O_2
REMARK    2  A    between atoms: O_2  and  C_3
REMARK    3  A    between atoms: C_6  and  C_7
REMARK    4  A    between atoms: C_7  and  C_8
REMARK    5  A    between atoms: N_10  and  C_11
REMARK    6  A    between atoms: N_13  and  C_14
REMARK    7  A    between atoms: C_16  and  N_17
REMARK    8  A    between atoms: N_17  and  S_18
REMARK    9  A    between atoms: S_18  and  C_19
REMARK                            x       y       z     vdW  Elec       q    Type
REMARK                         _______ _______ _______ _____ _____    ______ ____
ROOT
ATOM      1  C   UNL     1       2.019   7.072  19.744  0.00  0.00    +0.000 A 
ATOM      2  C   UNL     1       2.453   6.285  18.700  0.00  0.00    +0.000 A 
ATOM      3  N   UNL     1       2.611   5.040  19.249  0.00  0.00    +0.000 N 
ATOM      4  C   UNL     1       2.169   5.093  20.537  0.00  0.00    +0.000 A 
ATOM      5  N   UNL     1       1.850   6.323  20.869  0.00  0.00    +0.000 NA
ENDROOT
BRANCH   1   8
ATOM      6  C   UNL     1       0.772   9.056  20.387  0.00  0.00    +0.000 C 
ATOM      7  O   UNL     1       0.076   8.560  21.270  0.00  0.00    +0.000 OA
ATOM      8  N   UNL     1       1.759   8.420  19.657  0.00  0.00    +0.000 N 
ATOM      9  H   UNL     1       2.373   8.971  19.079  0.00  0.00    +0.000 HD
BRANCH   6  10
ATOM     10  C   UNL     1       0.623  10.530  20.043  0.00  0.00    +0.000 C 
BRANCH  10  14
ATOM     11  C   UNL     1      -3.121  11.493  18.084  0.00  0.00    +0.000 A 
ATOM     12  C   UNL     1      -2.245  10.555  17.538  0.00  0.00    +0.000 A 
ATOM     13  C   UNL     1      -1.041  10.247  18.179  0.00  0.00    +0.000 A 
ATOM     14  C   UNL     1      -0.679  10.896  19.367  0.00  0.00    +0.000 A 
ATOM     15  C   UNL     1      -1.579  11.816  19.924  0.00  0.00    +0.000 A 
ATOM     16  C   UNL     1      -2.784  12.123  19.280  0.00  0.00    +0.000 A 
BRANCH  11  18
ATOM     17  C   UNL     1      -5.446  11.126  17.843  0.00  0.00    +0.000 C 
ATOM     18  O   UNL     1      -4.253  11.728  17.353  0.00  0.00    +0.000 OA
ENDBRANCH  11  18
ENDBRANCH  10  14
ENDBRANCH   6  10
ENDBRANCH   1   8
BRANCH   3  19
ATOM     19  C   UNL     1       3.033   3.846  18.564  0.00  0.00    +0.000 C 
ATOM     20  C   UNL     1       3.769   4.047  17.223  0.00  0.00    +0.000 C 
ATOM     21  C   UNL     1       5.115   3.909  17.985  0.00  0.00    +0.000 C 
ATOM     22  C   UNL     1       4.328   3.207  19.122  0.00  0.00    +0.000 C 
BRANCH  21  23
ATOM     23  N   UNL     1       5.806   5.201  18.343  0.00  0.00    +0.000 NA
ATOM     24  H   UNL     1       5.471   5.605  19.218  0.00  0.00    +0.000 HD
BRANCH  23  25
ATOM     25  S   UNL     1       7.499   5.343  18.248  0.00  0.00    +0.000 S 
ATOM     26  C   UNL     1       7.664   7.038  17.735  0.00  0.00    +0.000 C 
ATOM     27  O   UNL     1       7.999   5.217  19.599  0.00  0.00    +0.000 OA
ATOM     28  O   UNL     1       7.952   4.482  17.180  0.00  0.00    +0.000 OA
ENDBRANCH  23  25
ENDBRANCH  21  23
ENDBRANCH   3  19
TORSDOF 7
ENDMDL
MODEL 6
REMARK VINA RESULT:      -7.7      6.032      9.067
REMARK  Name = 
REMARK  9 active torsions:
REMARK  status: ('A' for Active; 'I' for Inactive)
REMARK    1  A    between atoms: C_1  and  O_2
REMARK    2  A    between atoms: O_2  and  C_3
REMARK    3  A    between atoms: C_6  and  C_7
REMARK    4  A    between atoms: C_7  and  C_8
REMARK    5  A    between atoms: N_10  and  C_11
REMARK    6  A    between atoms: N_13  and  C_14
REMARK    7  A    between atoms: C_16  and  N_17
REMARK    8  A    between atoms: N_17  and  S_18
REMARK    9  A    between atoms: S_18  and  C_19
REMARK                            x       y       z     vdW  Elec       q    Type
REMARK                         _______ _______ _______ _____ _____    ______ ____
ROOT
ATOM      1  C   UNL     1       2.155   7.427  19.021  0.00  0.00    +0.000 A 
ATOM      2  C   UNL     1       2.388   6.583  17.959  0.00  0.00    +0.000 A 
ATOM      3  N   UNL     1       2.812   5.414  18.534  0.00  0.00    +0.000 N 
ATOM      4  C   UNL     1       2.712   5.554  19.886  0.00  0.00    +0.000 A 
ATOM      5  N   UNL     1       2.360   6.779  20.202  0.00  0.00    +0.000 NA
ENDROOT
BRANCH   1   8
ATOM      6  C   UNL     1       0.845   9.328  19.781  0.00  0.00    +0.000 C 
ATOM      7  O   UNL     1       0.384   8.837  20.808  0.00  0.00    +0.000 OA
ATOM      8  N   UNL     1       1.740   8.735  18.910  0.00  0.00    +0.000 N 
ATOM      9  H   UNL     1       2.172   9.295  18.193  0.00  0.00    +0.000 HD
BRANCH   6  10
ATOM     10  C   UNL     1       0.477  10.751  19.389  0.00  0.00    +0.000 C 
BRANCH  10  14
ATOM     11  C   UNL     1      -3.520  11.309  17.809  0.00  0.00    +0.000 A 
ATOM     12  C   UNL     1      -3.092  12.002  18.942  0.00  0.00    +0.000 A 
ATOM     13  C   UNL     1      -1.800  11.818  19.442  0.00  0.00    +0.000 A 
ATOM     14  C   UNL     1      -0.920  10.915  18.832  0.00  0.00    +0.000 A 
ATOM     15  C   UNL     1      -1.348  10.246  17.676  0.00  0.00    +0.000 A 
ATOM     16  C   UNL     1      -2.643  10.430  17.177  0.00  0.00    +0.000 A 
BRANCH  11  18
ATOM     17  C   UNL     1      -5.821  10.992  18.263  0.00  0.00    +0.000 C 
ATOM     18  O   UNL     1      -4.811  11.553  17.431  0.00  0.00    +0.000 OA
ENDBRANCH  11  18
ENDBRANCH  10  14
ENDBRANCH   6  10
ENDBRANCH   1   8
BRANCH   3  19
ATOM     19  C   UNL     1       3.170   4.199  17.849  0.00  0.00    +0.000 C 
ATOM     20  C   UNL     1       4.378   4.280  16.892  0.00  0.00    +0.000 C 
ATOM     21  C   UNL     1       5.271   3.725  18.034  0.00  0.00    +0.000 C 
ATOM     22  C   UNL     1       3.977   3.191  18.703  0.00  0.00    +0.000 C 
BRANCH  21  23
ATOM     23  N   UNL     1       6.058   4.748  18.813  0.00  0.00    +0.000 NA
ATOM     24  H   UNL     1       5.997   4.616  19.824  0.00  0.00    +0.000 HD
BRANCH  23  25
ATOM     25  S   UNL     1       7.654   5.144  18.375  0.00  0.00    +0.000 S 
ATOM     26  C   UNL     1       7.424   6.780  17.715  0.00  0.00    +0.000 C 
ATOM     27  O   UNL     1       8.407   5.243  19.606  0.00  0.00    +0.000 OA
ATOM     28  O   UNL     1       8.048   4.257  17.305  0.00  0.00    +0.000 OA
ENDBRANCH  23  25
ENDBRANCH  21  23
ENDBRANCH   3  19
TORSDOF 7
ENDMDL
MODEL 7
REMARK VINA RESULT:      -7.7      0.853      1.412
REMARK  Name = 
REMARK  9 active torsions:
REMARK  status: ('A' for Active; 'I' for Inactive)
REMARK    1  A    between atoms: C_1  and  O_2
REMARK    2  A    between atoms: O_2  and  C_3
REMARK    3  A    between atoms: C_6  and  C_7
REMARK    4  A    between atoms: C_7  and  C_8
REMARK    5  A    between atoms: N_10  and  C_11
REMARK    6  A    between atoms: N_13  and  C_14
REMARK    7  A    between atoms: C_16  and  N_17
REMARK    8  A    between atoms: N_17  and  S_18
REMARK    9  A    between atoms: S_18  and  C_19
REMARK                            x       y       z     vdW  Elec       q    Type
REMARK                         _______ _______ _______ _____ _____    ______ ____
ROOT
ATOM      1  C   UNL     1       8.198   7.134  18.538  0.00  0.00    +0.000 A 
ATOM      2  C   UNL     1       7.575   7.153  17.310  0.00  0.00    +0.000 A 
ATOM      3  N   UNL     1       7.222   5.849  17.082  0.00  0.00    +0.000 N 
ATOM      4  C   UNL     1       7.533   5.131  18.198  0.00  0.00    +0.000 A 
ATOM      5  N   UNL     1       8.166   5.881  19.071  0.00  0.00    +0.000 NA
ENDROOT
BRANCH   1   8
ATOM      6  C   UNL     1       8.676   9.514  18.646  0.00  0.00    +0.000 C 
ATOM      7  O   UNL     1       8.041   9.876  17.659  0.00  0.00    +0.000 OA
ATOM      8  N   UNL     1       8.749   8.232  19.157  0.00  0.00    +0.000 N 
ATOM      9  H   UNL     1       9.166   8.089  20.063  0.00  0.00    +0.000 HD
BRANCH   6  10
ATOM     10  C   UNL     1       9.444  10.536  19.470  0.00  0.00    +0.000 C 
BRANCH  10  14
ATOM     11  C   UNL     1      10.852  14.021  17.314  0.00  0.00    +0.000 A 
ATOM     12  C   UNL     1       9.710  14.083  18.111  0.00  0.00    +0.000 A 
ATOM     13  C   UNL     1       9.265  12.955  18.807  0.00  0.00    +0.000 A 
ATOM     14  C   UNL     1       9.942  11.734  18.693  0.00  0.00    +0.000 A 
ATOM     15  C   UNL     1      11.107  11.689  17.914  0.00  0.00    +0.000 A 
ATOM     16  C   UNL     1      11.551  12.819  17.217  0.00  0.00    +0.000 A 
BRANCH  11  18
ATOM     17  C   UNL     1      11.943  16.119  17.408  0.00  0.00    +0.000 C 
ATOM     18  O   UNL     1      11.173  15.181  16.664  0.00  0.00    +0.000 OA
ENDBRANCH  11  18
ENDBRANCH  10  14
ENDBRANCH   6  10
ENDBRANCH   1   8
BRANCH   3  19
ATOM     19  C   UNL     1       6.522   5.336  15.933  0.00  0.00    +0.000 C 
ATOM     20  C   UNL     1       6.040   3.873  16.018  0.00  0.00    +0.000 C 
ATOM     21  C   UNL     1       4.645   4.397  16.450  0.00  0.00    +0.000 C 
ATOM     22  C   UNL     1       5.038   5.767  15.837  0.00  0.00    +0.000 C 
BRANCH  21  23
ATOM     23  N   UNL     1       4.362   4.380  17.931  0.00  0.00    +0.000 NA
ATOM     24  H   UNL     1       4.786   5.164  18.429  0.00  0.00    +0.000 HD
BRANCH  23  25
ATOM     25  S   UNL     1       2.790   4.099  18.519  0.00  0.00    +0.000 S 
ATOM     26  C   UNL     1       2.589   2.375  18.130  0.00  0.00    +0.000 C 
ATOM     27  O   UNL     1       2.857   4.245  19.957  0.00  0.00    +0.000 OA
ATOM     28  O   UNL     1       1.875   4.873  17.712  0.00  0.00    +0.000 OA
ENDBRANCH  23  25
ENDBRANCH  21  23
ENDBRANCH   3  19
TORSDOF 7
ENDMDL
MODEL 8
REMARK VINA RESULT:      -7.6      6.396      9.344
REMARK  Name = 
REMARK  9 active torsions:
REMARK  status: ('A' for Active; 'I' for Inactive)
REMARK    1  A    between atoms: C_1  and  O_2
REMARK    2  A    between atoms: O_2  and  C_3
REMARK    3  A    between atoms: C_6  and  C_7
REMARK    4  A    between atoms: C_7  and  C_8
REMARK    5  A    between atoms: N_10  and  C_11
REMARK    6  A    between atoms: N_13  and  C_14
REMARK    7  A    between atoms: C_16  and  N_17
REMARK    8  A    between atoms: N_17  and  S_18
REMARK    9  A    between atoms: S_18  and  C_19
REMARK                            x       y       z     vdW  Elec       q    Type
REMARK                         _______ _______ _______ _____ _____    ______ ____
ROOT
ATOM      1  C   UNL     1       1.684   9.294  18.126  0.00  0.00    +0.000 A 
ATOM      2  C   UNL     1       0.675   9.835  18.891  0.00  0.00    +0.000 A 
ATOM      3  N   UNL     1       0.961  11.174  18.943  0.00  0.00    +0.000 N 
ATOM      4  C   UNL     1       2.036  11.403  18.137  0.00  0.00    +0.000 A 
ATOM      5  N   UNL     1       2.515  10.272  17.669  0.00  0.00    +0.000 NA
ENDROOT
BRANCH   1   8
ATOM      6  C   UNL     1       2.323   7.027  18.723  0.00  0.00    +0.000 C 
ATOM      7  O   UNL     1       2.615   7.221  19.901  0.00  0.00    +0.000 OA
ATOM      8  N   UNL     1       1.818   7.956  17.833  0.00  0.00    +0.000 N 
ATOM      9  H   UNL     1       1.463   7.642  16.944  0.00  0.00    +0.000 HD
BRANCH   6  10
ATOM     10  C   UNL     1       2.457   5.634  18.128  0.00  0.00    +0.000 C 
BRANCH  10  14
ATOM     11  C   UNL     1       6.206   4.969  16.057  0.00  0.00    +0.000 A 
ATOM     12  C   UNL     1       5.827   6.248  16.463  0.00  0.00    +0.000 A 
ATOM     13  C   UNL     1       4.618   6.453  17.134  0.00  0.00    +0.000 A 
ATOM     14  C   UNL     1       3.751   5.382  17.387  0.00  0.00    +0.000 A 
ATOM     15  C   UNL     1       4.154   4.095  17.001  0.00  0.00    +0.000 A 
ATOM     16  C   UNL     1       5.365   3.891  16.329  0.00  0.00    +0.000 A 
BRANCH  11  18
ATOM     17  C   UNL     1       7.315   4.925  13.967  0.00  0.00    +0.000 C 
ATOM     18  O   UNL     1       7.396   4.898  15.388  0.00  0.00    +0.000 OA
ENDBRANCH  11  18
ENDBRANCH  10  14
ENDBRANCH   6  10
ENDBRANCH   1   8
BRANCH   3  19
ATOM     19  C   UNL     1       0.194  12.192  19.613  0.00  0.00    +0.000 C 
ATOM     20  C   UNL     1      -0.251  13.394  18.753  0.00  0.00    +0.000 C 
ATOM     21  C   UNL     1      -1.624  12.696  18.557  0.00  0.00    +0.000 C 
ATOM     22  C   UNL     1      -1.301  11.845  19.813  0.00  0.00    +0.000 C 
BRANCH  21  23
ATOM     23  N   UNL     1      -1.803  11.944  17.263  0.00  0.00    +0.000 NA
ATOM     24  H   UNL     1      -0.964  11.438  16.974  0.00  0.00    +0.000 HD
BRANCH  23  25
ATOM     25  S   UNL     1      -3.182  10.986  16.990  0.00  0.00    +0.000 S 
ATOM     26  C   UNL     1      -3.104  10.779  15.225  0.00  0.00    +0.000 C 
ATOM     27  O   UNL     1      -2.927   9.708  17.618  0.00  0.00    +0.000 OA
ATOM     28  O   UNL     1      -4.342  11.783  17.319  0.00  0.00    +0.000 OA
ENDBRANCH  23  25
ENDBRANCH  21  23
ENDBRANCH   3  19
TORSDOF 7
ENDMDL
MODEL 9
REMARK VINA RESULT:      -7.6      1.144      1.357
REMARK  Name = 
REMARK  9 active torsions:
REMARK  status: ('A' for Active; 'I' for Inactive)
REMARK    1  A    between atoms: C_1  and  O_2
REMARK    2  A    between atoms: O_2  and  C_3
REMARK    3  A    between atoms: C_6  and  C_7
REMARK    4  A    between atoms: C_7  and  C_8
REMARK    5  A    between atoms: N_10  and  C_11
REMARK    6  A    between atoms: N_13  and  C_14
REMARK    7  A    between atoms: C_16  and  N_17
REMARK    8  A    between atoms: N_17  and  S_18
REMARK    9  A    between atoms: S_18  and  C_19
REMARK                            x       y       z     vdW  Elec       q    Type
REMARK                         _______ _______ _______ _____ _____    ______ ____
ROOT
ATOM      1  C   UNL     1       8.143   7.246  18.570  0.00  0.00    +0.000 A 
ATOM      2  C   UNL     1       7.159   7.364  17.614  0.00  0.00    +0.000 A 
ATOM      3  N   UNL     1       6.836   6.072  17.290  0.00  0.00    +0.000 N 
ATOM      4  C   UNL     1       7.534   5.247  18.120  0.00  0.00    +0.000 A 
ATOM      5  N   UNL     1       8.364   5.936  18.870  0.00  0.00    +0.000 NA
ENDROOT
BRANCH   1   8
ATOM      6  C   UNL     1       8.744   9.598  18.684  0.00  0.00    +0.000 C 
ATOM      7  O   UNL     1       8.056  10.011  17.754  0.00  0.00    +0.000 OA
ATOM      8  N   UNL     1       8.793   8.303  19.165  0.00  0.00    +0.000 N 
ATOM      9  H   UNL     1       9.268   8.121  20.034  0.00  0.00    +0.000 HD
BRANCH   6  10
ATOM     10  C   UNL     1       9.621  10.564  19.465  0.00  0.00    +0.000 C 
BRANCH  10  14
ATOM     11  C   UNL     1      10.645  14.167  17.284  0.00  0.00    +0.000 A 
ATOM     12  C   UNL     1      11.321  12.969  17.050  0.00  0.00    +0.000 A 
ATOM     13  C   UNL     1      10.981  11.810  17.755  0.00  0.00    +0.000 A 
ATOM     14  C   UNL     1       9.975  11.838  18.730  0.00  0.00    +0.000 A 
ATOM     15  C   UNL     1       9.281  13.039  18.937  0.00  0.00    +0.000 A 
ATOM     16  C   UNL     1       9.623  14.198  18.230  0.00  0.00    +0.000 A 
BRANCH  11  18
ATOM     17  C   UNL     1      10.667  16.517  17.010  0.00  0.00    +0.000 C 
ATOM     18  O   UNL     1      11.084  15.235  16.552  0.00  0.00    +0.000 OA
ENDBRANCH  11  18
ENDBRANCH  10  14
ENDBRANCH   6  10
ENDBRANCH   1   8
BRANCH   3  19
ATOM     19  C   UNL     1       5.838   5.648  16.343  0.00  0.00    +0.000 C 
ATOM     20  C   UNL     1       5.557   4.132  16.275  0.00  0.00    +0.000 C 
ATOM     21  C   UNL     1       4.349   4.353  17.224  0.00  0.00    +0.000 C 
ATOM     22  C   UNL     1       4.377   5.848  16.812  0.00  0.00    +0.000 C 
BRANCH  21  23
ATOM     23  N   UNL     1       4.591   4.052  18.682  0.00  0.00    +0.000 NA
ATOM     24  H   UNL     1       4.553   4.882  19.274  0.00  0.00    +0.000 HD
BRANCH  23  25
ATOM     25  S   UNL     1       3.804   2.753  19.450  0.00  0.00    +0.000 S 
ATOM     26  C   UNL     1       3.340   1.764  18.047  0.00  0.00    +0.000 C 
ATOM     27  O   UNL     1       4.817   2.045  20.201  0.00  0.00    +0.000 OA
ATOM     28  O   UNL     1       2.610   3.273  20.076  0.00  0.00    +0.000 OA
ENDBRANCH  23  25
ENDBRANCH  21  23
ENDBRANCH   3  19
TORSDOF 7
ENDMDL
