MODEL 1
REMARK VINA RESULT:      -7.6      0.000      0.000
REMARK  Name = 
REMARK  8 active torsions:
REMARK  status: ('A' for Active; 'I' for Inactive)
REMARK    1  A    between atoms: C_1  and  O_2
REMARK    2  A    between atoms: O_2  and  C_3
REMARK    3  A    between atoms: C_5  and  N_6
REMARK    4  A    between atoms: C_10  and  C_11
REMARK    5  A    between atoms: N_13  and  C_14
REMARK    6  A    between atoms: C_14  and  C_15
REMARK    7  A    between atoms: N_17  and  C_18
REMARK    8  A    between atoms: C_18  and  C_19
REMARK                            x       y       z     vdW  Elec       q    Type
REMARK                         _______ _______ _______ _____ _____    ______ ____
ROOT
ATOM      1  C   UNL     1       2.018   6.217  20.094  0.00  0.00    +0.000 C 
ATOM      2  O   UNL     1       1.421   5.470  20.863  0.00  0.00    +0.000 OA
ATOM      3  N   UNL     1       2.026   7.583  20.260  0.00  0.00    +0.000 N 
ATOM      4  H   UNL     1       2.507   8.142  19.562  0.00  0.00    +0.000 HD
ENDROOT
BRANCH   1  11
ATOM      5  C   UNL     1       2.356   4.517  18.177  0.00  0.00    +0.000 A 
ATOM      6  C   UNL     1       3.150   4.068  17.106  0.00  0.00    +0.000 A 
ATOM      7  C   UNL     1       4.329   4.727  16.737  0.00  0.00    +0.000 A 
ATOM      8  C   UNL     1       4.744   5.822  17.509  0.00  0.00    +0.000 A 
ATOM      9 CL   UNL     1       6.223   6.642  17.145  0.00  0.00    +0.000 Cl
ATOM     10  C   UNL     1       3.962   6.292  18.565  0.00  0.00    +0.000 A 
ATOM     11  C   UNL     1       2.759   5.650  18.912  0.00  0.00    +0.000 A 
BRANCH   7  12
ATOM     12  N   UNL     1       5.164   4.140  15.769  0.00  0.00    +0.000 N 
ATOM     13  H   UNL     1       4.800   4.150  14.821  0.00  0.00    +0.000 HD
ATOM     14  H   UNL     1       6.128   4.467  15.824  0.00  0.00    +0.000 HD
ENDBRANCH   7  12
BRANCH   5  16
ATOM     15  C   UNL     1       1.250   2.523  18.880  0.00  0.00    +0.000 C 
ATOM     16  O   UNL     1       1.179   3.902  18.528  0.00  0.00    +0.000 OA
ENDBRANCH   5  16
ENDBRANCH   1  11
BRANCH   3  17
ATOM     17  C   UNL     1       1.316   8.262  21.333  0.00  0.00    +0.000 C 
BRANCH  17  18
ATOM     18  C   UNL     1       0.515   9.489  20.872  0.00  0.00    +0.000 C 
ATOM     19  C   UNL     1       0.648   9.725  19.348  0.00  0.00    +0.000 C 
ATOM     20  N   UNL     1      -0.115  10.905  18.866  0.00  0.00    +0.000 NA
ATOM     21  C   UNL     1       0.320  12.066  19.674  0.00  0.00    +0.000 C 
ATOM     22  C   UNL     1       0.263  11.830  21.192  0.00  0.00    +0.000 C 
ATOM     23  O   UNL     1       0.994  10.654  21.577  0.00  0.00    +0.000 OA
BRANCH  20  24
ATOM     24  C   UNL     1      -1.566  10.640  18.959  0.00  0.00    +0.000 C 
BRANCH  24  25
ATOM     25  C   UNL     1      -2.254  10.512  17.618  0.00  0.00    +0.000 A 
ATOM     26  C   UNL     1      -1.800   9.589  16.665  0.00  0.00    +0.000 A 
ATOM     27  C   UNL     1      -2.431   9.494  15.423  0.00  0.00    +0.000 A 
ATOM     28  C   UNL     1      -3.517  10.317  15.132  0.00  0.00    +0.000 A 
ATOM     29 CL   UNL     1      -4.276  10.218  13.590  0.00  0.00    +0.000 Cl
ATOM     30  C   UNL     1      -3.988  11.228  16.073  0.00  0.00    +0.000 A 
ATOM     31  C   UNL     1      -3.359  11.323  17.316  0.00  0.00    +0.000 A 
ENDBRANCH  24  25
ENDBRANCH  20  24
ENDBRANCH  17  18
ENDBRANCH   3  17
TORSDOF 7
ENDMDL
MODEL 2
REMARK VINA RESULT:      -7.6      3.319      7.903
REMARK  Name = 
REMARK  8 active torsions:
REMARK  status: ('A' for Active; 'I' for Inactive)
REMARK    1  A    between atoms: C_1  and  O_2
REMARK    2  A    between atoms: O_2  and  C_3
REMARK    3  A    between atoms: C_5  and  N_6
REMARK    4  A    between atoms: C_10  and  C_11
REMARK    5  A    between atoms: N_13  and  C_14
REMARK    6  A    between atoms: C_14  and  C_15
REMARK    7  A    between atoms: N_17  and  C_18
REMARK    8  A    between atoms: C_18  and  C_19
REMARK                            x       y       z     vdW  Elec       q    Type
REMARK                         _______ _______ _______ _____ _____    ______ ____
ROOT
ATOM      1  C   UNL     1       0.996   7.939  20.764  0.00  0.00    +0.000 C 
ATOM      2  O   UNL     1       0.117   7.831  21.613  0.00  0.00    +0.000 OA
ATOM      3  N   UNL     1       1.883   6.920  20.498  0.00  0.00    +0.000 N 
ATOM      4  H   UNL     1       2.611   7.094  19.812  0.00  0.00    +0.000 HD
ENDROOT
BRANCH   1  11
ATOM      5  C   UNL     1       1.592   9.303  18.652  0.00  0.00    +0.000 A 
ATOM      6  C   UNL     1       1.715  10.565  18.042  0.00  0.00    +0.000 A 
ATOM      7  C   UNL     1       1.391  11.746  18.720  0.00  0.00    +0.000 A 
ATOM      8  C   UNL     1       0.996  11.650  20.063  0.00  0.00    +0.000 A 
ATOM      9 CL   UNL     1       0.642  13.075  20.977  0.00  0.00    +0.000 Cl
ATOM     10  C   UNL     1       0.853  10.407  20.681  0.00  0.00    +0.000 A 
ATOM     11  C   UNL     1       1.145   9.219  19.987  0.00  0.00    +0.000 A 
BRANCH   7  12
ATOM     12  N   UNL     1       1.688  12.981  18.118  0.00  0.00    +0.000 N 
ATOM     13  H   UNL     1       0.883  13.546  17.867  0.00  0.00    +0.000 HD
ATOM     14  H   UNL     1       2.397  13.511  18.625  0.00  0.00    +0.000 HD
ENDBRANCH   7  12
BRANCH   5  16
ATOM     15  C   UNL     1       3.196   7.978  17.482  0.00  0.00    +0.000 C 
ATOM     16  O   UNL     1       1.873   8.134  17.988  0.00  0.00    +0.000 OA
ENDBRANCH   5  16
ENDBRANCH   1  11
BRANCH   3  17
ATOM     17  C   UNL     1       1.876   5.650  21.206  0.00  0.00    +0.000 C 
BRANCH  17  18
ATOM     18  C   UNL     1       2.188   4.438  20.315  0.00  0.00    +0.000 C 
ATOM     19  C   UNL     1       2.214   4.817  18.814  0.00  0.00    +0.000 C 
ATOM     20  N   UNL     1       2.514   3.668  17.921  0.00  0.00    +0.000 NA
ATOM     21  C   UNL     1       1.533   2.605  18.234  0.00  0.00    +0.000 C 
ATOM     22  C   UNL     1       1.438   2.260  19.730  0.00  0.00    +0.000 C 
ATOM     23  O   UNL     1       1.182   3.425  20.531  0.00  0.00    +0.000 OA
BRANCH  20  24
ATOM     24  C   UNL     1       3.916   3.239  18.103  0.00  0.00    +0.000 C 
BRANCH  24  25
ATOM     25  C   UNL     1       4.926   4.351  17.926  0.00  0.00    +0.000 A 
ATOM     26  C   UNL     1       5.698   4.798  19.009  0.00  0.00    +0.000 A 
ATOM     27  C   UNL     1       6.612   5.839  18.837  0.00  0.00    +0.000 A 
ATOM     28  C   UNL     1       6.760   6.434  17.586  0.00  0.00    +0.000 A 
ATOM     29 CL   UNL     1       7.868   7.736  17.383  0.00  0.00    +0.000 Cl
ATOM     30  C   UNL     1       6.012   5.991  16.499  0.00  0.00    +0.000 A 
ATOM     31  C   UNL     1       5.099   4.949  16.668  0.00  0.00    +0.000 A 
ENDBRANCH  24  25
ENDBRANCH  20  24
ENDBRANCH  17  18
ENDBRANCH   3  17
TORSDOF 7
ENDMDL
MODEL 3
REMARK VINA RESULT:      -7.4      3.254      4.532
REMARK  Name = 
REMARK  8 active torsions:
REMARK  status: ('A' for Active; 'I' for Inactive)
REMARK    1  A    between atoms: C_1  and  O_2
REMARK    2  A    between atoms: O_2  and  C_3
REMARK    3  A    between atoms: C_5  and  N_6
REMARK    4  A    between atoms: C_10  and  C_11
REMARK    5  A    between atoms: N_13  and  C_14
REMARK    6  A    between atoms: C_14  and  C_15
REMARK    7  A    between atoms: N_17  and  C_18
REMARK    8  A    between atoms: C_18  and  C_19
REMARK                            x       y       z     vdW  Elec       q    Type
REMARK                         _______ _______ _______ _____ _____    ______ ____
ROOT
ATOM      1  C   UNL     1       2.787   5.578  20.133  0.00  0.00    +0.000 C 
ATOM      2  O   UNL     1       2.561   4.868  21.107  0.00  0.00    +0.000 OA
ATOM      3  N   UNL     1       2.294   6.859  20.032  0.00  0.00    +0.000 N 
ATOM      4  H   UNL     1       2.485   7.374  19.179  0.00  0.00    +0.000 HD
ENDROOT
BRANCH   1  11
ATOM      5  C   UNL     1       3.088   4.379  17.863  0.00  0.00    +0.000 A 
ATOM      6  C   UNL     1       3.965   3.911  16.868  0.00  0.00    +0.000 A 
ATOM      7  C   UNL     1       5.349   4.107  16.955  0.00  0.00    +0.000 A 
ATOM      8  C   UNL     1       5.857   4.732  18.102  0.00  0.00    +0.000 A 
ATOM      9 CL   UNL     1       7.562   4.949  18.300  0.00  0.00    +0.000 Cl
ATOM     10  C   UNL     1       5.003   5.218  19.093  0.00  0.00    +0.000 A 
ATOM     11  C   UNL     1       3.610   5.052  18.987  0.00  0.00    +0.000 A 
BRANCH   7  12
ATOM     12  N   UNL     1       6.186   3.476  16.017  0.00  0.00    +0.000 N 
ATOM     13  H   UNL     1       6.388   2.499  16.205  0.00  0.00    +0.000 HD
ATOM     14  H   UNL     1       5.898   3.639  15.053  0.00  0.00    +0.000 HD
ENDBRANCH   7  12
BRANCH   5  16
ATOM     15  C   UNL     1       1.160   3.086  18.417  0.00  0.00    +0.000 C 
ATOM     16  O   UNL     1       1.726   4.225  17.775  0.00  0.00    +0.000 OA
ENDBRANCH   5  16
ENDBRANCH   1  11
BRANCH   3  17
ATOM     17  C   UNL     1       1.451   7.473  21.047  0.00  0.00    +0.000 C 
BRANCH  17  18
ATOM     18  C   UNL     1       1.108   8.944  20.766  0.00  0.00    +0.000 C 
ATOM     19  C   UNL     1      -0.376   9.259  21.076  0.00  0.00    +0.000 C 
ATOM     20  N   UNL     1      -0.744  10.675  20.816  0.00  0.00    +0.000 NA
ATOM     21  C   UNL     1      -0.366  10.974  19.417  0.00  0.00    +0.000 C 
ATOM     22  C   UNL     1       1.084  10.603  19.065  0.00  0.00    +0.000 C 
ATOM     23  O   UNL     1       1.374   9.230  19.376  0.00  0.00    +0.000 OA
BRANCH  20  24
ATOM     24  C   UNL     1      -0.082  11.557  21.799  0.00  0.00    +0.000 C 
BRANCH  24  25
ATOM     25  C   UNL     1      -1.031  12.475  22.537  0.00  0.00    +0.000 A 
ATOM     26  C   UNL     1      -0.705  13.822  22.751  0.00  0.00    +0.000 A 
ATOM     27  C   UNL     1      -1.581  14.654  23.452  0.00  0.00    +0.000 A 
ATOM     28  C   UNL     1      -2.783  14.144  23.938  0.00  0.00    +0.000 A 
ATOM     29 CL   UNL     1      -3.849  15.164  24.826  0.00  0.00    +0.000 Cl
ATOM     30  C   UNL     1      -3.127  12.812  23.721  0.00  0.00    +0.000 A 
ATOM     31  C   UNL     1      -2.254  11.980  23.019  0.00  0.00    +0.000 A 
ENDBRANCH  24  25
ENDBRANCH  20  24
ENDBRANCH  17  18
ENDBRANCH   3  17
TORSDOF 7
ENDMDL
MODEL 4
REMARK VINA RESULT:      -7.4      2.584      8.081
REMARK  Name = 
REMARK  8 active torsions:
REMARK  status: ('A' for Active; 'I' for Inactive)
REMARK    1  A    between atoms: C_1  and  O_2
REMARK    2  A    between atoms: O_2  and  C_3
REMARK    3  A    between atoms: C_5  and  N_6
REMARK    4  A    between atoms: C_10  and  C_11
REMARK    5  A    between atoms: N_13  and  C_14
REMARK    6  A    between atoms: C_14  and  C_15
REMARK    7  A    between atoms: N_17  and  C_18
REMARK    8  A    between atoms: C_18  and  C_19
REMARK                            x       y       z     vdW  Elec       q    Type
REMARK                         _______ _______ _______ _____ _____    ______ ____
ROOT
ATOM      1  C   UNL     1       1.122   8.501  21.005  0.00  0.00    +0.000 C 
ATOM      2  O   UNL     1       1.613   8.808  22.087  0.00  0.00    +0.000 OA
ATOM      3  N   UNL     1       1.244   7.234  20.481  0.00  0.00    +0.000 N 
ATOM      4  H   UNL     1       0.849   7.062  19.562  0.00  0.00    +0.000 HD
ENDROOT
BRANCH   1  11
ATOM      5  C   UNL     1       0.425   9.635  18.790  0.00  0.00    +0.000 A 
ATOM      6  C   UNL     1      -0.301  10.654  18.149  0.00  0.00    +0.000 A 
ATOM      7  C   UNL     1      -1.089  11.561  18.867  0.00  0.00    +0.000 A 
ATOM      8  C   UNL     1      -1.090  11.472  20.267  0.00  0.00    +0.000 A 
ATOM      9 CL   UNL     1      -1.993  12.600  21.217  0.00  0.00    +0.000 Cl
ATOM     10  C   UNL     1      -0.389  10.457  20.921  0.00  0.00    +0.000 A 
ATOM     11  C   UNL     1       0.374   9.525  20.195  0.00  0.00    +0.000 A 
BRANCH   7  12
ATOM     12  N   UNL     1      -1.659  12.655  18.191  0.00  0.00    +0.000 N 
ATOM     13  H   UNL     1      -1.781  13.494  18.749  0.00  0.00    +0.000 HD
ATOM     14  H   UNL     1      -1.214  12.842  17.293  0.00  0.00    +0.000 HD
ENDBRANCH   7  12
BRANCH   5  16
ATOM     15  C   UNL     1       2.495   9.105  17.728  0.00  0.00    +0.000 C 
ATOM     16  O   UNL     1       1.175   8.717  18.096  0.00  0.00    +0.000 OA
ENDBRANCH   5  16
ENDBRANCH   1  11
BRANCH   3  17
ATOM     17  C   UNL     1       1.978   6.164  21.140  0.00  0.00    +0.000 C 
BRANCH  17  18
ATOM     18  C   UNL     1       2.172   4.913  20.268  0.00  0.00    +0.000 C 
ATOM     19  C   UNL     1       2.111   5.248  18.758  0.00  0.00    +0.000 C 
ATOM     20  N   UNL     1       2.297   4.061  17.884  0.00  0.00    +0.000 NA
ATOM     21  C   UNL     1       1.293   3.054  18.297  0.00  0.00    +0.000 C 
ATOM     22  C   UNL     1       1.286   2.758  19.806  0.00  0.00    +0.000 C 
ATOM     23  O   UNL     1       1.139   3.956  20.585  0.00  0.00    +0.000 OA
BRANCH  20  24
ATOM     24  C   UNL     1       3.688   3.572  17.984  0.00  0.00    +0.000 C 
BRANCH  24  25
ATOM     25  C   UNL     1       4.731   4.659  17.857  0.00  0.00    +0.000 A 
ATOM     26  C   UNL     1       4.727   5.532  16.759  0.00  0.00    +0.000 A 
ATOM     27  C   UNL     1       5.708   6.520  16.643  0.00  0.00    +0.000 A 
ATOM     28  C   UNL     1       6.692   6.638  17.623  0.00  0.00    +0.000 A 
ATOM     29 CL   UNL     1       7.917   7.838  17.464  0.00  0.00    +0.000 Cl
ATOM     30  C   UNL     1       6.700   5.789  18.726  0.00  0.00    +0.000 A 
ATOM     31  C   UNL     1       5.719   4.803  18.844  0.00  0.00    +0.000 A 
ENDBRANCH  24  25
ENDBRANCH  20  24
ENDBRANCH  17  18
ENDBRANCH   3  17
TORSDOF 7
ENDMDL
MODEL 5
REMARK VINA RESULT:      -7.3      3.751      5.157
REMARK  Name = 
REMARK  8 active torsions:
REMARK  status: ('A' for Active; 'I' for Inactive)
REMARK    1  A    between atoms: C_1  and  O_2
REMARK    2  A    between atoms: O_2  and  C_3
REMARK    3  A    between atoms: C_5  and  N_6
REMARK    4  A    between atoms: C_10  and  C_11
REMARK    5  A    between atoms: N_13  and  C_14
REMARK    6  A    between atoms: C_14  and  C_15
REMARK    7  A    between atoms: N_17  and  C_18
REMARK    8  A    between atoms: C_18  and  C_19
REMARK                            x       y       z     vdW  Elec       q    Type
REMARK                         _______ _______ _______ _____ _____    ______ ____
ROOT
ATOM      1  C   UNL     1       2.504   8.189  18.092  0.00  0.00    +0.000 C 
ATOM      2  O   UNL     1       2.439   8.787  17.023  0.00  0.00    +0.000 OA
ATOM      3  N   UNL     1       1.806   8.602  19.204  0.00  0.00    +0.000 N 
ATOM      4  H   UNL     1       1.940   8.084  20.067  0.00  0.00    +0.000 HD
ENDROOT
BRANCH   1  11
ATOM      5  C   UNL     1       3.176   5.931  19.154  0.00  0.00    +0.000 A 
ATOM      6  C   UNL     1       4.083   4.857  19.201  0.00  0.00    +0.000 A 
ATOM      7  C   UNL     1       5.183   4.785  18.338  0.00  0.00    +0.000 A 
ATOM      8  C   UNL     1       5.403   5.853  17.456  0.00  0.00    +0.000 A 
ATOM      9 CL   UNL     1       6.779   5.855  16.408  0.00  0.00    +0.000 Cl
ATOM     10  C   UNL     1       4.506   6.919  17.384  0.00  0.00    +0.000 A 
ATOM     11  C   UNL     1       3.381   6.973  18.227  0.00  0.00    +0.000 A 
BRANCH   7  12
ATOM     12  N   UNL     1       6.143   3.777  18.541  0.00  0.00    +0.000 N 
ATOM     13  H   UNL     1       5.827   2.832  18.344  0.00  0.00    +0.000 HD
ATOM     14  H   UNL     1       7.041   3.990  18.108  0.00  0.00    +0.000 HD
ENDBRANCH   7  12
BRANCH   5  16
ATOM     15  C   UNL     1       1.767   4.841  20.744  0.00  0.00    +0.000 C 
ATOM     16  O   UNL     1       2.073   5.998  19.971  0.00  0.00    +0.000 OA
ENDBRANCH   5  16
ENDBRANCH   1  11
BRANCH   3  17
ATOM     17  C   UNL     1       0.958   9.784  19.222  0.00  0.00    +0.000 C 
BRANCH  17  18
ATOM     18  C   UNL     1       0.076   9.900  20.474  0.00  0.00    +0.000 C 
ATOM     19  C   UNL     1       0.465  11.120  21.344  0.00  0.00    +0.000 C 
ATOM     20  N   UNL     1      -0.369  11.263  22.565  0.00  0.00    +0.000 NA
ATOM     21  C   UNL     1      -0.294   9.980  23.298  0.00  0.00    +0.000 C 
ATOM     22  C   UNL     1      -0.608   8.746  22.436  0.00  0.00    +0.000 C 
ATOM     23  O   UNL     1       0.213   8.695  21.257  0.00  0.00    +0.000 OA
BRANCH  20  24
ATOM     24  C   UNL     1      -1.748  11.642  22.193  0.00  0.00    +0.000 C 
BRANCH  24  25
ATOM     25  C   UNL     1      -2.264  12.867  22.914  0.00  0.00    +0.000 A 
ATOM     26  C   UNL     1      -1.709  14.131  22.668  0.00  0.00    +0.000 A 
ATOM     27  C   UNL     1      -2.181  15.251  23.356  0.00  0.00    +0.000 A 
ATOM     28  C   UNL     1      -3.207  15.112  24.288  0.00  0.00    +0.000 A 
ATOM     29 CL   UNL     1      -3.768  16.489  25.156  0.00  0.00    +0.000 Cl
ATOM     30  C   UNL     1      -3.778  13.865  24.532  0.00  0.00    +0.000 A 
ATOM     31  C   UNL     1      -3.309  12.745  23.844  0.00  0.00    +0.000 A 
ENDBRANCH  24  25
ENDBRANCH  20  24
ENDBRANCH  17  18
ENDBRANCH   3  17
TORSDOF 7
ENDMDL
MODEL 6
REMARK VINA RESULT:      -7.3      3.965      5.416
REMARK  Name = 
REMARK  8 active torsions:
REMARK  status: ('A' for Active; 'I' for Inactive)
REMARK    1  A    between atoms: C_1  and  O_2
REMARK    2  A    between atoms: O_2  and  C_3
REMARK    3  A    between atoms: C_5  and  N_6
REMARK    4  A    between atoms: C_10  and  C_11
REMARK    5  A    between atoms: N_13  and  C_14
REMARK    6  A    between atoms: C_14  and  C_15
REMARK    7  A    between atoms: N_17  and  C_18
REMARK    8  A    between atoms: C_18  and  C_19
REMARK                            x       y       z     vdW  Elec       q    Type
REMARK                         _______ _______ _______ _____ _____    ______ ____
ROOT
ATOM      1  C   UNL     1       2.777   7.149  18.203  0.00  0.00    +0.000 C 
ATOM      2  O   UNL     1       3.200   7.834  17.277  0.00  0.00    +0.000 OA
ATOM      3  N   UNL     1       1.975   7.672  19.192  0.00  0.00    +0.000 N 
ATOM      4  H   UNL     1       1.696   7.056  19.950  0.00  0.00    +0.000 HD
ENDROOT
BRANCH   1  11
ATOM      5  C   UNL     1       4.460   5.188  18.217  0.00  0.00    +0.000 A 
ATOM      6  C   UNL     1       4.674   3.800  18.292  0.00  0.00    +0.000 A 
ATOM      7  C   UNL     1       3.615   2.899  18.460  0.00  0.00    +0.000 A 
ATOM      8  C   UNL     1       2.310   3.412  18.487  0.00  0.00    +0.000 A 
ATOM      9 CL   UNL     1       0.954   2.348  18.630  0.00  0.00    +0.000 Cl
ATOM     10  C   UNL     1       2.078   4.787  18.430  0.00  0.00    +0.000 A 
ATOM     11  C   UNL     1       3.146   5.693  18.297  0.00  0.00    +0.000 A 
BRANCH   7  12
ATOM     12  N   UNL     1       3.872   1.520  18.364  0.00  0.00    +0.000 N 
ATOM     13  H   UNL     1       4.852   1.266  18.282  0.00  0.00    +0.000 HD
ATOM     14  H   UNL     1       3.383   0.974  19.073  0.00  0.00    +0.000 HD
ENDBRANCH   7  12
BRANCH   5  16
ATOM     15  C   UNL     1       6.569   5.715  17.231  0.00  0.00    +0.000 C 
ATOM     16  O   UNL     1       5.492   6.086  18.087  0.00  0.00    +0.000 OA
ENDBRANCH   5  16
ENDBRANCH   1  11
BRANCH   3  17
ATOM     17  C   UNL     1       1.580   9.071  19.244  0.00  0.00    +0.000 C 
BRANCH  17  18
ATOM     18  C   UNL     1       0.592   9.398  20.374  0.00  0.00    +0.000 C 
ATOM     19  C   UNL     1       1.086  10.574  21.250  0.00  0.00    +0.000 C 
ATOM     20  N   UNL     1       0.153  10.919  22.354  0.00  0.00    +0.000 NA
ATOM     21  C   UNL     1      -0.085   9.680  23.127  0.00  0.00    +0.000 C 
ATOM     22  C   UNL     1      -0.509   8.477  22.268  0.00  0.00    +0.000 C 
ATOM     23  O   UNL     1       0.422   8.227  21.202  0.00  0.00    +0.000 OA
BRANCH  20  24
ATOM     24  C   UNL     1      -1.084  11.510  21.804  0.00  0.00    +0.000 C 
BRANCH  24  25
ATOM     25  C   UNL     1      -1.677  12.604  22.664  0.00  0.00    +0.000 A 
ATOM     26  C   UNL     1      -0.966  13.787  22.910  0.00  0.00    +0.000 A 
ATOM     27  C   UNL     1      -1.516  14.781  23.723  0.00  0.00    +0.000 A 
ATOM     28  C   UNL     1      -2.776  14.596  24.288  0.00  0.00    +0.000 A 
ATOM     29 CL   UNL     1      -3.441  15.811  25.312  0.00  0.00    +0.000 Cl
ATOM     30  C   UNL     1      -3.500  13.434  24.040  0.00  0.00    +0.000 A 
ATOM     31  C   UNL     1      -2.953  12.440  23.227  0.00  0.00    +0.000 A 
ENDBRANCH  24  25
ENDBRANCH  20  24
ENDBRANCH  17  18
ENDBRANCH   3  17
TORSDOF 7
ENDMDL
MODEL 7
REMARK VINA RESULT:      -7.3      3.229      4.489
REMARK  Name = 
REMARK  8 active torsions:
REMARK  status: ('A' for Active; 'I' for Inactive)
REMARK    1  A    between atoms: C_1  and  O_2
REMARK    2  A    between atoms: O_2  and  C_3
REMARK    3  A    between atoms: C_5  and  N_6
REMARK    4  A    between atoms: C_10  and  C_11
REMARK    5  A    between atoms: N_13  and  C_14
REMARK    6  A    between atoms: C_14  and  C_15
REMARK    7  A    between atoms: N_17  and  C_18
REMARK    8  A    between atoms: C_18  and  C_19
REMARK                            x       y       z     vdW  Elec       q    Type
REMARK                         _______ _______ _______ _____ _____    ______ ____
ROOT
ATOM      1  C   UNL     1       2.980   5.655  19.733  0.00  0.00    +0.000 C 
ATOM      2  O   UNL     1       2.732   4.824  20.602  0.00  0.00    +0.000 OA
ATOM      3  N   UNL     1       2.466   6.931  19.774  0.00  0.00    +0.000 N 
ATOM      4  H   UNL     1       2.680   7.552  18.999  0.00  0.00    +0.000 HD
ENDROOT
BRANCH   1  11
ATOM      5  C   UNL     1       3.539   4.317  17.594  0.00  0.00    +0.000 A 
ATOM      6  C   UNL     1       4.454   4.046  16.561  0.00  0.00    +0.000 A 
ATOM      7  C   UNL     1       5.673   4.727  16.460  0.00  0.00    +0.000 A 
ATOM      8  C   UNL     1       5.998   5.654  17.462  0.00  0.00    +0.000 A 
ATOM      9 CL   UNL     1       7.515   6.484  17.430  0.00  0.00    +0.000 Cl
ATOM     10  C   UNL     1       5.096   5.949  18.485  0.00  0.00    +0.000 A 
ATOM     11  C   UNL     1       3.856   5.289  18.565  0.00  0.00    +0.000 A 
BRANCH   7  12
ATOM     12  N   UNL     1       6.616   4.300  15.507  0.00  0.00    +0.000 N 
ATOM     13  H   UNL     1       7.395   3.766  15.878  0.00  0.00    +0.000 HD
ATOM     14  H   UNL     1       6.187   3.858  14.695  0.00  0.00    +0.000 HD
ENDBRANCH   7  12
BRANCH   5  16
ATOM     15  C   UNL     1       2.344   2.265  17.837  0.00  0.00    +0.000 C 
ATOM     16  O   UNL     1       2.324   3.682  17.686  0.00  0.00    +0.000 OA
ENDBRANCH   5  16
ENDBRANCH   1  11
BRANCH   3  17
ATOM     17  C   UNL     1       1.573   7.400  20.822  0.00  0.00    +0.000 C 
BRANCH  17  18
ATOM     18  C   UNL     1       1.156   8.871  20.673  0.00  0.00    +0.000 C 
ATOM     19  C   UNL     1      -0.335   9.086  21.030  0.00  0.00    +0.000 C 
ATOM     20  N   UNL     1      -0.774  10.500  20.898  0.00  0.00    +0.000 NA
ATOM     21  C   UNL     1      -0.437  10.935  19.525  0.00  0.00    +0.000 C 
ATOM     22  C   UNL     1       1.023  10.666  19.122  0.00  0.00    +0.000 C 
ATOM     23  O   UNL     1       1.383   9.288  19.310  0.00  0.00    +0.000 OA
BRANCH  20  24
ATOM     24  C   UNL     1      -0.137  11.326  21.944  0.00  0.00    +0.000 C 
BRANCH  24  25
ATOM     25  C   UNL     1      -1.080  12.300  22.616  0.00  0.00    +0.000 A 
ATOM     26  C   UNL     1      -2.301  11.863  23.150  0.00  0.00    +0.000 A 
ATOM     27  C   UNL     1      -3.172  12.776  23.750  0.00  0.00    +0.000 A 
ATOM     28  C   UNL     1      -2.825  14.123  23.819  0.00  0.00    +0.000 A 
ATOM     29 CL   UNL     1      -3.912  15.251  24.533  0.00  0.00    +0.000 Cl
ATOM     30  C   UNL     1      -1.609  14.569  23.306  0.00  0.00    +0.000 A 
ATOM     31  C   UNL     1      -0.737  13.658  22.709  0.00  0.00    +0.000 A 
ENDBRANCH  24  25
ENDBRANCH  20  24
ENDBRANCH  17  18
ENDBRANCH   3  17
TORSDOF 7
ENDMDL
MODEL 8
REMARK VINA RESULT:      -7.3      3.471      8.151
REMARK  Name = 
REMARK  8 active torsions:
REMARK  status: ('A' for Active; 'I' for Inactive)
REMARK    1  A    between atoms: C_1  and  O_2
REMARK    2  A    between atoms: O_2  and  C_3
REMARK    3  A    between atoms: C_5  and  N_6
REMARK    4  A    between atoms: C_10  and  C_11
REMARK    5  A    between atoms: N_13  and  C_14
REMARK    6  A    between atoms: C_14  and  C_15
REMARK    7  A    between atoms: N_17  and  C_18
REMARK    8  A    between atoms: C_18  and  C_19
REMARK                            x       y       z     vdW  Elec       q    Type
REMARK                         _______ _______ _______ _____ _____    ______ ____
ROOT
ATOM      1  C   UNL     1       1.043   8.040  20.782  0.00  0.00    +0.000 C 
ATOM      2  O   UNL     1       0.262   7.967  21.725  0.00  0.00    +0.000 OA
ATOM      3  N   UNL     1       1.840   6.982  20.410  0.00  0.00    +0.000 N 
ATOM      4  H   UNL     1       2.494   7.127  19.647  0.00  0.00    +0.000 HD
ENDROOT
BRANCH   1  11
ATOM      5  C   UNL     1       1.573   9.405  18.652  0.00  0.00    +0.000 A 
ATOM      6  C   UNL     1       1.677  10.666  18.039  0.00  0.00    +0.000 A 
ATOM      7  C   UNL     1       1.376  11.847  18.727  0.00  0.00    +0.000 A 
ATOM      8  C   UNL     1       1.024  11.751  20.082  0.00  0.00    +0.000 A 
ATOM      9 CL   UNL     1       0.700  13.177  21.006  0.00  0.00    +0.000 Cl
ATOM     10  C   UNL     1       0.899  10.509  20.704  0.00  0.00    +0.000 A 
ATOM     11  C   UNL     1       1.168   9.320  20.000  0.00  0.00    +0.000 A 
BRANCH   7  12
ATOM     12  N   UNL     1       1.655  13.083  18.116  0.00  0.00    +0.000 N 
ATOM     13  H   UNL     1       1.409  13.145  17.133  0.00  0.00    +0.000 HD
ATOM     14  H   UNL     1       1.319  13.879  18.657  0.00  0.00    +0.000 HD
ENDBRANCH   7  12
BRANCH   5  16
ATOM     15  C   UNL     1       3.178   8.007  17.573  0.00  0.00    +0.000 C 
ATOM     16  O   UNL     1       1.832   8.236  17.979  0.00  0.00    +0.000 OA
ENDBRANCH   5  16
ENDBRANCH   1  11
BRANCH   3  17
ATOM     17  C   UNL     1       1.849   5.705  21.107  0.00  0.00    +0.000 C 
BRANCH  17  18
ATOM     18  C   UNL     1       2.814   4.672  20.503  0.00  0.00    +0.000 C 
ATOM     19  C   UNL     1       2.657   4.566  18.966  0.00  0.00    +0.000 C 
ATOM     20  N   UNL     1       3.576   3.577  18.347  0.00  0.00    +0.000 NA
ATOM     21  C   UNL     1       3.362   2.288  19.043  0.00  0.00    +0.000 C 
ATOM     22  C   UNL     1       3.442   2.382  20.576  0.00  0.00    +0.000 C 
ATOM     23  O   UNL     1       2.553   3.383  21.097  0.00  0.00    +0.000 OA
BRANCH  20  24
ATOM     24  C   UNL     1       4.970   4.060  18.431  0.00  0.00    +0.000 C 
BRANCH  24  25
ATOM     25  C   UNL     1       5.621   4.294  17.086  0.00  0.00    +0.000 A 
ATOM     26  C   UNL     1       6.962   4.695  16.999  0.00  0.00    +0.000 A 
ATOM     27  C   UNL     1       7.545   4.927  15.751  0.00  0.00    +0.000 A 
ATOM     28  C   UNL     1       6.793   4.759  14.591  0.00  0.00    +0.000 A 
ATOM     29 CL   UNL     1       7.505   5.073  13.056  0.00  0.00    +0.000 Cl
ATOM     30  C   UNL     1       5.464   4.347  14.661  0.00  0.00    +0.000 A 
ATOM     31  C   UNL     1       4.881   4.112  15.907  0.00  0.00    +0.000 A 
ENDBRANCH  24  25
ENDBRANCH  20  24
ENDBRANCH  17  18
ENDBRANCH   3  17
TORSDOF 7
ENDMDL
MODEL 9
REMARK VINA RESULT:      -7.3      2.898      3.850
REMARK  Name = 
REMARK  8 active torsions:
REMARK  status: ('A' for Active; 'I' for Inactive)
REMARK    1  A    between atoms: C_1  and  O_2
REMARK    2  A    between atoms: O_2  and  C_3
REMARK    3  A    between atoms: C_5  and  N_6
REMARK    4  A    between atoms: C_10  and  C_11
REMARK    5  A    between atoms: N_13  and  C_14
REMARK    6  A    between atoms: C_14  and  C_15
REMARK    7  A    between atoms: N_17  and  C_18
REMARK    8  A    between atoms: C_18  and  C_19
REMARK                            x       y       z     vdW  Elec       q    Type
REMARK                         _______ _______ _______ _____ _____    ______ ____
ROOT
ATOM      1  C   UNL     1       2.076   6.038  20.038  0.00  0.00    +0.000 C 
ATOM      2  O   UNL     1       1.336   5.371  20.754  0.00  0.00    +0.000 OA
ATOM      3  N   UNL     1       2.124   7.411  20.114  0.00  0.00    +0.000 N 
ATOM      4  H   UNL     1       2.729   7.901  19.462  0.00  0.00    +0.000 HD
ENDROOT
BRANCH   1  11
ATOM      5  C   UNL     1       2.589   4.234  18.260  0.00  0.00    +0.000 A 
ATOM      6  C   UNL     1       3.514   3.675  17.360  0.00  0.00    +0.000 A 
ATOM      7  C   UNL     1       4.793   4.218  17.186  0.00  0.00    +0.000 A 
ATOM      8  C   UNL     1       5.163   5.308  17.987  0.00  0.00    +0.000 A 
ATOM      9 CL   UNL     1       6.749   5.986  17.865  0.00  0.00    +0.000 Cl
ATOM     10  C   UNL     1       4.254   5.887  18.874  0.00  0.00    +0.000 A 
ATOM     11  C   UNL     1       2.958   5.361  19.022  0.00  0.00    +0.000 A 
BRANCH   7  12
ATOM     12  N   UNL     1       5.727   3.522  16.397  0.00  0.00    +0.000 N 
ATOM     13  H   UNL     1       6.674   3.885  16.427  0.00  0.00    +0.000 HD
ATOM     14  H   UNL     1       5.688   2.513  16.531  0.00  0.00    +0.000 HD
ENDBRANCH   7  12
BRANCH   5  16
ATOM     15  C   UNL     1       1.195   2.323  18.583  0.00  0.00    +0.000 C 
ATOM     16  O   UNL     1       1.320   3.733  18.417  0.00  0.00    +0.000 OA
ENDBRANCH   5  16
ENDBRANCH   1  11
BRANCH   3  17
ATOM     17  C   UNL     1       1.295   8.191  21.020  0.00  0.00    +0.000 C 
BRANCH  17  18
ATOM     18  C   UNL     1       0.908   9.575  20.476  0.00  0.00    +0.000 C 
ATOM     19  C   UNL     1      -0.619   9.700  20.251  0.00  0.00    +0.000 C 
ATOM     20  N   UNL     1      -1.030  11.027  19.726  0.00  0.00    +0.000 NA
ATOM     21  C   UNL     1      -0.240  11.274  18.499  0.00  0.00    +0.000 C 
ATOM     22  C   UNL     1       1.275  11.086  18.680  0.00  0.00    +0.000 C 
ATOM     23  O   UNL     1       1.592   9.795  19.224  0.00  0.00    +0.000 OA
BRANCH  20  24
ATOM     24  C   UNL     1      -0.836  12.063  20.762  0.00  0.00    +0.000 C 
BRANCH  24  25
ATOM     25  C   UNL     1      -2.071  12.341  21.589  0.00  0.00    +0.000 A 
ATOM     26  C   UNL     1      -2.130  11.965  22.939  0.00  0.00    +0.000 A 
ATOM     27  C   UNL     1      -3.284  12.210  23.687  0.00  0.00    +0.000 A 
ATOM     28  C   UNL     1      -4.378  12.831  23.090  0.00  0.00    +0.000 A 
ATOM     29 CL   UNL     1      -5.810  13.106  24.006  0.00  0.00    +0.000 Cl
ATOM     30  C   UNL     1      -4.330  13.223  21.755  0.00  0.00    +0.000 A 
ATOM     31  C   UNL     1      -3.177  12.982  21.007  0.00  0.00    +0.000 A 
ENDBRANCH  24  25
ENDBRANCH  20  24
ENDBRANCH  17  18
ENDBRANCH   3  17
TORSDOF 7
ENDMDL
