MODEL 1
REMARK VINA RESULT:      -8.3      0.000      0.000
REMARK  Name = 
REMARK  7 active torsions:
REMARK  status: ('A' for Active; 'I' for Inactive)
REMARK    1  A    between atoms: C_1  and  N_2
REMARK    2  A    between atoms: C_5  and  O_6
REMARK    3  A    between atoms: O_6  and  C_7
REMARK    4  A    between atoms: C_7  and  C_8
REMARK    5  A    between atoms: C_11  and  C_12
REMARK    6  A    between atoms: C_20  and  C_21
REMARK    7  A    between atoms: N_23  and  C_24
REMARK                            x       y       z     vdW  Elec       q    Type
REMARK                         _______ _______ _______ _____ _____    ______ ____
ROOT
ATOM      1  C   UNL     1       2.754   2.720  20.766  0.00  0.00    +0.000 C 
ATOM      2  N   UNL     1       2.987   3.634  19.667  0.00  0.00    +0.000 N 
ATOM      3  C   UNL     1       3.554   3.153  18.486  0.00  0.00    +0.000 C 
ATOM      4  O   UNL     1       3.470   1.982  18.124  0.00  0.00    +0.000 OA
ATOM      5  C   UNL     1       4.415   4.247  17.798  0.00  0.00    +0.000 C 
ATOM      6  O   UNL     1       3.702   5.466  17.590  0.00  0.00    +0.000 OA
ATOM      7  C   UNL     1       2.977   5.876  18.682  0.00  0.00    +0.000 A 
ATOM      8  C   UNL     1       2.568   7.224  18.672  0.00  0.00    +0.000 A 
ATOM      9  C   UNL     1       1.791   7.709  19.722  0.00  0.00    +0.000 A 
ATOM     10  C   UNL     1       1.438   6.838  20.767  0.00  0.00    +0.000 A 
ATOM     11  C   UNL     1       1.859   5.506  20.782  0.00  0.00    +0.000 A 
ATOM     12  C   UNL     1       2.631   5.007  19.735  0.00  0.00    +0.000 A 
ENDROOT
BRANCH   9  13
ATOM     13  C   UNL     1       1.365   9.117  19.876  0.00  0.00    +0.000 C 
ATOM     14  O   UNL     1       1.019   9.452  21.011  0.00  0.00    +0.000 OA
ATOM     15  N   UNL     1       1.282   9.925  18.743  0.00  0.00    +0.000 N 
ATOM     16  H   UNL     1       1.356   9.481  17.842  0.00  0.00    +0.000 HD
BRANCH  15  17
ATOM     17  C   UNL     1       0.804  11.262  18.770  0.00  0.00    +0.000 A 
ATOM     18  C   UNL     1      -0.560  11.577  18.706  0.00  0.00    +0.000 A 
ATOM     19  C   UNL     1      -0.995  12.898  18.616  0.00  0.00    +0.000 A 
ATOM     20  C   UNL     1      -0.066  13.932  18.609  0.00  0.00    +0.000 A 
ATOM     21  C   UNL     1       1.292  13.639  18.731  0.00  0.00    +0.000 A 
ATOM     22  C   UNL     1       1.727  12.310  18.826  0.00  0.00    +0.000 A 
ENDBRANCH  15  17
ENDBRANCH   9  13
BRANCH   5  23
ATOM     23  O   UNL     1       5.011   3.789  16.586  0.00  0.00    +0.000 OA
BRANCH  23  24
ATOM     24  C   UNL     1       6.426   3.937  16.605  0.00  0.00    +0.000 C 
BRANCH  24  25
ATOM     25  C   UNL     1       6.846   5.308  17.090  0.00  0.00    +0.000 A 
ATOM     26  C   UNL     1       6.547   6.478  16.383  0.00  0.00    +0.000 A 
ATOM     27  C   UNL     1       7.026   7.721  16.815  0.00  0.00    +0.000 A 
ATOM     28  C   UNL     1       7.812   7.812  17.967  0.00  0.00    +0.000 A 
ATOM     29  C   UNL     1       8.079   6.653  18.702  0.00  0.00    +0.000 A 
ATOM     30  C   UNL     1       7.596   5.412  18.275  0.00  0.00    +0.000 A 
BRANCH  28  31
ATOM     31  C   UNL     1       8.404   9.122  18.377  0.00  0.00    +0.000 C 
ATOM     32  N   UNL     1       9.092   9.286  19.462  0.00  0.00    +0.000 NA
ATOM     33  N   UNL     1       8.221  10.244  17.625  0.00  0.00    +0.000 N 
ATOM     34  H   UNL     1       9.221   8.406  19.967  0.00  0.00    +0.000 HD
ATOM     35  H   UNL     1       7.311  10.350  17.191  0.00  0.00    +0.000 HD
ATOM     36  H   UNL     1       8.482  11.064  18.167  0.00  0.00    +0.000 HD
ENDBRANCH  28  31
ENDBRANCH  24  25
ENDBRANCH  23  24
ENDBRANCH   5  23
TORSDOF 6
ENDMDL
MODEL 2
REMARK VINA RESULT:      -8.3      3.373      9.935
REMARK  Name = 
REMARK  7 active torsions:
REMARK  status: ('A' for Active; 'I' for Inactive)
REMARK    1  A    between atoms: C_1  and  N_2
REMARK    2  A    between atoms: C_5  and  O_6
REMARK    3  A    between atoms: O_6  and  C_7
REMARK    4  A    between atoms: C_7  and  C_8
REMARK    5  A    between atoms: C_11  and  C_12
REMARK    6  A    between atoms: C_20  and  C_21
REMARK    7  A    between atoms: N_23  and  C_24
REMARK                            x       y       z     vdW  Elec       q    Type
REMARK                         _______ _______ _______ _____ _____    ______ ____
ROOT
ATOM      1  C   UNL     1      -0.120   9.277  22.856  0.00  0.00    +0.000 C 
ATOM      2  N   UNL     1       0.338   9.747  21.564  0.00  0.00    +0.000 N 
ATOM      3  C   UNL     1       0.132  11.081  21.210  0.00  0.00    +0.000 C 
ATOM      4  O   UNL     1       0.005  11.987  22.030  0.00  0.00    +0.000 OA
ATOM      5  C   UNL     1      -0.066  11.222  19.676  0.00  0.00    +0.000 C 
ATOM      6  O   UNL     1       0.991  10.626  18.922  0.00  0.00    +0.000 OA
ATOM      7  C   UNL     1       1.348   9.377  19.365  0.00  0.00    +0.000 A 
ATOM      8  C   UNL     1       2.099   8.600  18.460  0.00  0.00    +0.000 A 
ATOM      9  C   UNL     1       2.541   7.337  18.848  0.00  0.00    +0.000 A 
ATOM     10  C   UNL     1       2.221   6.869  20.134  0.00  0.00    +0.000 A 
ATOM     11  C   UNL     1       1.463   7.635  21.024  0.00  0.00    +0.000 A 
ATOM     12  C   UNL     1       1.021   8.901  20.650  0.00  0.00    +0.000 A 
ENDROOT
BRANCH   9  13
ATOM     13  C   UNL     1       3.263   6.390  17.971  0.00  0.00    +0.000 C 
ATOM     14  O   UNL     1       2.721   5.296  17.802  0.00  0.00    +0.000 OA
ATOM     15  N   UNL     1       4.524   6.741  17.493  0.00  0.00    +0.000 N 
ATOM     16  H   UNL     1       4.969   7.553  17.890  0.00  0.00    +0.000 HD
BRANCH  15  17
ATOM     17  C   UNL     1       5.336   5.872  16.717  0.00  0.00    +0.000 A 
ATOM     18  C   UNL     1       6.358   5.093  17.277  0.00  0.00    +0.000 A 
ATOM     19  C   UNL     1       7.215   4.339  16.478  0.00  0.00    +0.000 A 
ATOM     20  C   UNL     1       7.047   4.335  15.098  0.00  0.00    +0.000 A 
ATOM     21  C   UNL     1       6.000   5.058  14.529  0.00  0.00    +0.000 A 
ATOM     22  C   UNL     1       5.136   5.813  15.335  0.00  0.00    +0.000 A 
ENDBRANCH  15  17
ENDBRANCH   9  13
BRANCH   5  23
ATOM     23  O   UNL     1      -0.280  12.575  19.276  0.00  0.00    +0.000 OA
BRANCH  23  24
ATOM     24  C   UNL     1      -1.263  12.672  18.252  0.00  0.00    +0.000 C 
BRANCH  24  25
ATOM     25  C   UNL     1      -2.641  12.300  18.752  0.00  0.00    +0.000 A 
ATOM     26  C   UNL     1      -3.532  11.530  17.994  0.00  0.00    +0.000 A 
ATOM     27  C   UNL     1      -4.831  11.277  18.450  0.00  0.00    +0.000 A 
ATOM     28  C   UNL     1      -5.260  11.790  19.677  0.00  0.00    +0.000 A 
ATOM     29  C   UNL     1      -4.363  12.523  20.459  0.00  0.00    +0.000 A 
ATOM     30  C   UNL     1      -3.063  12.772  20.008  0.00  0.00    +0.000 A 
BRANCH  28  31
ATOM     31  C   UNL     1      -6.675  11.604  20.122  0.00  0.00    +0.000 C 
ATOM     32  N   UNL     1      -7.685  11.608  19.311  0.00  0.00    +0.000 NA
ATOM     33  N   UNL     1      -6.984  11.446  21.440  0.00  0.00    +0.000 N 
ATOM     34  H   UNL     1      -7.389  11.700  18.336  0.00  0.00    +0.000 HD
ATOM     35  H   UNL     1      -6.441  11.993  22.097  0.00  0.00    +0.000 HD
ATOM     36  H   UNL     1      -7.984  11.572  21.574  0.00  0.00    +0.000 HD
ENDBRANCH  28  31
ENDBRANCH  24  25
ENDBRANCH  23  24
ENDBRANCH   5  23
TORSDOF 6
ENDMDL
MODEL 3
REMARK VINA RESULT:      -8.2      3.613     10.099
REMARK  Name = 
REMARK  7 active torsions:
REMARK  status: ('A' for Active; 'I' for Inactive)
REMARK    1  A    between atoms: C_1  and  N_2
REMARK    2  A    between atoms: C_5  and  O_6
REMARK    3  A    between atoms: O_6  and  C_7
REMARK    4  A    between atoms: C_7  and  C_8
REMARK    5  A    between atoms: C_11  and  C_12
REMARK    6  A    between atoms: C_20  and  C_21
REMARK    7  A    between atoms: N_23  and  C_24
REMARK                            x       y       z     vdW  Elec       q    Type
REMARK                         _______ _______ _______ _____ _____    ______ ____
ROOT
ATOM      1  C   UNL     1      -0.617   9.192  22.663  0.00  0.00    +0.000 C 
ATOM      2  N   UNL     1      -0.129   9.588  21.357  0.00  0.00    +0.000 N 
ATOM      3  C   UNL     1      -0.476  10.841  20.850  0.00  0.00    +0.000 C 
ATOM      4  O   UNL     1      -0.774  11.798  21.558  0.00  0.00    +0.000 OA
ATOM      5  C   UNL     1      -0.579  10.802  19.300  0.00  0.00    +0.000 C 
ATOM      6  O   UNL     1       0.596  10.279  18.678  0.00  0.00    +0.000 OA
ATOM      7  C   UNL     1       1.075   9.138  19.273  0.00  0.00    +0.000 A 
ATOM      8  C   UNL     1       1.980   8.382  18.503  0.00  0.00    +0.000 A 
ATOM      9  C   UNL     1       2.548   7.233  19.049  0.00  0.00    +0.000 A 
ATOM     10  C   UNL     1       2.198   6.857  20.358  0.00  0.00    +0.000 A 
ATOM     11  C   UNL     1       1.287   7.600  21.114  0.00  0.00    +0.000 A 
ATOM     12  C   UNL     1       0.718   8.754  20.581  0.00  0.00    +0.000 A 
ENDROOT
BRANCH   9  13
ATOM     13  C   UNL     1       3.445   6.308  18.324  0.00  0.00    +0.000 C 
ATOM     14  O   UNL     1       3.329   5.114  18.610  0.00  0.00    +0.000 OA
ATOM     15  N   UNL     1       4.409   6.836  17.468  0.00  0.00    +0.000 N 
ATOM     16  H   UNL     1       4.571   7.830  17.496  0.00  0.00    +0.000 HD
BRANCH  15  17
ATOM     17  C   UNL     1       5.373   6.042  16.791  0.00  0.00    +0.000 A 
ATOM     18  C   UNL     1       5.225   5.652  15.453  0.00  0.00    +0.000 A 
ATOM     19  C   UNL     1       6.126   4.777  14.849  0.00  0.00    +0.000 A 
ATOM     20  C   UNL     1       7.209   4.292  15.574  0.00  0.00    +0.000 A 
ATOM     21  C   UNL     1       7.403   4.715  16.889  0.00  0.00    +0.000 A 
ATOM     22  C   UNL     1       6.498   5.599  17.493  0.00  0.00    +0.000 A 
ENDBRANCH  15  17
ENDBRANCH   9  13
BRANCH   5  23
ATOM     23  O   UNL     1      -0.931  12.068  18.746  0.00  0.00    +0.000 OA
BRANCH  23  24
ATOM     24  C   UNL     1      -1.995  11.954  17.808  0.00  0.00    +0.000 C 
BRANCH  24  25
ATOM     25  C   UNL     1      -3.350  11.977  18.481  0.00  0.00    +0.000 A 
ATOM     26  C   UNL     1      -3.577  12.647  19.689  0.00  0.00    +0.000 A 
ATOM     27  C   UNL     1      -4.820  12.574  20.329  0.00  0.00    +0.000 A 
ATOM     28  C   UNL     1      -5.860  11.830  19.766  0.00  0.00    +0.000 A 
ATOM     29  C   UNL     1      -5.655  11.193  18.538  0.00  0.00    +0.000 A 
ATOM     30  C   UNL     1      -4.415  11.270  17.895  0.00  0.00    +0.000 A 
BRANCH  28  31
ATOM     31  C   UNL     1      -7.157  11.672  20.493  0.00  0.00    +0.000 C 
ATOM     32  N   UNL     1      -7.916  10.628  20.380  0.00  0.00    +0.000 NA
ATOM     33  N   UNL     1      -7.632  12.655  21.309  0.00  0.00    +0.000 N 
ATOM     34  H   UNL     1      -7.495   9.915  19.780  0.00  0.00    +0.000 HD
ATOM     35  H   UNL     1      -7.474  13.608  21.002  0.00  0.00    +0.000 HD
ATOM     36  H   UNL     1      -8.611  12.480  21.520  0.00  0.00    +0.000 HD
ENDBRANCH  28  31
ENDBRANCH  24  25
ENDBRANCH  23  24
ENDBRANCH   5  23
TORSDOF 6
ENDMDL
MODEL 4
REMARK VINA RESULT:      -8.1      3.626     10.072
REMARK  Name = 
REMARK  7 active torsions:
REMARK  status: ('A' for Active; 'I' for Inactive)
REMARK    1  A    between atoms: C_1  and  N_2
REMARK    2  A    between atoms: C_5  and  O_6
REMARK    3  A    between atoms: O_6  and  C_7
REMARK    4  A    between atoms: C_7  and  C_8
REMARK    5  A    between atoms: C_11  and  C_12
REMARK    6  A    between atoms: C_20  and  C_21
REMARK    7  A    between atoms: N_23  and  C_24
REMARK                            x       y       z     vdW  Elec       q    Type
REMARK                         _______ _______ _______ _____ _____    ______ ____
ROOT
ATOM      1  C   UNL     1      -0.283   9.263  22.910  0.00  0.00    +0.000 C 
ATOM      2  N   UNL     1       0.205   9.788  21.651  0.00  0.00    +0.000 N 
ATOM      3  C   UNL     1       0.005  11.137  21.351  0.00  0.00    +0.000 C 
ATOM      4  O   UNL     1      -0.142  12.006  22.206  0.00  0.00    +0.000 OA
ATOM      5  C   UNL     1      -0.157  11.345  19.820  0.00  0.00    +0.000 C 
ATOM      6  O   UNL     1       0.918  10.782  19.066  0.00  0.00    +0.000 OA
ATOM      7  C   UNL     1       1.267   9.515  19.462  0.00  0.00    +0.000 A 
ATOM      8  C   UNL     1       2.039   8.778  18.542  0.00  0.00    +0.000 A 
ATOM      9  C   UNL     1       2.473   7.500  18.885  0.00  0.00    +0.000 A 
ATOM     10  C   UNL     1       2.124   6.976  20.142  0.00  0.00    +0.000 A 
ATOM     11  C   UNL     1       1.344   7.702  21.046  0.00  0.00    +0.000 A 
ATOM     12  C   UNL     1       0.910   8.984  20.717  0.00  0.00    +0.000 A 
ENDROOT
BRANCH   9  13
ATOM     13  C   UNL     1       3.217   6.592  17.985  0.00  0.00    +0.000 C 
ATOM     14  O   UNL     1       2.695   5.494  17.780  0.00  0.00    +0.000 OA
ATOM     15  N   UNL     1       4.475   6.979  17.526  0.00  0.00    +0.000 N 
ATOM     16  H   UNL     1       4.903   7.786  17.949  0.00  0.00    +0.000 HD
BRANCH  15  17
ATOM     17  C   UNL     1       5.306   6.147  16.729  0.00  0.00    +0.000 A 
ATOM     18  C   UNL     1       5.132   6.008  15.346  0.00  0.00    +0.000 A 
ATOM     19  C   UNL     1       5.885   5.096  14.609  0.00  0.00    +0.000 A 
ATOM     20  C   UNL     1       6.847   4.321  15.246  0.00  0.00    +0.000 A 
ATOM     21  C   UNL     1       7.074   4.488  16.611  0.00  0.00    +0.000 A 
ATOM     22  C   UNL     1       6.318   5.408  17.350  0.00  0.00    +0.000 A 
ENDBRANCH  15  17
ENDBRANCH   9  13
BRANCH   5  23
ATOM     23  O   UNL     1      -0.363  12.713  19.475  0.00  0.00    +0.000 OA
BRANCH  23  24
ATOM     24  C   UNL     1      -1.683  12.943  18.996  0.00  0.00    +0.000 C 
BRANCH  24  25
ATOM     25  C   UNL     1      -2.659  13.198  20.124  0.00  0.00    +0.000 A 
ATOM     26  C   UNL     1      -2.416  14.146  21.126  0.00  0.00    +0.000 A 
ATOM     27  C   UNL     1      -3.299  14.295  22.202  0.00  0.00    +0.000 A 
ATOM     28  C   UNL     1      -4.444  13.498  22.291  0.00  0.00    +0.000 A 
ATOM     29  C   UNL     1      -4.714  12.580  21.273  0.00  0.00    +0.000 A 
ATOM     30  C   UNL     1      -3.837  12.434  20.194  0.00  0.00    +0.000 A 
BRANCH  28  31
ATOM     31  C   UNL     1      -5.337  13.588  23.487  0.00  0.00    +0.000 C 
ATOM     32  N   UNL     1      -5.585  14.695  24.112  0.00  0.00    +0.000 NA
ATOM     33  N   UNL     1      -5.926  12.476  24.011  0.00  0.00    +0.000 N 
ATOM     34  H   UNL     1      -5.140  15.496  23.656  0.00  0.00    +0.000 HD
ATOM     35  H   UNL     1      -5.371  11.629  24.006  0.00  0.00    +0.000 HD
ATOM     36  H   UNL     1      -6.291  12.687  24.937  0.00  0.00    +0.000 HD
ENDBRANCH  28  31
ENDBRANCH  24  25
ENDBRANCH  23  24
ENDBRANCH   5  23
TORSDOF 6
ENDMDL
MODEL 5
REMARK VINA RESULT:      -8.1      3.727     10.144
REMARK  Name = 
REMARK  7 active torsions:
REMARK  status: ('A' for Active; 'I' for Inactive)
REMARK    1  A    between atoms: C_1  and  N_2
REMARK    2  A    between atoms: C_5  and  O_6
REMARK    3  A    between atoms: O_6  and  C_7
REMARK    4  A    between atoms: C_7  and  C_8
REMARK    5  A    between atoms: C_11  and  C_12
REMARK    6  A    between atoms: C_20  and  C_21
REMARK    7  A    between atoms: N_23  and  C_24
REMARK                            x       y       z     vdW  Elec       q    Type
REMARK                         _______ _______ _______ _____ _____    ______ ____
ROOT
ATOM      1  C   UNL     1      -0.232   9.273  23.070  0.00  0.00    +0.000 C 
ATOM      2  N   UNL     1       0.184   9.773  21.776  0.00  0.00    +0.000 N 
ATOM      3  C   UNL     1      -0.066  11.106  21.446  0.00  0.00    +0.000 C 
ATOM      4  O   UNL     1      -0.198  11.996  22.282  0.00  0.00    +0.000 OA
ATOM      5  C   UNL     1      -0.302  11.264  19.919  0.00  0.00    +0.000 C 
ATOM      6  O   UNL     1       0.752  10.708  19.133  0.00  0.00    +0.000 OA
ATOM      7  C   UNL     1       1.153   9.462  19.548  0.00  0.00    +0.000 A 
ATOM      8  C   UNL     1       1.904   8.720  18.616  0.00  0.00    +0.000 A 
ATOM      9  C   UNL     1       2.388   7.464  18.974  0.00  0.00    +0.000 A 
ATOM     10  C   UNL     1       2.110   6.968  20.260  0.00  0.00    +0.000 A 
ATOM     11  C   UNL     1       1.352   7.700  21.178  0.00  0.00    +0.000 A 
ATOM     12  C   UNL     1       0.868   8.960  20.834  0.00  0.00    +0.000 A 
ENDROOT
BRANCH   9  13
ATOM     13  C   UNL     1       3.115   6.549  18.067  0.00  0.00    +0.000 C 
ATOM     14  O   UNL     1       2.522   5.512  17.762  0.00  0.00    +0.000 OA
ATOM     15  N   UNL     1       4.427   6.855  17.712  0.00  0.00    +0.000 N 
ATOM     16  H   UNL     1       4.890   7.598  18.210  0.00  0.00    +0.000 HD
BRANCH  15  17
ATOM     17  C   UNL     1       5.241   6.003  16.918  0.00  0.00    +0.000 A 
ATOM     18  C   UNL     1       6.213   5.158  17.471  0.00  0.00    +0.000 A 
ATOM     19  C   UNL     1       7.076   4.421  16.662  0.00  0.00    +0.000 A 
ATOM     20  C   UNL     1       6.965   4.503  15.279  0.00  0.00    +0.000 A 
ATOM     21  C   UNL     1       5.966   5.294  14.713  0.00  0.00    +0.000 A 
ATOM     22  C   UNL     1       5.096   6.031  15.528  0.00  0.00    +0.000 A 
ENDBRANCH  15  17
ENDBRANCH   9  13
BRANCH   5  23
ATOM     23  O   UNL     1      -0.561  12.616  19.545  0.00  0.00    +0.000 OA
BRANCH  23  24
ATOM     24  C   UNL     1      -1.910  12.799  19.129  0.00  0.00    +0.000 C 
BRANCH  24  25
ATOM     25  C   UNL     1      -2.812  13.181  20.281  0.00  0.00    +0.000 A 
ATOM     26  C   UNL     1      -2.486  14.201  21.183  0.00  0.00    +0.000 A 
ATOM     27  C   UNL     1      -3.302  14.470  22.289  0.00  0.00    +0.000 A 
ATOM     28  C   UNL     1      -4.462  13.722  22.508  0.00  0.00    +0.000 A 
ATOM     29  C   UNL     1      -4.816  12.731  21.588  0.00  0.00    +0.000 A 
ATOM     30  C   UNL     1      -4.006  12.465  20.481  0.00  0.00    +0.000 A 
BRANCH  28  31
ATOM     31  C   UNL     1      -5.283  13.943  23.738  0.00  0.00    +0.000 C 
ATOM     32  N   UNL     1      -5.711  12.981  24.493  0.00  0.00    +0.000 NA
ATOM     33  N   UNL     1      -5.657  15.196  24.120  0.00  0.00    +0.000 N 
ATOM     34  H   UNL     1      -5.375  12.069  24.173  0.00  0.00    +0.000 HD
ATOM     35  H   UNL     1      -5.896  15.840  23.376  0.00  0.00    +0.000 HD
ATOM     36  H   UNL     1      -6.391  15.135  24.821  0.00  0.00    +0.000 HD
ENDBRANCH  28  31
ENDBRANCH  24  25
ENDBRANCH  23  24
ENDBRANCH   5  23
TORSDOF 6
ENDMDL
MODEL 6
REMARK VINA RESULT:      -8.0      4.539     11.020
REMARK  Name = 
REMARK  7 active torsions:
REMARK  status: ('A' for Active; 'I' for Inactive)
REMARK    1  A    between atoms: C_1  and  N_2
REMARK    2  A    between atoms: C_5  and  O_6
REMARK    3  A    between atoms: O_6  and  C_7
REMARK    4  A    between atoms: C_7  and  C_8
REMARK    5  A    between atoms: C_11  and  C_12
REMARK    6  A    between atoms: C_20  and  C_21
REMARK    7  A    between atoms: N_23  and  C_24
REMARK                            x       y       z     vdW  Elec       q    Type
REMARK                         _______ _______ _______ _____ _____    ______ ____
ROOT
ATOM      1  C   UNL     1       1.017  13.332  18.145  0.00  0.00    +0.000 C 
ATOM      2  N   UNL     1       0.606  12.439  19.209  0.00  0.00    +0.000 N 
ATOM      3  C   UNL     1      -0.256  12.911  20.201  0.00  0.00    +0.000 C 
ATOM      4  O   UNL     1      -1.037  13.843  20.031  0.00  0.00    +0.000 OA
ATOM      5  C   UNL     1       0.023  12.207  21.557  0.00  0.00    +0.000 C 
ATOM      6  O   UNL     1      -0.003  10.782  21.459  0.00  0.00    +0.000 OA
ATOM      7  C   UNL     1       0.687  10.290  20.379  0.00  0.00    +0.000 A 
ATOM      8  C   UNL     1       1.011   8.920  20.434  0.00  0.00    +0.000 A 
ATOM      9  C   UNL     1       1.671   8.331  19.358  0.00  0.00    +0.000 A 
ATOM     10  C   UNL     1       2.000   9.123  18.244  0.00  0.00    +0.000 A 
ATOM     11  C   UNL     1       1.691  10.485  18.199  0.00  0.00    +0.000 A 
ATOM     12  C   UNL     1       1.026  11.084  19.266  0.00  0.00    +0.000 A 
ENDROOT
BRANCH   9  13
ATOM     13  C   UNL     1       2.141   6.929  19.321  0.00  0.00    +0.000 C 
ATOM     14  O   UNL     1       2.618   6.495  20.372  0.00  0.00    +0.000 OA
ATOM     15  N   UNL     1       2.115   6.241  18.110  0.00  0.00    +0.000 N 
ATOM     16  H   UNL     1       1.932   6.769  17.272  0.00  0.00    +0.000 HD
BRANCH  15  17
ATOM     17  C   UNL     1       2.622   4.924  17.948  0.00  0.00    +0.000 A 
ATOM     18  C   UNL     1       3.945   4.666  17.566  0.00  0.00    +0.000 A 
ATOM     19  C   UNL     1       4.382   3.369  17.300  0.00  0.00    +0.000 A 
ATOM     20  C   UNL     1       3.502   2.302  17.435  0.00  0.00    +0.000 A 
ATOM     21  C   UNL     1       2.198   2.535  17.871  0.00  0.00    +0.000 A 
ATOM     22  C   UNL     1       1.761   3.839  18.141  0.00  0.00    +0.000 A 
ENDBRANCH  15  17
ENDBRANCH   9  13
BRANCH   5  23
ATOM     23  O   UNL     1      -0.840  12.664  22.596  0.00  0.00    +0.000 OA
BRANCH  23  24
ATOM     24  C   UNL     1      -1.765  11.659  22.994  0.00  0.00    +0.000 C 
BRANCH  24  25
ATOM     25  C   UNL     1      -3.167  12.205  23.145  0.00  0.00    +0.000 A 
ATOM     26  C   UNL     1      -3.840  12.847  22.099  0.00  0.00    +0.000 A 
ATOM     27  C   UNL     1      -5.103  13.417  22.299  0.00  0.00    +0.000 A 
ATOM     28  C   UNL     1      -5.715  13.352  23.554  0.00  0.00    +0.000 A 
ATOM     29  C   UNL     1      -5.068  12.676  24.592  0.00  0.00    +0.000 A 
ATOM     30  C   UNL     1      -3.810  12.100  24.392  0.00  0.00    +0.000 A 
BRANCH  28  31
ATOM     31  C   UNL     1      -7.018  14.043  23.796  0.00  0.00    +0.000 C 
ATOM     32  N   UNL     1      -7.883  13.649  24.677  0.00  0.00    +0.000 NA
ATOM     33  N   UNL     1      -7.385  15.133  23.064  0.00  0.00    +0.000 N 
ATOM     34  H   UNL     1      -7.541  12.848  25.213  0.00  0.00    +0.000 HD
ATOM     35  H   UNL     1      -7.130  15.122  22.084  0.00  0.00    +0.000 HD
ATOM     36  H   UNL     1      -8.376  15.316  23.197  0.00  0.00    +0.000 HD
ENDBRANCH  28  31
ENDBRANCH  24  25
ENDBRANCH  23  24
ENDBRANCH   5  23
TORSDOF 6
ENDMDL
MODEL 7
REMARK VINA RESULT:      -8.0      1.165      1.617
REMARK  Name = 
REMARK  7 active torsions:
REMARK  status: ('A' for Active; 'I' for Inactive)
REMARK    1  A    between atoms: C_1  and  N_2
REMARK    2  A    between atoms: C_5  and  O_6
REMARK    3  A    between atoms: O_6  and  C_7
REMARK    4  A    between atoms: C_7  and  C_8
REMARK    5  A    between atoms: C_11  and  C_12
REMARK    6  A    between atoms: C_20  and  C_21
REMARK    7  A    between atoms: N_23  and  C_24
REMARK                            x       y       z     vdW  Elec       q    Type
REMARK                         _______ _______ _______ _____ _____    ______ ____
ROOT
ATOM      1  C   UNL     1       2.086   3.668  21.619  0.00  0.00    +0.000 C 
ATOM      2  N   UNL     1       2.383   4.121  20.276  0.00  0.00    +0.000 N 
ATOM      3  C   UNL     1       2.801   3.196  19.319  0.00  0.00    +0.000 C 
ATOM      4  O   UNL     1       2.525   2.000  19.368  0.00  0.00    +0.000 OA
ATOM      5  C   UNL     1       3.771   3.853  18.298  0.00  0.00    +0.000 C 
ATOM      6  O   UNL     1       3.232   5.033  17.701  0.00  0.00    +0.000 OA
ATOM      7  C   UNL     1       2.643   5.888  18.600  0.00  0.00    +0.000 A 
ATOM      8  C   UNL     1       2.436   7.205  18.145  0.00  0.00    +0.000 A 
ATOM      9  C   UNL     1       1.803   8.124  18.978  0.00  0.00    +0.000 A 
ATOM     10  C   UNL     1       1.390   7.711  20.257  0.00  0.00    +0.000 A 
ATOM     11  C   UNL     1       1.611   6.409  20.713  0.00  0.00    +0.000 A 
ATOM     12  C   UNL     1       2.237   5.479  19.886  0.00  0.00    +0.000 A 
ENDROOT
BRANCH   9  13
ATOM     13  C   UNL     1       1.599   9.553  18.658  0.00  0.00    +0.000 C 
ATOM     14  O   UNL     1       2.097   9.942  17.600  0.00  0.00    +0.000 OA
ATOM     15  N   UNL     1       0.967  10.370  19.594  0.00  0.00    +0.000 N 
ATOM     16  H   UNL     1       0.818  10.000  20.519  0.00  0.00    +0.000 HD
BRANCH  15  17
ATOM     17  C   UNL     1       0.798  11.770  19.422  0.00  0.00    +0.000 A 
ATOM     18  C   UNL     1      -0.315  12.322  18.772  0.00  0.00    +0.000 A 
ATOM     19  C   UNL     1      -0.398  13.688  18.514  0.00  0.00    +0.000 A 
ATOM     20  C   UNL     1       0.627  14.533  18.924  0.00  0.00    +0.000 A 
ATOM     21  C   UNL     1       1.714  14.008  19.623  0.00  0.00    +0.000 A 
ATOM     22  C   UNL     1       1.794  12.634  19.886  0.00  0.00    +0.000 A 
ENDBRANCH  15  17
ENDBRANCH   9  13
BRANCH   5  23
ATOM     23  O   UNL     1       4.219   2.934  17.303  0.00  0.00    +0.000 OA
BRANCH  23  24
ATOM     24  C   UNL     1       4.798   3.605  16.190  0.00  0.00    +0.000 C 
BRANCH  24  25
ATOM     25  C   UNL     1       5.702   4.740  16.620  0.00  0.00    +0.000 A 
ATOM     26  C   UNL     1       6.714   4.575  17.572  0.00  0.00    +0.000 A 
ATOM     27  C   UNL     1       7.474   5.666  18.010  0.00  0.00    +0.000 A 
ATOM     28  C   UNL     1       7.233   6.944  17.498  0.00  0.00    +0.000 A 
ATOM     29  C   UNL     1       6.253   7.109  16.515  0.00  0.00    +0.000 A 
ATOM     30  C   UNL     1       5.498   6.019  16.072  0.00  0.00    +0.000 A 
BRANCH  28  31
ATOM     31  C   UNL     1       7.976   8.125  18.032  0.00  0.00    +0.000 C 
ATOM     32  N   UNL     1       7.898   9.312  17.517  0.00  0.00    +0.000 NA
ATOM     33  N   UNL     1       8.818   8.005  19.098  0.00  0.00    +0.000 N 
ATOM     34  H   UNL     1       7.231   9.346  16.743  0.00  0.00    +0.000 HD
ATOM     35  H   UNL     1       9.363   7.152  19.146  0.00  0.00    +0.000 HD
ATOM     36  H   UNL     1       9.403   8.835  19.166  0.00  0.00    +0.000 HD
ENDBRANCH  28  31
ENDBRANCH  24  25
ENDBRANCH  23  24
ENDBRANCH   5  23
TORSDOF 6
ENDMDL
MODEL 8
REMARK VINA RESULT:      -8.0      3.053      4.096
REMARK  Name = 
REMARK  7 active torsions:
REMARK  status: ('A' for Active; 'I' for Inactive)
REMARK    1  A    between atoms: C_1  and  N_2
REMARK    2  A    between atoms: C_5  and  O_6
REMARK    3  A    between atoms: O_6  and  C_7
REMARK    4  A    between atoms: C_7  and  C_8
REMARK    5  A    between atoms: C_11  and  C_12
REMARK    6  A    between atoms: C_20  and  C_21
REMARK    7  A    between atoms: N_23  and  C_24
REMARK                            x       y       z     vdW  Elec       q    Type
REMARK                         _______ _______ _______ _____ _____    ______ ____
ROOT
ATOM      1  C   UNL     1       2.978   2.491  20.926  0.00  0.00    +0.000 C 
ATOM      2  N   UNL     1       3.511   3.606  20.172  0.00  0.00    +0.000 N 
ATOM      3  C   UNL     1       4.620   3.407  19.349  0.00  0.00    +0.000 C 
ATOM      4  O   UNL     1       4.916   2.317  18.864  0.00  0.00    +0.000 OA
ATOM      5  C   UNL     1       5.490   4.692  19.269  0.00  0.00    +0.000 C 
ATOM      6  O   UNL     1       4.741   5.846  18.885  0.00  0.00    +0.000 OA
ATOM      7  C   UNL     1       3.545   5.974  19.548  0.00  0.00    +0.000 A 
ATOM      8  C   UNL     1       2.952   7.251  19.496  0.00  0.00    +0.000 A 
ATOM      9  C   UNL     1       1.716   7.455  20.105  0.00  0.00    +0.000 A 
ATOM     10  C   UNL     1       1.094   6.379  20.761  0.00  0.00    +0.000 A 
ATOM     11  C   UNL     1       1.692   5.117  20.826  0.00  0.00    +0.000 A 
ATOM     12  C   UNL     1       2.925   4.899  20.215  0.00  0.00    +0.000 A 
ENDROOT
BRANCH   9  13
ATOM     13  C   UNL     1       1.025   8.759  20.195  0.00  0.00    +0.000 C 
ATOM     14  O   UNL     1       1.295   9.572  19.309  0.00  0.00    +0.000 OA
ATOM     15  N   UNL     1       0.217   9.019  21.301  0.00  0.00    +0.000 N 
ATOM     16  H   UNL     1       0.261   8.379  22.078  0.00  0.00    +0.000 HD
BRANCH  15  17
ATOM     17  C   UNL     1      -0.422  10.268  21.526  0.00  0.00    +0.000 A 
ATOM     18  C   UNL     1      -0.706  10.750  22.811  0.00  0.00    +0.000 A 
ATOM     19  C   UNL     1      -1.437  11.921  23.000  0.00  0.00    +0.000 A 
ATOM     20  C   UNL     1      -1.880  12.644  21.899  0.00  0.00    +0.000 A 
ATOM     21  C   UNL     1      -1.556  12.210  20.614  0.00  0.00    +0.000 A 
ATOM     22  C   UNL     1      -0.816  11.034  20.425  0.00  0.00    +0.000 A 
ENDBRANCH  15  17
ENDBRANCH   9  13
BRANCH   5  23
ATOM     23  O   UNL     1       6.635   4.524  18.435  0.00  0.00    +0.000 OA
BRANCH  23  24
ATOM     24  C   UNL     1       6.710   5.532  17.434  0.00  0.00    +0.000 C 
BRANCH  24  25
ATOM     25  C   UNL     1       6.398   4.989  16.057  0.00  0.00    +0.000 A 
ATOM     26  C   UNL     1       5.182   4.367  15.753  0.00  0.00    +0.000 A 
ATOM     27  C   UNL     1       4.961   3.798  14.493  0.00  0.00    +0.000 A 
ATOM     28  C   UNL     1       5.956   3.846  13.513  0.00  0.00    +0.000 A 
ATOM     29  C   UNL     1       7.158   4.503  13.795  0.00  0.00    +0.000 A 
ATOM     30  C   UNL     1       7.377   5.077  15.051  0.00  0.00    +0.000 A 
BRANCH  28  31
ATOM     31  C   UNL     1       5.760   3.157  12.201  0.00  0.00    +0.000 C 
ATOM     32  N   UNL     1       4.670   3.240  11.506  0.00  0.00    +0.000 NA
ATOM     33  N   UNL     1       6.732   2.361  11.671  0.00  0.00    +0.000 N 
ATOM     34  H   UNL     1       3.992   3.872  11.938  0.00  0.00    +0.000 HD
ATOM     35  H   UNL     1       7.261   1.799  12.328  0.00  0.00    +0.000 HD
ATOM     36  H   UNL     1       6.341   1.800  10.918  0.00  0.00    +0.000 HD
ENDBRANCH  28  31
ENDBRANCH  24  25
ENDBRANCH  23  24
ENDBRANCH   5  23
TORSDOF 6
ENDMDL
MODEL 9
REMARK VINA RESULT:      -7.9      2.990      8.366
REMARK  Name = 
REMARK  7 active torsions:
REMARK  status: ('A' for Active; 'I' for Inactive)
REMARK    1  A    between atoms: C_1  and  N_2
REMARK    2  A    between atoms: C_5  and  O_6
REMARK    3  A    between atoms: O_6  and  C_7
REMARK    4  A    between atoms: C_7  and  C_8
REMARK    5  A    between atoms: C_11  and  C_12
REMARK    6  A    between atoms: C_20  and  C_21
REMARK    7  A    between atoms: N_23  and  C_24
REMARK                            x       y       z     vdW  Elec       q    Type
REMARK                         _______ _______ _______ _____ _____    ______ ____
ROOT
ATOM      1  C   UNL     1      -0.093   9.621  23.161  0.00  0.00    +0.000 C 
ATOM      2  N   UNL     1       0.215  10.036  21.808  0.00  0.00    +0.000 N 
ATOM      3  C   UNL     1      -0.050  11.350  21.420  0.00  0.00    +0.000 C 
ATOM      4  O   UNL     1      -0.102  12.291  22.208  0.00  0.00    +0.000 OA
ATOM      5  C   UNL     1      -0.416  11.420  19.912  0.00  0.00    +0.000 C 
ATOM      6  O   UNL     1       0.562  10.802  19.074  0.00  0.00    +0.000 OA
ATOM      7  C   UNL     1       0.986   9.578  19.529  0.00  0.00    +0.000 A 
ATOM      8  C   UNL     1       1.645   8.769  18.583  0.00  0.00    +0.000 A 
ATOM      9  C   UNL     1       2.147   7.530  18.975  0.00  0.00    +0.000 A 
ATOM     10  C   UNL     1       1.976   7.117  20.308  0.00  0.00    +0.000 A 
ATOM     11  C   UNL     1       1.307   7.914  21.241  0.00  0.00    +0.000 A 
ATOM     12  C   UNL     1       0.807   9.158  20.862  0.00  0.00    +0.000 A 
ENDROOT
BRANCH   9  13
ATOM     13  C   UNL     1       2.785   6.552  18.067  0.00  0.00    +0.000 C 
ATOM     14  O   UNL     1       2.129   5.536  17.828  0.00  0.00    +0.000 OA
ATOM     15  N   UNL     1       4.091   6.782  17.638  0.00  0.00    +0.000 N 
ATOM     16  H   UNL     1       4.611   7.518  18.088  0.00  0.00    +0.000 HD
BRANCH  15  17
ATOM     17  C   UNL     1       4.823   5.866  16.837  0.00  0.00    +0.000 A 
ATOM     18  C   UNL     1       5.229   4.610  17.307  0.00  0.00    +0.000 A 
ATOM     19  C   UNL     1       6.046   3.780  16.541  0.00  0.00    +0.000 A 
ATOM     20  C   UNL     1       6.454   4.189  15.276  0.00  0.00    +0.000 A 
ATOM     21  C   UNL     1       6.011   5.410  14.770  0.00  0.00    +0.000 A 
ATOM     22  C   UNL     1       5.186   6.242  15.540  0.00  0.00    +0.000 A 
ENDBRANCH  15  17
ENDBRANCH   9  13
BRANCH   5  23
ATOM     23  O   UNL     1      -0.693  12.750  19.480  0.00  0.00    +0.000 OA
BRANCH  23  24
ATOM     24  C   UNL     1       0.131  13.131  18.384  0.00  0.00    +0.000 C 
BRANCH  24  25
ATOM     25  C   UNL     1       1.228  14.084  18.803  0.00  0.00    +0.000 A 
ATOM     26  C   UNL     1       0.978  15.223  19.577  0.00  0.00    +0.000 A 
ATOM     27  C   UNL     1       2.002  16.130  19.874  0.00  0.00    +0.000 A 
ATOM     28  C   UNL     1       3.299  15.908  19.401  0.00  0.00    +0.000 A 
ATOM     29  C   UNL     1       3.566  14.751  18.663  0.00  0.00    +0.000 A 
ATOM     30  C   UNL     1       2.545  13.842  18.371  0.00  0.00    +0.000 A 
BRANCH  28  31
ATOM     31  C   UNL     1       4.372  16.922  19.634  0.00  0.00    +0.000 C 
ATOM     32  N   UNL     1       5.287  17.207  18.762  0.00  0.00    +0.000 NA
ATOM     33  N   UNL     1       4.463  17.594  20.817  0.00  0.00    +0.000 N 
ATOM     34  H   UNL     1       5.151  16.696  17.887  0.00  0.00    +0.000 HD
ATOM     35  H   UNL     1       4.244  17.064  21.652  0.00  0.00    +0.000 HD
ATOM     36  H   UNL     1       5.369  18.050  20.882  0.00  0.00    +0.000 HD
ENDBRANCH  28  31
ENDBRANCH  24  25
ENDBRANCH  23  24
ENDBRANCH   5  23
TORSDOF 6
ENDMDL
