MODEL 1
REMARK VINA RESULT:      -6.6      0.000      0.000
REMARK  Name = 
REMARK  6 active torsions:
REMARK  status: ('A' for Active; 'I' for Inactive)
REMARK    1  A    between atoms: C_1  and  O_2
REMARK    2  A    between atoms: O_2  and  C_3
REMARK    3  A    between atoms: C_8  and  O_9
REMARK    4  A    between atoms: O_9  and  C_10
REMARK    5  A    between atoms: N_12  and  C_13
REMARK    6  A    between atoms: C_13  and  C_14
REMARK                            x       y       z     vdW  Elec       q    Type
REMARK                         _______ _______ _______ _____ _____    ______ ____
ROOT
ATOM      1  C   UNL     1       0.608   9.440  20.437  0.00  0.00    +0.000 A 
ATOM      2  C   UNL     1       1.121   9.596  19.150  0.00  0.00    +0.000 A 
ATOM      3  C   UNL     1       0.833  10.790  18.473  0.00  0.00    +0.000 A 
ATOM      4  C   UNL     1       0.289  11.844  19.195  0.00  0.00    +0.000 A 
ATOM      5  C   UNL     1       0.526  11.858  20.558  0.00  0.00    +0.000 A 
ATOM      6  C   UNL     1       0.234  10.598  21.127  0.00  0.00    +0.000 A 
ATOM      7  C   UNL     1       0.466  13.266  21.099  0.00  0.00    +0.000 C 
ATOM      8  N   UNL     1      -0.969  13.746  21.272  0.00  0.00    +0.000 N 
ATOM      9  C   UNL     1      -1.237  13.386  22.725  0.00  0.00    +0.000 C 
ATOM     10  C   UNL     1      -2.659  13.083  23.068  0.00  0.00    +0.000 C 
ATOM     11  C   UNL     1      -3.656  12.949  21.953  0.00  0.00    +0.000 A 
ATOM     12  C   UNL     1      -4.933  12.622  22.421  0.00  0.00    +0.000 A 
ATOM     13  C   UNL     1      -5.846  12.232  21.506  0.00  0.00    +0.000 A 
ATOM     14  C   UNL     1      -5.575  12.221  20.155  0.00  0.00    +0.000 A 
ATOM     15  C   UNL     1      -4.343  12.605  19.632  0.00  0.00    +0.000 A 
ATOM     16  C   UNL     1      -3.326  12.940  20.546  0.00  0.00    +0.000 A 
ATOM     17  C   UNL     1      -1.833  12.924  20.218  0.00  0.00    +0.000 C 
ATOM     18  C   UNL     1      -0.959  12.729  18.829  0.00  0.00    +0.000 C 
ATOM     19  O   UNL     1      -6.637  11.719  19.459  0.00  0.00    +0.000 OA
ATOM     20  C   UNL     1      -7.551  11.347  20.533  0.00  0.00    +0.000 C 
ATOM     21  O   UNL     1      -7.083  11.746  21.825  0.00  0.00    +0.000 OA
ENDROOT
BRANCH   1  23
ATOM     22  C   UNL     1       1.459   7.262  20.884  0.00  0.00    +0.000 C 
ATOM     23  O   UNL     1       0.424   8.235  21.051  0.00  0.00    +0.000 OA
ENDBRANCH   1  23
BRANCH   6  24
ATOM     24  O   UNL     1      -0.724  10.511  22.126  0.00  0.00    +0.000 OA
ATOM     25  C   UNL     1      -0.225   9.866  23.341  0.00  0.00    +0.000 C 
ENDBRANCH   6  24
BRANCH   8  26
ATOM     26  C   UNL     1      -1.222  15.257  21.022  0.00  0.00    +0.000 C 
BRANCH  26  27
ATOM     27  C   UNL     1      -0.138  15.983  20.247  0.00  0.00    +0.000 A 
ATOM     28  C   UNL     1       0.921  16.605  20.927  0.00  0.00    +0.000 A 
ATOM     29  C   UNL     1       1.782  17.465  20.249  0.00  0.00    +0.000 A 
ATOM     30  C   UNL     1       1.618  17.692  18.886  0.00  0.00    +0.000 A 
ATOM     31  C   UNL     1       0.616  17.027  18.182  0.00  0.00    +0.000 A 
ATOM     32  C   UNL     1      -0.253  16.169  18.856  0.00  0.00    +0.000 A 
ENDBRANCH  26  27
ENDBRANCH   8  26
TORSDOF 4
ENDMDL
MODEL 2
REMARK VINA RESULT:      -6.6      2.761      5.718
REMARK  Name = 
REMARK  6 active torsions:
REMARK  status: ('A' for Active; 'I' for Inactive)
REMARK    1  A    between atoms: C_1  and  O_2
REMARK    2  A    between atoms: O_2  and  C_3
REMARK    3  A    between atoms: C_8  and  O_9
REMARK    4  A    between atoms: O_9  and  C_10
REMARK    5  A    between atoms: N_12  and  C_13
REMARK    6  A    between atoms: C_13  and  C_14
REMARK                            x       y       z     vdW  Elec       q    Type
REMARK                         _______ _______ _______ _____ _____    ______ ____
ROOT
ATOM      1  C   UNL     1       1.314  16.182  18.739  0.00  0.00    +0.000 A 
ATOM      2  C   UNL     1       0.548  17.203  19.299  0.00  0.00    +0.000 A 
ATOM      3  C   UNL     1      -0.509  16.837  20.144  0.00  0.00    +0.000 A 
ATOM      4  C   UNL     1      -0.578  15.522  20.584  0.00  0.00    +0.000 A 
ATOM      5  C   UNL     1       0.604  14.804  20.599  0.00  0.00    +0.000 A 
ATOM      6  C   UNL     1       1.280  14.932  19.366  0.00  0.00    +0.000 A 
ATOM      7  C   UNL     1       0.549  13.700  21.629  0.00  0.00    +0.000 C 
ATOM      8  N   UNL     1      -0.254  12.504  21.135  0.00  0.00    +0.000 N 
ATOM      9  C   UNL     1       0.839  11.628  20.542  0.00  0.00    +0.000 C 
ATOM     10  C   UNL     1       0.420  10.740  19.416  0.00  0.00    +0.000 C 
ATOM     11  C   UNL     1      -0.948  10.922  18.826  0.00  0.00    +0.000 A 
ATOM     12  C   UNL     1      -1.183  10.053  17.755  0.00  0.00    +0.000 A 
ATOM     13  C   UNL     1      -2.270  10.291  16.991  0.00  0.00    +0.000 A 
ATOM     14  C   UNL     1      -3.166  11.298  17.280  0.00  0.00    +0.000 A 
ATOM     15  C   UNL     1      -3.016  12.145  18.375  0.00  0.00    +0.000 A 
ATOM     16  C   UNL     1      -1.856  11.997  19.158  0.00  0.00    +0.000 A 
ATOM     17  C   UNL     1      -1.287  13.083  20.071  0.00  0.00    +0.000 C 
ATOM     18  C   UNL     1      -1.824  14.561  20.578  0.00  0.00    +0.000 C 
ATOM     19  O   UNL     1      -4.130  11.371  16.316  0.00  0.00    +0.000 OA
ATOM     20  C   UNL     1      -3.681  10.360  15.366  0.00  0.00    +0.000 C 
ATOM     21  O   UNL     1      -2.548   9.621  15.833  0.00  0.00    +0.000 OA
ENDROOT
BRANCH   1  23
ATOM     22  C   UNL     1       3.394  16.825  17.775  0.00  0.00    +0.000 C 
ATOM     23  O   UNL     1       2.067  16.317  17.608  0.00  0.00    +0.000 OA
ENDBRANCH   1  23
BRANCH   6  24
ATOM     24  O   UNL     1       1.558  13.794  18.623  0.00  0.00    +0.000 OA
ATOM     25  C   UNL     1       2.972  13.420  18.657  0.00  0.00    +0.000 C 
ENDBRANCH   6  24
BRANCH   8  26
ATOM     26  C   UNL     1      -1.061  11.728  22.211  0.00  0.00    +0.000 C 
BRANCH  26  27
ATOM     27  C   UNL     1      -1.997  12.568  23.060  0.00  0.00    +0.000 A 
ATOM     28  C   UNL     1      -3.385  12.366  22.991  0.00  0.00    +0.000 A 
ATOM     29  C   UNL     1      -4.256  13.279  23.581  0.00  0.00    +0.000 A 
ATOM     30  C   UNL     1      -3.759  14.382  24.268  0.00  0.00    +0.000 A 
ATOM     31  C   UNL     1      -2.384  14.557  24.407  0.00  0.00    +0.000 A 
ATOM     32  C   UNL     1      -1.505  13.650  23.815  0.00  0.00    +0.000 A 
ENDBRANCH  26  27
ENDBRANCH   8  26
TORSDOF 4
ENDMDL
MODEL 3
REMARK VINA RESULT:      -6.6      0.553      1.012
REMARK  Name = 
REMARK  6 active torsions:
REMARK  status: ('A' for Active; 'I' for Inactive)
REMARK    1  A    between atoms: C_1  and  O_2
REMARK    2  A    between atoms: O_2  and  C_3
REMARK    3  A    between atoms: C_8  and  O_9
REMARK    4  A    between atoms: O_9  and  C_10
REMARK    5  A    between atoms: N_12  and  C_13
REMARK    6  A    between atoms: C_13  and  C_14
REMARK                            x       y       z     vdW  Elec       q    Type
REMARK                         _______ _______ _______ _____ _____    ______ ____
ROOT
ATOM      1  C   UNL     1       0.772   9.240  20.436  0.00  0.00    +0.000 A 
ATOM      2  C   UNL     1       1.292   9.338  19.146  0.00  0.00    +0.000 A 
ATOM      3  C   UNL     1       1.052  10.523  18.435  0.00  0.00    +0.000 A 
ATOM      4  C   UNL     1       0.548  11.618  19.125  0.00  0.00    +0.000 A 
ATOM      5  C   UNL     1       0.784  11.661  20.487  0.00  0.00    +0.000 A 
ATOM      6  C   UNL     1       0.442  10.431  21.092  0.00  0.00    +0.000 A 
ATOM      7  C   UNL     1       0.778  13.086  20.988  0.00  0.00    +0.000 C 
ATOM      8  N   UNL     1      -0.637  13.626  21.143  0.00  0.00    +0.000 N 
ATOM      9  C   UNL     1      -0.921  13.319  22.606  0.00  0.00    +0.000 C 
ATOM     10  C   UNL     1      -2.354  13.082  22.954  0.00  0.00    +0.000 C 
ATOM     11  C   UNL     1      -3.354  12.954  21.841  0.00  0.00    +0.000 A 
ATOM     12  C   UNL     1      -4.643  12.691  22.315  0.00  0.00    +0.000 A 
ATOM     13  C   UNL     1      -5.570  12.311  21.409  0.00  0.00    +0.000 A 
ATOM     14  C   UNL     1      -5.298  12.250  20.060  0.00  0.00    +0.000 A 
ATOM     15  C   UNL     1      -4.051  12.571  19.529  0.00  0.00    +0.000 A 
ATOM     16  C   UNL     1      -3.023  12.892  20.435  0.00  0.00    +0.000 A 
ATOM     17  C   UNL     1      -1.531  12.808  20.111  0.00  0.00    +0.000 C 
ATOM     18  C   UNL     1      -0.664  12.539  18.730  0.00  0.00    +0.000 C 
ATOM     19  O   UNL     1      -6.378  11.770  19.376  0.00  0.00    +0.000 OA
ATOM     20  C   UNL     1      -7.307  11.466  20.459  0.00  0.00    +0.000 C 
ATOM     21  O   UNL     1      -6.825  11.883  21.740  0.00  0.00    +0.000 OA
ENDROOT
BRANCH   1  23
ATOM     22  C   UNL     1       1.469   7.000  20.844  0.00  0.00    +0.000 C 
ATOM     23  O   UNL     1       0.540   8.061  21.084  0.00  0.00    +0.000 OA
ENDBRANCH   1  23
BRANCH   6  24
ATOM     24  O   UNL     1      -0.519  10.410  22.091  0.00  0.00    +0.000 OA
ATOM     25  C   UNL     1      -0.055   9.763  23.318  0.00  0.00    +0.000 C 
ENDBRANCH   6  24
BRANCH   8  26
ATOM     26  C   UNL     1      -0.830  15.138  20.849  0.00  0.00    +0.000 C 
BRANCH  26  27
ATOM     27  C   UNL     1       0.390  15.862  20.311  0.00  0.00    +0.000 A 
ATOM     28  C   UNL     1       0.646  15.884  18.931  0.00  0.00    +0.000 A 
ATOM     29  C   UNL     1       1.873  16.338  18.453  0.00  0.00    +0.000 A 
ATOM     30  C   UNL     1       2.844  16.800  19.336  0.00  0.00    +0.000 A 
ATOM     31  C   UNL     1       2.578  16.852  20.702  0.00  0.00    +0.000 A 
ATOM     32  C   UNL     1       1.353  16.395  21.189  0.00  0.00    +0.000 A 
ENDBRANCH  26  27
ENDBRANCH   8  26
TORSDOF 4
ENDMDL
MODEL 4
REMARK VINA RESULT:      -6.6      2.686      6.425
REMARK  Name = 
REMARK  6 active torsions:
REMARK  status: ('A' for Active; 'I' for Inactive)
REMARK    1  A    between atoms: C_1  and  O_2
REMARK    2  A    between atoms: O_2  and  C_3
REMARK    3  A    between atoms: C_8  and  O_9
REMARK    4  A    between atoms: O_9  and  C_10
REMARK    5  A    between atoms: N_12  and  C_13
REMARK    6  A    between atoms: C_13  and  C_14
REMARK                            x       y       z     vdW  Elec       q    Type
REMARK                         _______ _______ _______ _____ _____    ______ ____
ROOT
ATOM      1  C   UNL     1      -4.938  11.904  17.832  0.00  0.00    +0.000 A 
ATOM      2  C   UNL     1      -4.607  11.400  16.575  0.00  0.00    +0.000 A 
ATOM      3  C   UNL     1      -3.248  11.204  16.288  0.00  0.00    +0.000 A 
ATOM      4  C   UNL     1      -2.336  11.269  17.333  0.00  0.00    +0.000 A 
ATOM      5  C   UNL     1      -2.820  11.017  18.603  0.00  0.00    +0.000 A 
ATOM      6  C   UNL     1      -3.988  11.773  18.851  0.00  0.00    +0.000 A 
ATOM      7  C   UNL     1      -1.723  10.501  19.503  0.00  0.00    +0.000 C 
ATOM      8  N   UNL     1      -0.818  11.623  19.994  0.00  0.00    +0.000 N 
ATOM      9  C   UNL     1      -1.469  11.980  21.321  0.00  0.00    +0.000 C 
ATOM     10  C   UNL     1      -1.307  13.398  21.764  0.00  0.00    +0.000 C 
ATOM     11  C   UNL     1      -0.719  14.390  20.802  0.00  0.00    +0.000 A 
ATOM     12  C   UNL     1      -0.671  15.681  21.338  0.00  0.00    +0.000 A 
ATOM     13  C   UNL     1      -0.399  16.694  20.487  0.00  0.00    +0.000 A 
ATOM     14  C   UNL     1      -0.105  16.479  19.158  0.00  0.00    +0.000 A 
ATOM     15  C   UNL     1      -0.071  15.207  18.592  0.00  0.00    +0.000 A 
ATOM     16  C   UNL     1      -0.430  14.122  19.412  0.00  0.00    +0.000 A 
ATOM     17  C   UNL     1      -0.902  12.765  18.889  0.00  0.00    +0.000 C 
ATOM     18  C   UNL     1      -0.984  12.071  17.391  0.00  0.00    +0.000 C 
ATOM     19  O   UNL     1       0.059  17.668  18.507  0.00  0.00    +0.000 OA
ATOM     20  C   UNL     1      -0.248  18.630  19.559  0.00  0.00    +0.000 C 
ATOM     21  O   UNL     1      -0.459  18.015  20.833  0.00  0.00    +0.000 OA
ENDROOT
BRANCH   1  23
ATOM     22  C   UNL     1      -6.640  13.407  17.116  0.00  0.00    +0.000 C 
ATOM     23  O   UNL     1      -6.111  12.538  18.122  0.00  0.00    +0.000 OA
ENDBRANCH   1  23
BRANCH   6  24
ATOM     24  O   UNL     1      -4.007  12.664  19.913  0.00  0.00    +0.000 OA
ATOM     25  C   UNL     1      -5.054  12.368  20.890  0.00  0.00    +0.000 C 
ENDBRANCH   6  24
BRANCH   8  26
ATOM     26  C   UNL     1       0.678  11.260  20.193  0.00  0.00    +0.000 C 
BRANCH  26  27
ATOM     27  C   UNL     1       1.113   9.929  19.610  0.00  0.00    +0.000 A 
ATOM     28  C   UNL     1       1.265   8.809  20.442  0.00  0.00    +0.000 A 
ATOM     29  C   UNL     1       1.884   7.657  19.962  0.00  0.00    +0.000 A 
ATOM     30  C   UNL     1       2.330   7.595  18.645  0.00  0.00    +0.000 A 
ATOM     31  C   UNL     1       2.122   8.672  17.786  0.00  0.00    +0.000 A 
ATOM     32  C   UNL     1       1.508   9.831  18.261  0.00  0.00    +0.000 A 
ENDBRANCH  26  27
ENDBRANCH   8  26
TORSDOF 4
ENDMDL
MODEL 5
REMARK VINA RESULT:      -6.5      1.238      1.532
REMARK  Name = 
REMARK  6 active torsions:
REMARK  status: ('A' for Active; 'I' for Inactive)
REMARK    1  A    between atoms: C_1  and  O_2
REMARK    2  A    between atoms: O_2  and  C_3
REMARK    3  A    between atoms: C_8  and  O_9
REMARK    4  A    between atoms: O_9  and  C_10
REMARK    5  A    between atoms: N_12  and  C_13
REMARK    6  A    between atoms: C_13  and  C_14
REMARK                            x       y       z     vdW  Elec       q    Type
REMARK                         _______ _______ _______ _____ _____    ______ ____
ROOT
ATOM      1  C   UNL     1       0.606  10.100  20.825  0.00  0.00    +0.000 A 
ATOM      2  C   UNL     1       0.580   9.977  19.437  0.00  0.00    +0.000 A 
ATOM      3  C   UNL     1      -0.027  11.006  18.703  0.00  0.00    +0.000 A 
ATOM      4  C   UNL     1      -0.330  12.194  19.355  0.00  0.00    +0.000 A 
ATOM      5  C   UNL     1       0.405  12.490  20.490  0.00  0.00    +0.000 A 
ATOM      6  C   UNL     1       0.441  11.380  21.363  0.00  0.00    +0.000 A 
ATOM      7  C   UNL     1       0.455  13.981  20.723  0.00  0.00    +0.000 C 
ATOM      8  N   UNL     1      -0.837  14.502  21.337  0.00  0.00    +0.000 N 
ATOM      9  C   UNL     1      -0.507  14.457  22.821  0.00  0.00    +0.000 C 
ATOM     10  C   UNL     1      -1.668  14.249  23.739  0.00  0.00    +0.000 C 
ATOM     11  C   UNL     1      -3.001  13.895  23.145  0.00  0.00    +0.000 A 
ATOM     12  C   UNL     1      -3.978  13.688  24.124  0.00  0.00    +0.000 A 
ATOM     13  C   UNL     1      -5.140  13.125  23.729  0.00  0.00    +0.000 A 
ATOM     14  C   UNL     1      -5.402  12.828  22.409  0.00  0.00    +0.000 A 
ATOM     15  C   UNL     1      -4.491  13.081  21.387  0.00  0.00    +0.000 A 
ATOM     16  C   UNL     1      -3.229  13.588  21.752  0.00  0.00    +0.000 A 
ATOM     17  C   UNL     1      -1.976  13.487  20.883  0.00  0.00    +0.000 C 
ATOM     18  C   UNL     1      -1.682  12.996  19.332  0.00  0.00    +0.000 C 
ATOM     19  O   UNL     1      -6.610  12.204  22.290  0.00  0.00    +0.000 OA
ATOM     20  C   UNL     1      -7.019  12.075  23.685  0.00  0.00    +0.000 C 
ATOM     21  O   UNL     1      -6.125  12.730  24.590  0.00  0.00    +0.000 OA
ENDROOT
BRANCH   1  23
ATOM     22  C   UNL     1       1.285   7.840  21.144  0.00  0.00    +0.000 C 
ATOM     23  O   UNL     1       0.755   9.052  21.688  0.00  0.00    +0.000 OA
ENDBRANCH   1  23
BRANCH   6  24
ATOM     24  O   UNL     1      -0.057  11.515  22.651  0.00  0.00    +0.000 OA
ATOM     25  C   UNL     1      -1.218  10.663  22.907  0.00  0.00    +0.000 C 
ENDBRANCH   6  24
BRANCH   8  26
ATOM     26  C   UNL     1      -1.272  15.930  20.911  0.00  0.00    +0.000 C 
BRANCH  26  27
ATOM     27  C   UNL     1      -0.367  16.619  19.906  0.00  0.00    +0.000 A 
ATOM     28  C   UNL     1       0.755  17.340  20.345  0.00  0.00    +0.000 A 
ATOM     29  C   UNL     1       1.450  18.162  19.460  0.00  0.00    +0.000 A 
ATOM     30  C   UNL     1       1.056  18.254  18.129  0.00  0.00    +0.000 A 
ATOM     31  C   UNL     1      -0.011  17.489  17.662  0.00  0.00    +0.000 A 
ATOM     32  C   UNL     1      -0.714  16.667  18.543  0.00  0.00    +0.000 A 
ENDBRANCH  26  27
ENDBRANCH   8  26
TORSDOF 4
ENDMDL
MODEL 6
REMARK VINA RESULT:      -6.5      7.911     10.085
REMARK  Name = 
REMARK  6 active torsions:
REMARK  status: ('A' for Active; 'I' for Inactive)
REMARK    1  A    between atoms: C_1  and  O_2
REMARK    2  A    between atoms: O_2  and  C_3
REMARK    3  A    between atoms: C_8  and  O_9
REMARK    4  A    between atoms: O_9  and  C_10
REMARK    5  A    between atoms: N_12  and  C_13
REMARK    6  A    between atoms: C_13  and  C_14
REMARK                            x       y       z     vdW  Elec       q    Type
REMARK                         _______ _______ _______ _____ _____    ______ ____
ROOT
ATOM      1  C   UNL     1       9.862  11.149  19.045  0.00  0.00    +0.000 A 
ATOM      2  C   UNL     1      10.603  11.412  17.895  0.00  0.00    +0.000 A 
ATOM      3  C   UNL     1      10.664  12.740  17.447  0.00  0.00    +0.000 A 
ATOM      4  C   UNL     1      10.216  13.744  18.296  0.00  0.00    +0.000 A 
ATOM      5  C   UNL     1      10.220  13.466  19.651  0.00  0.00    +0.000 A 
ATOM      6  C   UNL     1       9.604  12.221  19.906  0.00  0.00    +0.000 A 
ATOM      7  C   UNL     1      10.337  14.737  20.459  0.00  0.00    +0.000 C 
ATOM      8  N   UNL     1       9.011  15.480  20.542  0.00  0.00    +0.000 N 
ATOM      9  C   UNL     1       8.440  14.938  21.844  0.00  0.00    +0.000 C 
ATOM     10  C   UNL     1       6.949  14.897  21.932  0.00  0.00    +0.000 C 
ATOM     11  C   UNL     1       6.146  15.181  20.696  0.00  0.00    +0.000 A 
ATOM     12  C   UNL     1       4.771  15.063  20.919  0.00  0.00    +0.000 A 
ATOM     13  C   UNL     1       3.966  15.048  19.835  0.00  0.00    +0.000 A 
ATOM     14  C   UNL     1       4.452  15.216  18.556  0.00  0.00    +0.000 A 
ATOM     15  C   UNL     1       5.805  15.408  18.286  0.00  0.00    +0.000 A 
ATOM     16  C   UNL     1       6.699  15.347  19.371  0.00  0.00    +0.000 A 
ATOM     17  C   UNL     1       8.196  15.064  19.240  0.00  0.00    +0.000 C 
ATOM     18  C   UNL     1       9.237  14.929  17.963  0.00  0.00    +0.000 C 
ATOM     19  O   UNL     1       3.447  15.088  17.642  0.00  0.00    +0.000 OA
ATOM     20  C   UNL     1       2.313  14.741  18.492  0.00  0.00    +0.000 C 
ATOM     21  O   UNL     1       2.624  14.796  19.887  0.00  0.00    +0.000 OA
ENDROOT
BRANCH   1  23
ATOM     22  C   UNL     1       8.536   9.285  18.385  0.00  0.00    +0.000 C 
ATOM     23  O   UNL     1       9.353   9.924  19.369  0.00  0.00    +0.000 OA
ENDBRANCH   1  23
BRANCH   6  24
ATOM     24  O   UNL     1       8.493  12.170  20.736  0.00  0.00    +0.000 OA
ATOM     25  C   UNL     1       8.782  11.581  22.043  0.00  0.00    +0.000 C 
ENDBRANCH   6  24
BRANCH   8  26
ATOM     26  C   UNL     1       9.094  17.030  20.579  0.00  0.00    +0.000 C 
BRANCH  26  27
ATOM     27  C   UNL     1      10.016  17.661  19.553  0.00  0.00    +0.000 A 
ATOM     28  C   UNL     1       9.485  18.262  18.401  0.00  0.00    +0.000 A 
ATOM     29  C   UNL     1      10.324  18.630  17.351  0.00  0.00    +0.000 A 
ATOM     30  C   UNL     1      11.697  18.432  17.447  0.00  0.00    +0.000 A 
ATOM     31  C   UNL     1      12.248  17.903  18.612  0.00  0.00    +0.000 A 
ATOM     32  C   UNL     1      11.413  17.528  19.666  0.00  0.00    +0.000 A 
ENDBRANCH  26  27
ENDBRANCH   8  26
TORSDOF 4
ENDMDL
MODEL 7
REMARK VINA RESULT:      -6.5      2.753      5.980
REMARK  Name = 
REMARK  6 active torsions:
REMARK  status: ('A' for Active; 'I' for Inactive)
REMARK    1  A    between atoms: C_1  and  O_2
REMARK    2  A    between atoms: O_2  and  C_3
REMARK    3  A    between atoms: C_8  and  O_9
REMARK    4  A    between atoms: O_9  and  C_10
REMARK    5  A    between atoms: N_12  and  C_13
REMARK    6  A    between atoms: C_13  and  C_14
REMARK                            x       y       z     vdW  Elec       q    Type
REMARK                         _______ _______ _______ _____ _____    ______ ____
ROOT
ATOM      1  C   UNL     1       0.771  16.884  18.610  0.00  0.00    +0.000 A 
ATOM      2  C   UNL     1      -0.117  17.795  19.179  0.00  0.00    +0.000 A 
ATOM      3  C   UNL     1      -1.044  17.307  20.111  0.00  0.00    +0.000 A 
ATOM      4  C   UNL     1      -0.867  16.023  20.609  0.00  0.00    +0.000 A 
ATOM      5  C   UNL     1       0.416  15.508  20.572  0.00  0.00    +0.000 A 
ATOM      6  C   UNL     1       0.984  15.680  19.290  0.00  0.00    +0.000 A 
ATOM      7  C   UNL     1       0.608  14.466  21.648  0.00  0.00    +0.000 C 
ATOM      8  N   UNL     1      -0.014  13.132  21.261  0.00  0.00    +0.000 N 
ATOM      9  C   UNL     1       1.169  12.415  20.631  0.00  0.00    +0.000 C 
ATOM     10  C   UNL     1       0.835  11.412  19.575  0.00  0.00    +0.000 C 
ATOM     11  C   UNL     1      -0.579  11.338  19.074  0.00  0.00    +0.000 A 
ATOM     12  C   UNL     1      -0.732  10.388  18.060  0.00  0.00    +0.000 A 
ATOM     13  C   UNL     1      -1.889  10.406  17.364  0.00  0.00    +0.000 A 
ATOM     14  C   UNL     1      -2.919  11.267  17.673  0.00  0.00    +0.000 A 
ATOM     15  C   UNL     1      -2.844  12.183  18.719  0.00  0.00    +0.000 A 
ATOM     16  C   UNL     1      -1.629  12.267  19.424  0.00  0.00    +0.000 A 
ATOM     17  C   UNL     1      -1.193  13.478  20.249  0.00  0.00    +0.000 C 
ATOM     18  C   UNL     1      -1.934  14.874  20.731  0.00  0.00    +0.000 C 
ATOM     19  O   UNL     1      -3.940  11.131  16.777  0.00  0.00    +0.000 OA
ATOM     20  C   UNL     1      -3.389  10.158  15.840  0.00  0.00    +0.000 C 
ATOM     21  O   UNL     1      -2.123   9.639  16.257  0.00  0.00    +0.000 OA
ENDROOT
BRANCH   1  23
ATOM     22  C   UNL     1       1.119  18.285  16.717  0.00  0.00    +0.000 C 
ATOM     23  O   UNL     1       1.421  17.080  17.425  0.00  0.00    +0.000 OA
ENDBRANCH   1  23
BRANCH   6  24
ATOM     24  O   UNL     1       1.400  14.565  18.578  0.00  0.00    +0.000 OA
ATOM     25  C   UNL     1       2.856  14.457  18.483  0.00  0.00    +0.000 C 
ENDBRANCH   6  24
BRANCH   8  26
ATOM     26  C   UNL     1      -0.613  12.292  22.422  0.00  0.00    +0.000 C 
BRANCH  26  27
ATOM     27  C   UNL     1      -1.804  12.910  23.131  0.00  0.00    +0.000 A 
ATOM     28  C   UNL     1      -1.638  14.063  23.915  0.00  0.00    +0.000 A 
ATOM     29  C   UNL     1      -2.666  14.496  24.751  0.00  0.00    +0.000 A 
ATOM     30  C   UNL     1      -3.874  13.808  24.794  0.00  0.00    +0.000 A 
ATOM     31  C   UNL     1      -4.079  12.704  23.968  0.00  0.00    +0.000 A 
ATOM     32  C   UNL     1      -3.053  12.262  23.133  0.00  0.00    +0.000 A 
ENDBRANCH  26  27
ENDBRANCH   8  26
TORSDOF 4
ENDMDL
MODEL 8
REMARK VINA RESULT:      -6.4      8.047     10.643
REMARK  Name = 
REMARK  6 active torsions:
REMARK  status: ('A' for Active; 'I' for Inactive)
REMARK    1  A    between atoms: C_1  and  O_2
REMARK    2  A    between atoms: O_2  and  C_3
REMARK    3  A    between atoms: C_8  and  O_9
REMARK    4  A    between atoms: O_9  and  C_10
REMARK    5  A    between atoms: N_12  and  C_13
REMARK    6  A    between atoms: C_13  and  C_14
REMARK                            x       y       z     vdW  Elec       q    Type
REMARK                         _______ _______ _______ _____ _____    ______ ____
ROOT
ATOM      1  C   UNL     1       7.188  13.094  24.332  0.00  0.00    +0.000 A 
ATOM      2  C   UNL     1       7.622  11.792  24.088  0.00  0.00    +0.000 A 
ATOM      3  C   UNL     1       8.320  11.551  22.896  0.00  0.00    +0.000 A 
ATOM      4  C   UNL     1       8.766  12.640  22.159  0.00  0.00    +0.000 A 
ATOM      5  C   UNL     1       8.954  13.826  22.846  0.00  0.00    +0.000 A 
ATOM      6  C   UNL     1       7.823  14.128  23.637  0.00  0.00    +0.000 A 
ATOM      7  C   UNL     1       9.983  14.689  22.156  0.00  0.00    +0.000 C 
ATOM      8  N   UNL     1       9.402  15.402  20.942  0.00  0.00    +0.000 N 
ATOM      9  C   UNL     1       8.977  16.732  21.545  0.00  0.00    +0.000 C 
ATOM     10  C   UNL     1       7.819  17.405  20.884  0.00  0.00    +0.000 C 
ATOM     11  C   UNL     1       7.044  16.648  19.844  0.00  0.00    +0.000 A 
ATOM     12  C   UNL     1       5.964  17.386  19.348  0.00  0.00    +0.000 A 
ATOM     13  C   UNL     1       5.054  16.725  18.600  0.00  0.00    +0.000 A 
ATOM     14  C   UNL     1       5.203  15.396  18.265  0.00  0.00    +0.000 A 
ATOM     15  C   UNL     1       6.296  14.636  18.675  0.00  0.00    +0.000 A 
ATOM     16  C   UNL     1       7.232  15.251  19.528  0.00  0.00    +0.000 A 
ATOM     17  C   UNL     1       8.198  14.491  20.437  0.00  0.00    +0.000 C 
ATOM     18  C   UNL     1       8.604  12.899  20.616  0.00  0.00    +0.000 C 
ATOM     19  O   UNL     1       4.115  14.954  17.569  0.00  0.00    +0.000 OA
ATOM     20  C   UNL     1       3.251  16.129  17.587  0.00  0.00    +0.000 C 
ATOM     21  O   UNL     1       3.880  17.275  18.170  0.00  0.00    +0.000 OA
ENDROOT
BRANCH   1  23
ATOM     22  C   UNL     1       6.257  12.912  26.517  0.00  0.00    +0.000 C 
ATOM     23  O   UNL     1       6.169  13.418  25.182  0.00  0.00    +0.000 OA
ENDBRANCH   1  23
BRANCH   6  24
ATOM     24  O   UNL     1       7.143  15.317  23.421  0.00  0.00    +0.000 OA
ATOM     25  C   UNL     1       7.318  16.281  24.507  0.00  0.00    +0.000 C 
ENDBRANCH   6  24
BRANCH   8  26
ATOM     26  C   UNL     1      10.369  15.620  19.747  0.00  0.00    +0.000 C 
BRANCH  26  27
ATOM     27  C   UNL     1      10.922  14.358  19.112  0.00  0.00    +0.000 A 
ATOM     28  C   UNL     1      10.406  13.898  17.890  0.00  0.00    +0.000 A 
ATOM     29  C   UNL     1      10.739  12.628  17.423  0.00  0.00    +0.000 A 
ATOM     30  C   UNL     1      11.607  11.817  18.147  0.00  0.00    +0.000 A 
ATOM     31  C   UNL     1      12.183  12.288  19.325  0.00  0.00    +0.000 A 
ATOM     32  C   UNL     1      11.851  13.556  19.802  0.00  0.00    +0.000 A 
ENDBRANCH  26  27
ENDBRANCH   8  26
TORSDOF 4
ENDMDL
MODEL 9
REMARK VINA RESULT:      -6.4      2.593      6.571
REMARK  Name = 
REMARK  6 active torsions:
REMARK  status: ('A' for Active; 'I' for Inactive)
REMARK    1  A    between atoms: C_1  and  O_2
REMARK    2  A    between atoms: O_2  and  C_3
REMARK    3  A    between atoms: C_8  and  O_9
REMARK    4  A    between atoms: O_9  and  C_10
REMARK    5  A    between atoms: N_12  and  C_13
REMARK    6  A    between atoms: C_13  and  C_14
REMARK                            x       y       z     vdW  Elec       q    Type
REMARK                         _______ _______ _______ _____ _____    ______ ____
ROOT
ATOM      1  C   UNL     1      -7.010  11.309  20.426  0.00  0.00    +0.000 A 
ATOM      2  C   UNL     1      -7.849  11.289  21.539  0.00  0.00    +0.000 A 
ATOM      3  C   UNL     1      -7.421  11.962  22.692  0.00  0.00    +0.000 A 
ATOM      4  C   UNL     1      -6.332  12.818  22.591  0.00  0.00    +0.000 A 
ATOM      5  C   UNL     1      -6.062  13.342  21.339  0.00  0.00    +0.000 A 
ATOM      6  C   UNL     1      -6.045  12.320  20.364  0.00  0.00    +0.000 A 
ATOM      7  C   UNL     1      -5.335  14.661  21.455  0.00  0.00    +0.000 C 
ATOM      8  N   UNL     1      -3.859  14.469  21.772  0.00  0.00    +0.000 N 
ATOM      9  C   UNL     1      -3.245  14.477  20.380  0.00  0.00    +0.000 C 
ATOM     10  C   UNL     1      -1.991  13.683  20.218  0.00  0.00    +0.000 C 
ATOM     11  C   UNL     1      -1.554  12.789  21.342  0.00  0.00    +0.000 A 
ATOM     12  C   UNL     1      -0.391  12.077  21.031  0.00  0.00    +0.000 A 
ATOM     13  C   UNL     1      -0.046  11.064  21.855  0.00  0.00    +0.000 A 
ATOM     14  C   UNL     1      -0.754  10.775  23.002  0.00  0.00    +0.000 A 
ATOM     15  C   UNL     1      -1.878  11.499  23.393  0.00  0.00    +0.000 A 
ATOM     16  C   UNL     1      -2.333  12.511  22.527  0.00  0.00    +0.000 A 
ATOM     17  C   UNL     1      -3.754  13.074  22.531  0.00  0.00    +0.000 C 
ATOM     18  C   UNL     1      -5.066  12.891  23.520  0.00  0.00    +0.000 C 
ATOM     19  O   UNL     1      -0.242   9.667  23.613  0.00  0.00    +0.000 OA
ATOM     20  C   UNL     1       0.798   9.262  22.675  0.00  0.00    +0.000 C 
ATOM     21  O   UNL     1       0.976  10.193  21.603  0.00  0.00    +0.000 OA
ENDROOT
BRANCH   1  23
ATOM     22  C   UNL     1      -7.161   9.019  19.791  0.00  0.00    +0.000 C 
ATOM     23  O   UNL     1      -7.052  10.394  19.413  0.00  0.00    +0.000 OA
ENDBRANCH   1  23
BRANCH   6  24
ATOM     24  O   UNL     1      -4.893  12.112  19.620  0.00  0.00    +0.000 OA
ATOM     25  C   UNL     1      -5.108  12.259  18.181  0.00  0.00    +0.000 C 
ENDBRANCH   6  24
BRANCH   8  26
ATOM     26  C   UNL     1      -3.203  15.552  22.670  0.00  0.00    +0.000 C 
BRANCH  26  27
ATOM     27  C   UNL     1      -4.128  16.658  23.144  0.00  0.00    +0.000 A 
ATOM     28  C   UNL     1      -4.797  16.542  24.373  0.00  0.00    +0.000 A 
ATOM     29  C   UNL     1      -5.817  17.431  24.702  0.00  0.00    +0.000 A 
ATOM     30  C   UNL     1      -6.163  18.459  23.831  0.00  0.00    +0.000 A 
ATOM     31  C   UNL     1      -5.461  18.631  22.639  0.00  0.00    +0.000 A 
ATOM     32  C   UNL     1      -4.441  17.741  22.301  0.00  0.00    +0.000 A 
ENDBRANCH  26  27
ENDBRANCH   8  26
TORSDOF 4
ENDMDL
