MODEL 1
REMARK VINA RESULT:      -8.5      0.000      0.000
REMARK  Name = 
REMARK  5 active torsions:
REMARK  status: ('A' for Active; 'I' for Inactive)
REMARK    1  A    between atoms: C_2  and  C_3
REMARK    2  A    between atoms: C_3  and  C_4
REMARK    3  A    between atoms: C_4  and  N_5
REMARK    4  A    between atoms: C_13  and  C_14
REMARK    5  A    between atoms: C_17  and  N_18
REMARK                            x       y       z     vdW  Elec       q    Type
REMARK                         _______ _______ _______ _____ _____    ______ ____
ROOT
ATOM      1  C   UNL     1       1.474   8.656  19.467  0.00  0.00    +0.000 A 
ATOM      2  C   UNL     1       0.980   9.665  18.626  0.00  0.00    +0.000 A 
ATOM      3  C   UNL     1       0.081  10.634  19.092  0.00  0.00    +0.000 A 
ATOM      4  C   UNL     1      -0.372  10.607  20.409  0.00  0.00    +0.000 A 
ATOM      5  C   UNL     1       0.106   9.604  21.257  0.00  0.00    +0.000 A 
ATOM      6  C   UNL     1       1.008   8.635  20.788  0.00  0.00    +0.000 A 
ENDROOT
BRANCH   4   7
ATOM      7  N   UNL     1      -1.274  11.557  20.935  0.00  0.00    +0.000 N 
ATOM      8  C   UNL     1      -0.950  12.608  21.766  0.00  0.00    +0.000 C 
ATOM      9  O   UNL     1       0.196  12.934  22.070  0.00  0.00    +0.000 OA
ATOM     10  N   UNL     1      -2.031  13.327  22.228  0.00  0.00    +0.000 N 
ATOM     11  C   UNL     1      -1.803  14.546  23.006  0.00  0.00    +0.000 C 
ATOM     12  C   UNL     1      -3.181  14.968  23.396  0.00  0.00    +0.000 A 
ATOM     13  C   UNL     1      -3.597  16.103  24.063  0.00  0.00    +0.000 A 
ATOM     14  C   UNL     1      -4.958  16.212  24.303  0.00  0.00    +0.000 A 
ATOM     15  N   UNL     1      -5.883  15.284  23.932  0.00  0.00    +0.000 NA
ATOM     16  C   UNL     1      -5.437  14.186  23.281  0.00  0.00    +0.000 A 
ATOM     17  C   UNL     1      -4.106  14.004  22.994  0.00  0.00    +0.000 A 
ATOM     18  C   UNL     1      -3.425  12.884  22.290  0.00  0.00    +0.000 C 
ATOM     19  H   UNL     1      -2.157  11.640  20.458  0.00  0.00    +0.000 HD
ENDBRANCH   4   7
BRANCH   1  25
ATOM     20  O   UNL     1       4.746   4.469  16.019  0.00  0.00    +0.000 OA
ATOM     21  C   UNL     1       4.466   4.432  17.217  0.00  0.00    +0.000 C 
ATOM     22  N   UNL     1       4.057   5.557  17.923  0.00  0.00    +0.000 N 
ATOM     23  C   UNL     1       3.817   5.557  19.361  0.00  0.00    +0.000 C 
ATOM     24  C   UNL     1       2.909   6.671  19.780  0.00  0.00    +0.000 C 
ATOM     25  C   UNL     1       2.464   7.661  18.981  0.00  0.00    +0.000 C 
ATOM     26  C   UNL     1       2.926   7.723  17.541  0.00  0.00    +0.000 C 
ATOM     27  C   UNL     1       4.174   6.872  17.295  0.00  0.00    +0.000 C 
BRANCH  21  28
ATOM     28  C   UNL     1       4.517   3.125  17.982  0.00  0.00    +0.000 C 
BRANCH  28  29
ATOM     29  C   UNL     1       3.210   2.361  17.841  0.00  0.00    +0.000 C 
BRANCH  29  30
ATOM     30  N   UNL     1       2.330   2.623  18.971  0.00  0.00    +0.000 N 
ATOM     31  C   UNL     1       1.076   3.159  18.885  0.00  0.00    +0.000 A 
ATOM     32  C   UNL     1       0.575   3.266  20.167  0.00  0.00    +0.000 A 
ATOM     33  C   UNL     1       1.567   2.780  21.051  0.00  0.00    +0.000 A 
ATOM     34  C   UNL     1       2.647   2.393  20.284  0.00  0.00    +0.000 A 
ENDBRANCH  29  30
ENDBRANCH  28  29
ENDBRANCH  21  28
ENDBRANCH   1  25
TORSDOF 5
ENDMDL
MODEL 2
REMARK VINA RESULT:      -8.3      1.810      3.382
REMARK  Name = 
REMARK  5 active torsions:
REMARK  status: ('A' for Active; 'I' for Inactive)
REMARK    1  A    between atoms: C_2  and  C_3
REMARK    2  A    between atoms: C_3  and  C_4
REMARK    3  A    between atoms: C_4  and  N_5
REMARK    4  A    between atoms: C_13  and  C_14
REMARK    5  A    between atoms: C_17  and  N_18
REMARK                            x       y       z     vdW  Elec       q    Type
REMARK                         _______ _______ _______ _____ _____    ______ ____
ROOT
ATOM      1  C   UNL     1       1.270   8.732  19.571  0.00  0.00    +0.000 A 
ATOM      2  C   UNL     1       0.867   9.795  18.749  0.00  0.00    +0.000 A 
ATOM      3  C   UNL     1      -0.012  10.784  19.209  0.00  0.00    +0.000 A 
ATOM      4  C   UNL     1      -0.537  10.726  20.497  0.00  0.00    +0.000 A 
ATOM      5  C   UNL     1      -0.150   9.668  21.326  0.00  0.00    +0.000 A 
ATOM      6  C   UNL     1       0.732   8.679  20.863  0.00  0.00    +0.000 A 
ENDROOT
BRANCH   4   7
ATOM      7  N   UNL     1      -1.424  11.694  21.016  0.00  0.00    +0.000 N 
ATOM      8  C   UNL     1      -1.090  12.722  21.872  0.00  0.00    +0.000 C 
ATOM      9  O   UNL     1       0.056  13.007  22.211  0.00  0.00    +0.000 OA
ATOM     10  N   UNL     1      -2.161  13.465  22.318  0.00  0.00    +0.000 N 
ATOM     11  C   UNL     1      -1.918  14.664  23.121  0.00  0.00    +0.000 C 
ATOM     12  C   UNL     1      -3.292  15.121  23.482  0.00  0.00    +0.000 A 
ATOM     13  C   UNL     1      -3.692  16.258  24.157  0.00  0.00    +0.000 A 
ATOM     14  C   UNL     1      -5.055  16.404  24.364  0.00  0.00    +0.000 A 
ATOM     15  N   UNL     1      -5.997  15.511  23.954  0.00  0.00    +0.000 NA
ATOM     16  C   UNL     1      -5.567  14.411  23.296  0.00  0.00    +0.000 A 
ATOM     17  C   UNL     1      -4.235  14.192  23.041  0.00  0.00    +0.000 A 
ATOM     18  C   UNL     1      -3.569  13.064  22.337  0.00  0.00    +0.000 C 
ATOM     19  H   UNL     1      -2.291  11.811  20.517  0.00  0.00    +0.000 HD
ENDBRANCH   4   7
BRANCH   1  25
ATOM     20  O   UNL     1       5.766   4.287  19.172  0.00  0.00    +0.000 OA
ATOM     21  C   UNL     1       5.560   5.245  18.428  0.00  0.00    +0.000 C 
ATOM     22  N   UNL     1       4.353   5.934  18.416  0.00  0.00    +0.000 N 
ATOM     23  C   UNL     1       4.053   7.007  17.476  0.00  0.00    +0.000 C 
ATOM     24  C   UNL     1       2.974   7.912  17.980  0.00  0.00    +0.000 C 
ATOM     25  C   UNL     1       2.241   7.713  19.095  0.00  0.00    +0.000 C 
ATOM     26  C   UNL     1       2.460   6.461  19.916  0.00  0.00    +0.000 C 
ATOM     27  C   UNL     1       3.210   5.378  19.137  0.00  0.00    +0.000 C 
BRANCH  21  28
ATOM     28  C   UNL     1       6.648   5.753  17.503  0.00  0.00    +0.000 C 
BRANCH  28  29
ATOM     29  C   UNL     1       7.375   4.598  16.834  0.00  0.00    +0.000 C 
BRANCH  29  30
ATOM     30  N   UNL     1       6.931   4.431  15.456  0.00  0.00    +0.000 N 
ATOM     31  C   UNL     1       7.496   5.033  14.368  0.00  0.00    +0.000 A 
ATOM     32  C   UNL     1       6.785   4.640  13.252  0.00  0.00    +0.000 A 
ATOM     33  C   UNL     1       5.754   3.775  13.691  0.00  0.00    +0.000 A 
ATOM     34  C   UNL     1       5.864   3.667  15.062  0.00  0.00    +0.000 A 
ENDBRANCH  29  30
ENDBRANCH  28  29
ENDBRANCH  21  28
ENDBRANCH   1  25
TORSDOF 5
ENDMDL
MODEL 3
REMARK VINA RESULT:      -8.2      1.828      3.483
REMARK  Name = 
REMARK  5 active torsions:
REMARK  status: ('A' for Active; 'I' for Inactive)
REMARK    1  A    between atoms: C_2  and  C_3
REMARK    2  A    between atoms: C_3  and  C_4
REMARK    3  A    between atoms: C_4  and  N_5
REMARK    4  A    between atoms: C_13  and  C_14
REMARK    5  A    between atoms: C_17  and  N_18
REMARK                            x       y       z     vdW  Elec       q    Type
REMARK                         _______ _______ _______ _____ _____    ______ ____
ROOT
ATOM      1  C   UNL     1       1.417   8.635  19.731  0.00  0.00    +0.000 A 
ATOM      2  C   UNL     1       0.884   8.507  21.022  0.00  0.00    +0.000 A 
ATOM      3  C   UNL     1      -0.046   9.425  21.527  0.00  0.00    +0.000 A 
ATOM      4  C   UNL     1      -0.450  10.518  20.764  0.00  0.00    +0.000 A 
ATOM      5  C   UNL     1       0.077  10.664  19.478  0.00  0.00    +0.000 A 
ATOM      6  C   UNL     1       1.008   9.741  18.974  0.00  0.00    +0.000 A 
ENDROOT
BRANCH   4   7
ATOM      7  N   UNL     1      -1.385  11.475  21.218  0.00  0.00    +0.000 N 
ATOM      8  C   UNL     1      -1.100  12.580  21.992  0.00  0.00    +0.000 C 
ATOM      9  O   UNL     1       0.031  12.950  22.297  0.00  0.00    +0.000 OA
ATOM     10  N   UNL     1      -2.206  13.298  22.392  0.00  0.00    +0.000 N 
ATOM     11  C   UNL     1      -2.022  14.564  23.101  0.00  0.00    +0.000 C 
ATOM     12  C   UNL     1      -3.416  14.975  23.441  0.00  0.00    +0.000 A 
ATOM     13  C   UNL     1      -3.872  16.136  24.033  0.00  0.00    +0.000 A 
ATOM     14  C   UNL     1      -5.240  16.226  24.242  0.00  0.00    +0.000 A 
ATOM     15  N   UNL     1      -6.135  15.256  23.909  0.00  0.00    +0.000 NA
ATOM     16  C   UNL     1      -5.652  14.134  23.331  0.00  0.00    +0.000 A 
ATOM     17  C   UNL     1      -4.312  13.967  23.080  0.00  0.00    +0.000 A 
ATOM     18  C   UNL     1      -3.591  12.825  22.455  0.00  0.00    +0.000 C 
ATOM     19  H   UNL     1      -2.260  11.508  20.721  0.00  0.00    +0.000 HD
ENDBRANCH   4   7
BRANCH   1  25
ATOM     20  O   UNL     1       5.868   4.187  19.005  0.00  0.00    +0.000 OA
ATOM     21  C   UNL     1       5.643   5.175  18.306  0.00  0.00    +0.000 C 
ATOM     22  N   UNL     1       4.440   5.870  18.363  0.00  0.00    +0.000 N 
ATOM     23  C   UNL     1       4.114   6.979  17.475  0.00  0.00    +0.000 C 
ATOM     24  C   UNL     1       3.059   7.870  18.052  0.00  0.00    +0.000 C 
ATOM     25  C   UNL     1       2.364   7.631  19.183  0.00  0.00    +0.000 C 
ATOM     26  C   UNL     1       2.604   6.347  19.947  0.00  0.00    +0.000 C 
ATOM     27  C   UNL     1       3.319   5.292  19.101  0.00  0.00    +0.000 C 
BRANCH  21  28
ATOM     28  C   UNL     1       6.701   5.713  17.363  0.00  0.00    +0.000 C 
BRANCH  28  29
ATOM     29  C   UNL     1       7.401   4.580  16.629  0.00  0.00    +0.000 C 
BRANCH  29  30
ATOM     30  N   UNL     1       6.863   4.421  15.285  0.00  0.00    +0.000 N 
ATOM     31  C   UNL     1       5.676   3.819  14.978  0.00  0.00    +0.000 A 
ATOM     32  C   UNL     1       5.530   3.850  13.605  0.00  0.00    +0.000 A 
ATOM     33  C   UNL     1       6.675   4.490  13.074  0.00  0.00    +0.000 A 
ATOM     34  C   UNL     1       7.488   4.829  14.136  0.00  0.00    +0.000 A 
ENDBRANCH  29  30
ENDBRANCH  28  29
ENDBRANCH  21  28
ENDBRANCH   1  25
TORSDOF 5
ENDMDL
MODEL 4
REMARK VINA RESULT:      -8.2      2.008      3.651
REMARK  Name = 
REMARK  5 active torsions:
REMARK  status: ('A' for Active; 'I' for Inactive)
REMARK    1  A    between atoms: C_2  and  C_3
REMARK    2  A    between atoms: C_3  and  C_4
REMARK    3  A    between atoms: C_4  and  N_5
REMARK    4  A    between atoms: C_13  and  C_14
REMARK    5  A    between atoms: C_17  and  N_18
REMARK                            x       y       z     vdW  Elec       q    Type
REMARK                         _______ _______ _______ _____ _____    ______ ____
ROOT
ATOM      1  C   UNL     1       1.433   8.330  20.205  0.00  0.00    +0.000 A 
ATOM      2  C   UNL     1       1.225   8.446  21.587  0.00  0.00    +0.000 A 
ATOM      3  C   UNL     1       0.550   9.544  22.138  0.00  0.00    +0.000 A 
ATOM      4  C   UNL     1       0.087  10.574  21.323  0.00  0.00    +0.000 A 
ATOM      5  C   UNL     1       0.293  10.476  19.944  0.00  0.00    +0.000 A 
ATOM      6  C   UNL     1       0.968   9.374  19.395  0.00  0.00    +0.000 A 
ENDROOT
BRANCH   4   7
ATOM      7  N   UNL     1      -0.601  11.703  21.820  0.00  0.00    +0.000 N 
ATOM      8  C   UNL     1      -0.071  12.965  21.986  0.00  0.00    +0.000 C 
ATOM      9  O   UNL     1       1.047  13.311  21.612  0.00  0.00    +0.000 OA
ATOM     10  N   UNL     1      -0.920  13.866  22.591  0.00  0.00    +0.000 N 
ATOM     11  C   UNL     1      -0.520  15.270  22.697  0.00  0.00    +0.000 C 
ATOM     12  C   UNL     1      -1.631  15.887  23.479  0.00  0.00    +0.000 A 
ATOM     13  C   UNL     1      -1.844  17.210  23.810  0.00  0.00    +0.000 A 
ATOM     14  C   UNL     1      -2.970  17.481  24.573  0.00  0.00    +0.000 A 
ATOM     15  N   UNL     1      -3.851  16.539  25.008  0.00  0.00    +0.000 NA
ATOM     16  C   UNL     1      -3.609  15.254  24.664  0.00  0.00    +0.000 A 
ATOM     17  C   UNL     1      -2.522  14.900  23.902  0.00  0.00    +0.000 A 
ATOM     18  C   UNL     1      -2.089  13.561  23.418  0.00  0.00    +0.000 C 
ATOM     19  H   UNL     1      -1.606  11.656  21.789  0.00  0.00    +0.000 HD
ENDBRANCH   4   7
BRANCH   1  25
ATOM     20  O   UNL     1       5.010   3.193  19.233  0.00  0.00    +0.000 OA
ATOM     21  C   UNL     1       4.777   4.128  18.467  0.00  0.00    +0.000 C 
ATOM     22  N   UNL     1       3.716   5.003  18.660  0.00  0.00    +0.000 N 
ATOM     23  C   UNL     1       3.362   6.054  17.714  0.00  0.00    +0.000 C 
ATOM     24  C   UNL     1       2.576   7.152  18.359  0.00  0.00    +0.000 C 
ATOM     25  C   UNL     1       2.106   7.140  19.622  0.00  0.00    +0.000 C 
ATOM     26  C   UNL     1       2.326   5.919  20.488  0.00  0.00    +0.000 C 
ATOM     27  C   UNL     1       2.705   4.685  19.666  0.00  0.00    +0.000 C 
BRANCH  21  28
ATOM     28  C   UNL     1       5.679   4.396  17.278  0.00  0.00    +0.000 C 
BRANCH  28  29
ATOM     29  C   UNL     1       7.123   4.570  17.721  0.00  0.00    +0.000 C 
BRANCH  29  30
ATOM     30  N   UNL     1       7.458   5.981  17.861  0.00  0.00    +0.000 N 
ATOM     31  C   UNL     1       7.114   6.964  16.977  0.00  0.00    +0.000 A 
ATOM     32  C   UNL     1       7.626   8.155  17.450  0.00  0.00    +0.000 A 
ATOM     33  C   UNL     1       8.306   7.872  18.659  0.00  0.00    +0.000 A 
ATOM     34  C   UNL     1       8.191   6.516  18.887  0.00  0.00    +0.000 A 
ENDBRANCH  29  30
ENDBRANCH  28  29
ENDBRANCH  21  28
ENDBRANCH   1  25
TORSDOF 5
ENDMDL
MODEL 5
REMARK VINA RESULT:      -8.1      2.052      3.655
REMARK  Name = 
REMARK  5 active torsions:
REMARK  status: ('A' for Active; 'I' for Inactive)
REMARK    1  A    between atoms: C_2  and  C_3
REMARK    2  A    between atoms: C_3  and  C_4
REMARK    3  A    between atoms: C_4  and  N_5
REMARK    4  A    between atoms: C_13  and  C_14
REMARK    5  A    between atoms: C_17  and  N_18
REMARK                            x       y       z     vdW  Elec       q    Type
REMARK                         _______ _______ _______ _____ _____    ______ ____
ROOT
ATOM      1  C   UNL     1       1.406   8.558  20.309  0.00  0.00    +0.000 A 
ATOM      2  C   UNL     1       1.103   8.614  21.677  0.00  0.00    +0.000 A 
ATOM      3  C   UNL     1       0.541   9.759  22.258  0.00  0.00    +0.000 A 
ATOM      4  C   UNL     1       0.291  10.894  21.491  0.00  0.00    +0.000 A 
ATOM      5  C   UNL     1       0.593  10.856  20.127  0.00  0.00    +0.000 A 
ATOM      6  C   UNL     1       1.154   9.707  19.547  0.00  0.00    +0.000 A 
ENDROOT
BRANCH   4   7
ATOM      7  N   UNL     1      -0.275  12.075  22.019  0.00  0.00    +0.000 N 
ATOM      8  C   UNL     1      -1.395  12.148  22.821  0.00  0.00    +0.000 C 
ATOM      9  O   UNL     1      -1.989  11.178  23.285  0.00  0.00    +0.000 OA
ATOM     10  N   UNL     1      -1.805  13.430  23.115  0.00  0.00    +0.000 N 
ATOM     11  C   UNL     1      -2.898  13.634  24.067  0.00  0.00    +0.000 C 
ATOM     12  C   UNL     1      -3.107  15.111  24.041  0.00  0.00    +0.000 A 
ATOM     13  C   UNL     1      -3.947  15.894  24.806  0.00  0.00    +0.000 A 
ATOM     14  C   UNL     1      -3.938  17.255  24.537  0.00  0.00    +0.000 A 
ATOM     15  N   UNL     1      -3.169  17.846  23.582  0.00  0.00    +0.000 NA
ATOM     16  C   UNL     1      -2.357  17.046  22.853  0.00  0.00    +0.000 A 
ATOM     17  C   UNL     1      -2.299  15.690  23.060  0.00  0.00    +0.000 A 
ATOM     18  C   UNL     1      -1.479  14.653  22.378  0.00  0.00    +0.000 C 
ATOM     19  H   UNL     1       0.328  12.881  22.044  0.00  0.00    +0.000 HD
ENDBRANCH   4   7
BRANCH   1  25
ATOM     20  O   UNL     1       4.377   3.074  19.199  0.00  0.00    +0.000 OA
ATOM     21  C   UNL     1       4.293   4.067  18.476  0.00  0.00    +0.000 C 
ATOM     22  N   UNL     1       3.337   5.056  18.675  0.00  0.00    +0.000 N 
ATOM     23  C   UNL     1       3.155   6.187  17.774  0.00  0.00    +0.000 C 
ATOM     24  C   UNL     1       2.479   7.340  18.447  0.00  0.00    +0.000 C 
ATOM     25  C   UNL     1       1.955   7.324  19.689  0.00  0.00    +0.000 C 
ATOM     26  C   UNL     1       1.988   6.045  20.496  0.00  0.00    +0.000 C 
ATOM     27  C   UNL     1       2.251   4.815  19.624  0.00  0.00    +0.000 C 
BRANCH  21  28
ATOM     28  C   UNL     1       5.272   4.280  17.339  0.00  0.00    +0.000 C 
BRANCH  28  29
ATOM     29  C   UNL     1       6.700   4.350  17.858  0.00  0.00    +0.000 C 
BRANCH  29  30
ATOM     30  N   UNL     1       7.167   5.729  17.911  0.00  0.00    +0.000 N 
ATOM     31  C   UNL     1       6.870   6.697  16.994  0.00  0.00    +0.000 A 
ATOM     32  C   UNL     1       7.511   7.857  17.383  0.00  0.00    +0.000 A 
ATOM     33  C   UNL     1       8.220   7.568  18.573  0.00  0.00    +0.000 A 
ATOM     34  C   UNL     1       7.994   6.241  18.875  0.00  0.00    +0.000 A 
ENDBRANCH  29  30
ENDBRANCH  28  29
ENDBRANCH  21  28
ENDBRANCH   1  25
TORSDOF 5
ENDMDL
MODEL 6
REMARK VINA RESULT:      -8.0      0.974      1.380
REMARK  Name = 
REMARK  5 active torsions:
REMARK  status: ('A' for Active; 'I' for Inactive)
REMARK    1  A    between atoms: C_2  and  C_3
REMARK    2  A    between atoms: C_3  and  C_4
REMARK    3  A    between atoms: C_4  and  N_5
REMARK    4  A    between atoms: C_13  and  C_14
REMARK    5  A    between atoms: C_17  and  N_18
REMARK                            x       y       z     vdW  Elec       q    Type
REMARK                         _______ _______ _______ _____ _____    ______ ____
ROOT
ATOM      1  C   UNL     1       1.614   8.369  19.888  0.00  0.00    +0.000 A 
ATOM      2  C   UNL     1       1.215   9.526  19.203  0.00  0.00    +0.000 A 
ATOM      3  C   UNL     1       0.391  10.487  19.803  0.00  0.00    +0.000 A 
ATOM      4  C   UNL     1      -0.083  10.305  21.101  0.00  0.00    +0.000 A 
ATOM      5  C   UNL     1       0.301   9.154  21.794  0.00  0.00    +0.000 A 
ATOM      6  C   UNL     1       1.128   8.193  21.190  0.00  0.00    +0.000 A 
ENDROOT
BRANCH   4   7
ATOM      7  N   UNL     1      -0.914  11.239  21.758  0.00  0.00    +0.000 N 
ATOM      8  C   UNL     1      -1.861  12.042  21.160  0.00  0.00    +0.000 C 
ATOM      9  O   UNL     1      -2.195  11.971  19.979  0.00  0.00    +0.000 OA
ATOM     10  N   UNL     1      -2.463  12.945  22.008  0.00  0.00    +0.000 N 
ATOM     11  C   UNL     1      -3.579  13.756  21.519  0.00  0.00    +0.000 C 
ATOM     12  C   UNL     1      -3.883  14.654  22.671  0.00  0.00    +0.000 A 
ATOM     13  C   UNL     1      -4.901  15.575  22.824  0.00  0.00    +0.000 A 
ATOM     14  C   UNL     1      -4.916  16.286  24.014  0.00  0.00    +0.000 A 
ATOM     15  N   UNL     1      -4.004  16.135  25.013  0.00  0.00    +0.000 NA
ATOM     16  C   UNL     1      -3.022  15.224  24.827  0.00  0.00    +0.000 A 
ATOM     17  C   UNL     1      -2.939  14.470  23.682  0.00  0.00    +0.000 A 
ATOM     18  C   UNL     1      -1.953  13.426  23.294  0.00  0.00    +0.000 C 
ATOM     19  H   UNL     1      -1.018  11.114  22.752  0.00  0.00    +0.000 HD
ENDBRANCH   4   7
BRANCH   1  25
ATOM     20  O   UNL     1       4.437   4.285  15.953  0.00  0.00    +0.000 OA
ATOM     21  C   UNL     1       4.272   4.197  17.169  0.00  0.00    +0.000 C 
ATOM     22  N   UNL     1       3.960   5.295  17.962  0.00  0.00    +0.000 N 
ATOM     23  C   UNL     1       3.858   5.231  19.415  0.00  0.00    +0.000 C 
ATOM     24  C   UNL     1       3.023   6.341  19.970  0.00  0.00    +0.000 C 
ATOM     25  C   UNL     1       2.528   7.378  19.263  0.00  0.00    +0.000 C 
ATOM     26  C   UNL     1       2.852   7.499  17.791  0.00  0.00    +0.000 C 
ATOM     27  C   UNL     1       4.050   6.635  17.387  0.00  0.00    +0.000 C 
BRANCH  21  28
ATOM     28  C   UNL     1       4.362   2.853  17.866  0.00  0.00    +0.000 C 
BRANCH  28  29
ATOM     29  C   UNL     1       3.026   2.129  17.826  0.00  0.00    +0.000 C 
BRANCH  29  30
ATOM     30  N   UNL     1       2.194   2.509  18.959  0.00  0.00    +0.000 N 
ATOM     31  C   UNL     1       2.471   2.231  20.268  0.00  0.00    +0.000 A 
ATOM     32  C   UNL     1       1.440   2.738  21.034  0.00  0.00    +0.000 A 
ATOM     33  C   UNL     1       0.512   3.338  20.149  0.00  0.00    +0.000 A 
ATOM     34  C   UNL     1       1.001   3.177  18.869  0.00  0.00    +0.000 A 
ENDBRANCH  29  30
ENDBRANCH  28  29
ENDBRANCH  21  28
ENDBRANCH   1  25
TORSDOF 5
ENDMDL
MODEL 7
REMARK VINA RESULT:      -8.0      1.237      1.625
REMARK  Name = 
REMARK  5 active torsions:
REMARK  status: ('A' for Active; 'I' for Inactive)
REMARK    1  A    between atoms: C_2  and  C_3
REMARK    2  A    between atoms: C_3  and  C_4
REMARK    3  A    between atoms: C_4  and  N_5
REMARK    4  A    between atoms: C_13  and  C_14
REMARK    5  A    between atoms: C_17  and  N_18
REMARK                            x       y       z     vdW  Elec       q    Type
REMARK                         _______ _______ _______ _____ _____    ______ ____
ROOT
ATOM      1  C   UNL     1       1.359   8.794  19.131  0.00  0.00    +0.000 A 
ATOM      2  C   UNL     1       0.885   8.946  20.442  0.00  0.00    +0.000 A 
ATOM      3  C   UNL     1      -0.133   9.855  20.754  0.00  0.00    +0.000 A 
ATOM      4  C   UNL     1      -0.692  10.662  19.765  0.00  0.00    +0.000 A 
ATOM      5  C   UNL     1      -0.226  10.527  18.454  0.00  0.00    +0.000 A 
ATOM      6  C   UNL     1       0.794   9.613  18.145  0.00  0.00    +0.000 A 
ENDROOT
BRANCH   4   7
ATOM      7  N   UNL     1      -1.721  11.595  20.018  0.00  0.00    +0.000 N 
ATOM      8  C   UNL     1      -1.548  12.915  20.375  0.00  0.00    +0.000 C 
ATOM      9  O   UNL     1      -0.465  13.496  20.408  0.00  0.00    +0.000 OA
ATOM     10  N   UNL     1      -2.715  13.585  20.671  0.00  0.00    +0.000 N 
ATOM     11  C   UNL     1      -2.669  15.025  20.930  0.00  0.00    +0.000 C 
ATOM     12  C   UNL     1      -4.078  15.353  21.300  0.00  0.00    +0.000 A 
ATOM     13  C   UNL     1      -4.656  16.579  21.561  0.00  0.00    +0.000 A 
ATOM     14  C   UNL     1      -6.000  16.567  21.902  0.00  0.00    +0.000 A 
ATOM     15  N   UNL     1      -6.761  15.442  21.996  0.00  0.00    +0.000 NA
ATOM     16  C   UNL     1      -6.160  14.260  21.733  0.00  0.00    +0.000 A 
ATOM     17  C   UNL     1      -4.835  14.183  21.379  0.00  0.00    +0.000 A 
ATOM     18  C   UNL     1      -4.001  12.996  21.049  0.00  0.00    +0.000 C 
ATOM     19  H   UNL     1      -2.629  11.362  19.648  0.00  0.00    +0.000 HD
ENDBRANCH   4   7
BRANCH   1  25
ATOM     20  O   UNL     1       4.980   4.457  16.266  0.00  0.00    +0.000 OA
ATOM     21  C   UNL     1       4.605   4.497  17.437  0.00  0.00    +0.000 C 
ATOM     22  N   UNL     1       4.118   5.659  18.025  0.00  0.00    +0.000 N 
ATOM     23  C   UNL     1       3.763   5.754  19.436  0.00  0.00    +0.000 C 
ATOM     24  C   UNL     1       2.803   6.872  19.700  0.00  0.00    +0.000 C 
ATOM     25  C   UNL     1       2.405   7.792  18.798  0.00  0.00    +0.000 C 
ATOM     26  C   UNL     1       2.980   7.763  17.399  0.00  0.00    +0.000 C 
ATOM     27  C   UNL     1       4.261   6.928  17.315  0.00  0.00    +0.000 C 
BRANCH  21  28
ATOM     28  C   UNL     1       4.619   3.249  18.297  0.00  0.00    +0.000 C 
BRANCH  28  29
ATOM     29  C   UNL     1       3.348   2.439  18.100  0.00  0.00    +0.000 C 
BRANCH  29  30
ATOM     30  N   UNL     1       2.392   2.703  19.168  0.00  0.00    +0.000 N 
ATOM     31  C   UNL     1       2.634   2.533  20.501  0.00  0.00    +0.000 A 
ATOM     32  C   UNL     1       1.483   2.870  21.185  0.00  0.00    +0.000 A 
ATOM     33  C   UNL     1       0.517   3.251  20.223  0.00  0.00    +0.000 A 
ATOM     34  C   UNL     1       1.105   3.133  18.981  0.00  0.00    +0.000 A 
ENDBRANCH  29  30
ENDBRANCH  28  29
ENDBRANCH  21  28
ENDBRANCH   1  25
TORSDOF 5
ENDMDL
MODEL 8
REMARK VINA RESULT:      -7.9      2.005      3.409
REMARK  Name = 
REMARK  5 active torsions:
REMARK  status: ('A' for Active; 'I' for Inactive)
REMARK    1  A    between atoms: C_2  and  C_3
REMARK    2  A    between atoms: C_3  and  C_4
REMARK    3  A    between atoms: C_4  and  N_5
REMARK    4  A    between atoms: C_13  and  C_14
REMARK    5  A    between atoms: C_17  and  N_18
REMARK                            x       y       z     vdW  Elec       q    Type
REMARK                         _______ _______ _______ _____ _____    ______ ____
ROOT
ATOM      1  C   UNL     1       1.412   8.592  19.158  0.00  0.00    +0.000 A 
ATOM      2  C   UNL     1       0.870   9.387  18.136  0.00  0.00    +0.000 A 
ATOM      3  C   UNL     1      -0.076  10.383  18.406  0.00  0.00    +0.000 A 
ATOM      4  C   UNL     1      -0.531  10.598  19.705  0.00  0.00    +0.000 A 
ATOM      5  C   UNL     1      -0.005   9.810  20.733  0.00  0.00    +0.000 A 
ATOM      6  C   UNL     1       0.945   8.812  20.460  0.00  0.00    +0.000 A 
ENDROOT
BRANCH   4   7
ATOM      7  N   UNL     1      -1.481  11.588  20.038  0.00  0.00    +0.000 N 
ATOM      8  C   UNL     1      -1.201  12.845  20.531  0.00  0.00    +0.000 C 
ATOM      9  O   UNL     1      -0.073  13.321  20.638  0.00  0.00    +0.000 OA
ATOM     10  N   UNL     1      -2.312  13.583  20.878  0.00  0.00    +0.000 N 
ATOM     11  C   UNL     1      -2.147  14.979  21.284  0.00  0.00    +0.000 C 
ATOM     12  C   UNL     1      -3.530  15.392  21.667  0.00  0.00    +0.000 A 
ATOM     13  C   UNL     1      -4.005  16.632  22.044  0.00  0.00    +0.000 A 
ATOM     14  C   UNL     1      -5.352  16.705  22.364  0.00  0.00    +0.000 A 
ATOM     15  N   UNL     1      -6.210  15.649  22.332  0.00  0.00    +0.000 NA
ATOM     16  C   UNL     1      -5.708  14.450  21.958  0.00  0.00    +0.000 A 
ATOM     17  C   UNL     1      -4.387  14.292  21.615  0.00  0.00    +0.000 A 
ATOM     18  C   UNL     1      -3.653  13.075  21.176  0.00  0.00    +0.000 C 
ATOM     19  H   UNL     1      -2.396  11.476  19.634  0.00  0.00    +0.000 HD
ENDBRANCH   4   7
BRANCH   1  25
ATOM     20  O   UNL     1       5.982   4.228  19.607  0.00  0.00    +0.000 OA
ATOM     21  C   UNL     1       5.865   5.142  18.791  0.00  0.00    +0.000 C 
ATOM     22  N   UNL     1       4.661   5.804  18.580  0.00  0.00    +0.000 N 
ATOM     23  C   UNL     1       4.475   6.819  17.550  0.00  0.00    +0.000 C 
ATOM     24  C   UNL     1       3.325   7.727  17.856  0.00  0.00    +0.000 C 
ATOM     25  C   UNL     1       2.452   7.570  18.872  0.00  0.00    +0.000 C 
ATOM     26  C   UNL     1       2.576   6.369  19.782  0.00  0.00    +0.000 C 
ATOM     27  C   UNL     1       3.439   5.263  19.170  0.00  0.00    +0.000 C 
BRANCH  21  28
ATOM     28  C   UNL     1       7.060   5.624  17.993  0.00  0.00    +0.000 C 
BRANCH  28  29
ATOM     29  C   UNL     1       7.642   4.498  17.153  0.00  0.00    +0.000 C 
BRANCH  29  30
ATOM     30  N   UNL     1       6.970   4.409  15.864  0.00  0.00    +0.000 N 
ATOM     31  C   UNL     1       5.836   3.689  15.615  0.00  0.00    +0.000 A 
ATOM     32  C   UNL     1       5.523   3.843  14.279  0.00  0.00    +0.000 A 
ATOM     33  C   UNL     1       6.510   4.682  13.709  0.00  0.00    +0.000 A 
ATOM     34  C   UNL     1       7.398   5.013  14.711  0.00  0.00    +0.000 A 
ENDBRANCH  29  30
ENDBRANCH  28  29
ENDBRANCH  21  28
ENDBRANCH   1  25
TORSDOF 5
ENDMDL
MODEL 9
REMARK VINA RESULT:      -7.9      2.242      3.792
REMARK  Name = 
REMARK  5 active torsions:
REMARK  status: ('A' for Active; 'I' for Inactive)
REMARK    1  A    between atoms: C_2  and  C_3
REMARK    2  A    between atoms: C_3  and  C_4
REMARK    3  A    between atoms: C_4  and  N_5
REMARK    4  A    between atoms: C_13  and  C_14
REMARK    5  A    between atoms: C_17  and  N_18
REMARK                            x       y       z     vdW  Elec       q    Type
REMARK                         _______ _______ _______ _____ _____    ______ ____
ROOT
ATOM      1  C   UNL     1       1.623   8.377  19.801  0.00  0.00    +0.000 A 
ATOM      2  C   UNL     1       1.247   9.469  19.005  0.00  0.00    +0.000 A 
ATOM      3  C   UNL     1       0.561  10.566  19.542  0.00  0.00    +0.000 A 
ATOM      4  C   UNL     1       0.207  10.592  20.889  0.00  0.00    +0.000 A 
ATOM      5  C   UNL     1       0.569   9.509  21.694  0.00  0.00    +0.000 A 
ATOM      6  C   UNL     1       1.258   8.411  21.153  0.00  0.00    +0.000 A 
ENDROOT
BRANCH   4   7
ATOM      7  N   UNL     1      -0.482  11.671  21.487  0.00  0.00    +0.000 N 
ATOM      8  C   UNL     1       0.065  12.888  21.834  0.00  0.00    +0.000 C 
ATOM      9  O   UNL     1       1.209  13.245  21.562  0.00  0.00    +0.000 OA
ATOM     10  N   UNL     1      -0.795  13.731  22.503  0.00  0.00    +0.000 N 
ATOM     11  C   UNL     1      -0.370  15.099  22.802  0.00  0.00    +0.000 C 
ATOM     12  C   UNL     1      -1.508  15.647  23.598  0.00  0.00    +0.000 A 
ATOM     13  C   UNL     1      -1.710  16.925  24.080  0.00  0.00    +0.000 A 
ATOM     14  C   UNL     1      -2.868  17.131  24.814  0.00  0.00    +0.000 A 
ATOM     15  N   UNL     1      -3.792  16.168  25.083  0.00  0.00    +0.000 NA
ATOM     16  C   UNL     1      -3.559  14.928  24.595  0.00  0.00    +0.000 A 
ATOM     17  C   UNL     1      -2.441  14.640  23.851  0.00  0.00    +0.000 A 
ATOM     18  C   UNL     1      -2.013  13.359  23.227  0.00  0.00    +0.000 C 
ATOM     19  H   UNL     1      -1.485  11.656  21.400  0.00  0.00    +0.000 HD
ENDBRANCH   4   7
BRANCH   1  25
ATOM     20  O   UNL     1       5.726   3.645  18.848  0.00  0.00    +0.000 OA
ATOM     21  C   UNL     1       5.327   4.494  18.050  0.00  0.00    +0.000 C 
ATOM     22  N   UNL     1       4.182   5.249  18.275  0.00  0.00    +0.000 N 
ATOM     23  C   UNL     1       3.637   6.186  17.301  0.00  0.00    +0.000 C 
ATOM     24  C   UNL     1       2.770   7.224  17.942  0.00  0.00    +0.000 C 
ATOM     25  C   UNL     1       2.394   7.239  19.237  0.00  0.00    +0.000 C 
ATOM     26  C   UNL     1       2.822   6.112  20.151  0.00  0.00    +0.000 C 
ATOM     27  C   UNL     1       3.291   4.880  19.373  0.00  0.00    +0.000 C 
BRANCH  21  28
ATOM     28  C   UNL     1       6.104   4.788  16.782  0.00  0.00    +0.000 C 
BRANCH  28  29
ATOM     29  C   UNL     1       5.855   3.718  15.732  0.00  0.00    +0.000 C 
BRANCH  29  30
ATOM     30  N   UNL     1       6.425   4.105  14.448  0.00  0.00    +0.000 N 
ATOM     31  C   UNL     1       6.130   3.524  13.248  0.00  0.00    +0.000 A 
ATOM     32  C   UNL     1       6.882   4.156  12.278  0.00  0.00    +0.000 A 
ATOM     33  C   UNL     1       7.658   5.148  12.924  0.00  0.00    +0.000 A 
ATOM     34  C   UNL     1       7.359   5.091  14.270  0.00  0.00    +0.000 A 
ENDBRANCH  29  30
ENDBRANCH  28  29
ENDBRANCH  21  28
ENDBRANCH   1  25
TORSDOF 5
ENDMDL
