MODEL 1
REMARK VINA RESULT:      -6.1      0.000      0.000
REMARK  Name = 
REMARK  4 active torsions:
REMARK  status: ('A' for Active; 'I' for Inactive)
REMARK    1  A    between atoms: C_2  and  C_4
REMARK    2  A    between atoms: C_4  and  N_5
REMARK    3  A    between atoms: C_9  and  C_10
REMARK    4  A    between atoms: C_10  and  N_11
REMARK                            x       y       z     vdW  Elec       q    Type
REMARK                         _______ _______ _______ _____ _____    ______ ____
ROOT
ATOM      1  N   UNL     1       6.662   6.225  16.428  0.00  0.00    +0.000 NA
ATOM      2  C   UNL     1       7.092   6.300  17.838  0.00  0.00    +0.000 C 
ATOM      3  C   UNL     1       6.321   5.348  18.763  0.00  0.00    +0.000 C 
ATOM      4  O   UNL     1       4.907   5.592  18.719  0.00  0.00    +0.000 OA
ATOM      5  C   UNL     1       4.359   5.543  17.382  0.00  0.00    +0.000 C 
ATOM      6  C   UNL     1       5.193   6.407  16.398  0.00  0.00    +0.000 C 
ENDROOT
BRANCH   1   7
ATOM      7  C   UNL     1       7.081   4.988  15.731  0.00  0.00    +0.000 C 
BRANCH   7   9
ATOM      8  F   UNL     1       7.581   5.178  13.413  0.00  0.00    +0.000 F 
ATOM      9  C   UNL     1       6.613   4.794  14.284  0.00  0.00    +0.000 C 
ATOM     10  F   UNL     1       6.408   3.468  14.053  0.00  0.00    +0.000 F 
ENDBRANCH   7   9
ENDBRANCH   1   7
BRANCH   5  11
ATOM     11  C   UNL     1       4.068   4.091  16.970  0.00  0.00    +0.000 C 
BRANCH  11  12
ATOM     12  N   UNL     1       3.024   3.457  17.743  0.00  0.00    +0.000 N 
ATOM     13  C   UNL     1       1.733   3.876  17.881  0.00  0.00    +0.000 A 
ATOM     14  C   UNL     1       1.123   2.966  18.713  0.00  0.00    +0.000 A 
ATOM     15  C   UNL     1       2.135   2.038  19.027  0.00  0.00    +0.000 A 
ATOM     16  N   UNL     1       3.291   2.332  18.433  0.00  0.00    +0.000 NA
ENDBRANCH  11  12
ENDBRANCH   5  11
TORSDOF 4
ENDMDL
MODEL 2
REMARK VINA RESULT:      -6.0      1.386      1.669
REMARK  Name = 
REMARK  4 active torsions:
REMARK  status: ('A' for Active; 'I' for Inactive)
REMARK    1  A    between atoms: C_2  and  C_4
REMARK    2  A    between atoms: C_4  and  N_5
REMARK    3  A    between atoms: C_9  and  C_10
REMARK    4  A    between atoms: C_10  and  N_11
REMARK                            x       y       z     vdW  Elec       q    Type
REMARK                         _______ _______ _______ _____ _____    ______ ____
ROOT
ATOM      1  N   UNL     1       5.254   5.906  16.932  0.00  0.00    +0.000 NA
ATOM      2  C   UNL     1       6.643   6.153  17.361  0.00  0.00    +0.000 C 
ATOM      3  C   UNL     1       7.144   5.154  18.415  0.00  0.00    +0.000 C 
ATOM      4  O   UNL     1       6.312   5.155  19.586  0.00  0.00    +0.000 OA
ATOM      5  C   UNL     1       4.916   4.919  19.296  0.00  0.00    +0.000 C 
ATOM      6  C   UNL     1       4.414   5.838  18.149  0.00  0.00    +0.000 C 
ENDROOT
BRANCH   1   7
ATOM      7  C   UNL     1       5.087   4.710  16.076  0.00  0.00    +0.000 C 
BRANCH   7   9
ATOM      8  F   UNL     1       6.921   3.904  14.793  0.00  0.00    +0.000 F 
ATOM      9  C   UNL     1       5.818   4.693  14.728  0.00  0.00    +0.000 C 
ATOM     10  F   UNL     1       5.011   4.129  13.787  0.00  0.00    +0.000 F 
ENDBRANCH   7   9
ENDBRANCH   1   7
BRANCH   5  11
ATOM     11  C   UNL     1       4.637   3.413  19.163  0.00  0.00    +0.000 C 
BRANCH  11  12
ATOM     12  N   UNL     1       3.233   3.071  19.165  0.00  0.00    +0.000 N 
ATOM     13  C   UNL     1       2.534   2.461  18.164  0.00  0.00    +0.000 A 
ATOM     14  C   UNL     1       1.238   2.354  18.613  0.00  0.00    +0.000 A 
ATOM     15  C   UNL     1       1.257   2.937  19.896  0.00  0.00    +0.000 A 
ATOM     16  N   UNL     1       2.472   3.368  20.235  0.00  0.00    +0.000 NA
ENDBRANCH  11  12
ENDBRANCH   5  11
TORSDOF 4
ENDMDL
MODEL 3
REMARK VINA RESULT:      -6.0      3.742      6.091
REMARK  Name = 
REMARK  4 active torsions:
REMARK  status: ('A' for Active; 'I' for Inactive)
REMARK    1  A    between atoms: C_2  and  C_4
REMARK    2  A    between atoms: C_4  and  N_5
REMARK    3  A    between atoms: C_9  and  C_10
REMARK    4  A    between atoms: C_10  and  N_11
REMARK                            x       y       z     vdW  Elec       q    Type
REMARK                         _______ _______ _______ _____ _____    ______ ____
ROOT
ATOM      1  N   UNL     1       1.761   3.020  18.582  0.00  0.00    +0.000 NA
ATOM      2  C   UNL     1       2.518   2.205  17.613  0.00  0.00    +0.000 C 
ATOM      3  C   UNL     1       3.952   2.704  17.382  0.00  0.00    +0.000 C 
ATOM      4  O   UNL     1       3.974   4.066  16.926  0.00  0.00    +0.000 OA
ATOM      5  C   UNL     1       3.262   4.973  17.799  0.00  0.00    +0.000 C 
ATOM      6  C   UNL     1       1.848   4.431  18.144  0.00  0.00    +0.000 C 
ENDROOT
BRANCH   1   7
ATOM      7  C   UNL     1       2.193   2.848  19.987  0.00  0.00    +0.000 C 
BRANCH   7   9
ATOM      8  F   UNL     1       1.200   2.735  22.146  0.00  0.00    +0.000 F 
ATOM      9  C   UNL     1       1.371   3.551  21.075  0.00  0.00    +0.000 C 
ATOM     10  F   UNL     1       2.064   4.629  21.534  0.00  0.00    +0.000 F 
ENDBRANCH   7   9
ENDBRANCH   1   7
BRANCH   5  11
ATOM     11  C   UNL     1       4.154   5.406  18.973  0.00  0.00    +0.000 C 
BRANCH  11  12
ATOM     12  N   UNL     1       5.525   5.678  18.602  0.00  0.00    +0.000 N 
ATOM     13  C   UNL     1       5.961   6.556  17.654  0.00  0.00    +0.000 A 
ATOM     14  C   UNL     1       7.334   6.464  17.649  0.00  0.00    +0.000 A 
ATOM     15  C   UNL     1       7.627   5.495  18.629  0.00  0.00    +0.000 A 
ATOM     16  N   UNL     1       6.528   5.020  19.214  0.00  0.00    +0.000 NA
ENDBRANCH  11  12
ENDBRANCH   5  11
TORSDOF 4
ENDMDL
MODEL 4
REMARK VINA RESULT:      -6.0      1.359      1.623
REMARK  Name = 
REMARK  4 active torsions:
REMARK  status: ('A' for Active; 'I' for Inactive)
REMARK    1  A    between atoms: C_2  and  C_4
REMARK    2  A    between atoms: C_4  and  N_5
REMARK    3  A    between atoms: C_9  and  C_10
REMARK    4  A    between atoms: C_10  and  N_11
REMARK                            x       y       z     vdW  Elec       q    Type
REMARK                         _______ _______ _______ _____ _____    ______ ____
ROOT
ATOM      1  N   UNL     1       5.962   5.584  16.690  0.00  0.00    +0.000 NA
ATOM      2  C   UNL     1       7.199   5.997  17.380  0.00  0.00    +0.000 C 
ATOM      3  C   UNL     1       7.397   5.310  18.740  0.00  0.00    +0.000 C 
ATOM      4  O   UNL     1       6.294   5.556  19.625  0.00  0.00    +0.000 OA
ATOM      5  C   UNL     1       5.014   5.188  19.061  0.00  0.00    +0.000 C 
ATOM      6  C   UNL     1       4.838   5.773  17.634  0.00  0.00    +0.000 C 
ENDROOT
BRANCH   1   7
ATOM      7  C   UNL     1       6.001   4.209  16.144  0.00  0.00    +0.000 C 
BRANCH   7   9
ATOM      8  F   UNL     1       5.136   4.202  13.928  0.00  0.00    +0.000 F 
ATOM      9  C   UNL     1       6.279   4.046  14.644  0.00  0.00    +0.000 C 
ATOM     10  F   UNL     1       7.115   5.039  14.233  0.00  0.00    +0.000 F 
ENDBRANCH   7   9
ENDBRANCH   1   7
BRANCH   5  11
ATOM     11  C   UNL     1       4.756   3.684  19.240  0.00  0.00    +0.000 C 
BRANCH  11  12
ATOM     12  N   UNL     1       3.371   3.349  19.487  0.00  0.00    +0.000 N 
ATOM     13  C   UNL     1       2.489   4.027  20.277  0.00  0.00    +0.000 A 
ATOM     14  C   UNL     1       1.304   3.332  20.212  0.00  0.00    +0.000 A 
ATOM     15  C   UNL     1       1.578   2.244  19.360  0.00  0.00    +0.000 A 
ATOM     16  N   UNL     1       2.833   2.256  18.913  0.00  0.00    +0.000 NA
ENDBRANCH  11  12
ENDBRANCH   5  11
TORSDOF 4
ENDMDL
MODEL 5
REMARK VINA RESULT:      -5.9      3.742      6.291
REMARK  Name = 
REMARK  4 active torsions:
REMARK  status: ('A' for Active; 'I' for Inactive)
REMARK    1  A    between atoms: C_2  and  C_4
REMARK    2  A    between atoms: C_4  and  N_5
REMARK    3  A    between atoms: C_9  and  C_10
REMARK    4  A    between atoms: C_10  and  N_11
REMARK                            x       y       z     vdW  Elec       q    Type
REMARK                         _______ _______ _______ _____ _____    ______ ____
ROOT
ATOM      1  N   UNL     1       1.326   4.048  19.153  0.00  0.00    +0.000 NA
ATOM      2  C   UNL     1       1.232   2.737  18.485  0.00  0.00    +0.000 C 
ATOM      3  C   UNL     1       2.600   2.111  18.173  0.00  0.00    +0.000 C 
ATOM      4  O   UNL     1       3.402   2.970  17.350  0.00  0.00    +0.000 OA
ATOM      5  C   UNL     1       3.572   4.296  17.901  0.00  0.00    +0.000 C 
ATOM      6  C   UNL     1       2.212   4.906  18.335  0.00  0.00    +0.000 C 
ENDROOT
BRANCH   1   7
ATOM      7  C   UNL     1       1.769   3.981  20.564  0.00  0.00    +0.000 C 
BRANCH   7   9
ATOM      8  F   UNL     1       3.004   2.366  21.799  0.00  0.00    +0.000 F 
ATOM      9  C   UNL     1       1.792   2.602  21.237  0.00  0.00    +0.000 C 
ATOM     10  F   UNL     1       0.896   2.589  22.262  0.00  0.00    +0.000 F 
ENDBRANCH   7   9
ENDBRANCH   1   7
BRANCH   5  11
ATOM     11  C   UNL     1       4.710   4.310  18.934  0.00  0.00    +0.000 C 
BRANCH  11  12
ATOM     12  N   UNL     1       5.848   5.113  18.547  0.00  0.00    +0.000 N 
ATOM     13  C   UNL     1       6.864   5.543  19.351  0.00  0.00    +0.000 A 
ATOM     14  C   UNL     1       7.704   6.277  18.547  0.00  0.00    +0.000 A 
ATOM     15  C   UNL     1       7.102   6.236  17.274  0.00  0.00    +0.000 A 
ATOM     16  N   UNL     1       5.976   5.523  17.271  0.00  0.00    +0.000 NA
ENDBRANCH  11  12
ENDBRANCH   5  11
TORSDOF 4
ENDMDL
MODEL 6
REMARK VINA RESULT:      -5.8      2.651      3.279
REMARK  Name = 
REMARK  4 active torsions:
REMARK  status: ('A' for Active; 'I' for Inactive)
REMARK    1  A    between atoms: C_2  and  C_4
REMARK    2  A    between atoms: C_4  and  N_5
REMARK    3  A    between atoms: C_9  and  C_10
REMARK    4  A    between atoms: C_10  and  N_11
REMARK                            x       y       z     vdW  Elec       q    Type
REMARK                         _______ _______ _______ _____ _____    ______ ____
ROOT
ATOM      1  N   UNL     1       7.246   5.569  17.093  0.00  0.00    +0.000 NA
ATOM      2  C   UNL     1       6.919   5.108  15.731  0.00  0.00    +0.000 C 
ATOM      3  C   UNL     1       5.414   4.903  15.500  0.00  0.00    +0.000 C 
ATOM      4  O   UNL     1       4.857   3.962  16.430  0.00  0.00    +0.000 OA
ATOM      5  C   UNL     1       5.109   4.305  17.812  0.00  0.00    +0.000 C 
ATOM      6  C   UNL     1       6.608   4.634  18.047  0.00  0.00    +0.000 C 
ENDROOT
BRANCH   1   7
ATOM      7  C   UNL     1       6.873   6.976  17.364  0.00  0.00    +0.000 C 
BRANCH   7   9
ATOM      8  F   UNL     1       7.516   9.235  17.745  0.00  0.00    +0.000 F 
ATOM      9  C   UNL     1       8.008   7.977  17.612  0.00  0.00    +0.000 C 
ATOM     10  F   UNL     1       8.612   7.685  18.798  0.00  0.00    +0.000 F 
ENDBRANCH   7   9
ENDBRANCH   1   7
BRANCH   5  11
ATOM     11  C   UNL     1       4.079   5.331  18.311  0.00  0.00    +0.000 C 
BRANCH  11  12
ATOM     12  N   UNL     1       3.030   4.762  19.128  0.00  0.00    +0.000 N 
ATOM     13  C   UNL     1       2.332   5.386  20.121  0.00  0.00    +0.000 A 
ATOM     14  C   UNL     1       1.453   4.451  20.616  0.00  0.00    +0.000 A 
ATOM     15  C   UNL     1       1.704   3.291  19.857  0.00  0.00    +0.000 A 
ATOM     16  N   UNL     1       2.659   3.481  18.947  0.00  0.00    +0.000 NA
ENDBRANCH  11  12
ENDBRANCH   5  11
TORSDOF 4
ENDMDL
MODEL 7
REMARK VINA RESULT:      -5.8      1.457      1.659
REMARK  Name = 
REMARK  4 active torsions:
REMARK  status: ('A' for Active; 'I' for Inactive)
REMARK    1  A    between atoms: C_2  and  C_4
REMARK    2  A    between atoms: C_4  and  N_5
REMARK    3  A    between atoms: C_9  and  C_10
REMARK    4  A    between atoms: C_10  and  N_11
REMARK                            x       y       z     vdW  Elec       q    Type
REMARK                         _______ _______ _______ _____ _____    ______ ____
ROOT
ATOM      1  N   UNL     1       6.066   5.815  15.733  0.00  0.00    +0.000 NA
ATOM      2  C   UNL     1       7.120   5.475  16.707  0.00  0.00    +0.000 C 
ATOM      3  C   UNL     1       6.582   4.811  17.983  0.00  0.00    +0.000 C 
ATOM      4  O   UNL     1       5.618   5.642  18.648  0.00  0.00    +0.000 OA
ATOM      5  C   UNL     1       4.523   6.045  17.794  0.00  0.00    +0.000 C 
ATOM      6  C   UNL     1       5.040   6.612  16.444  0.00  0.00    +0.000 C 
ENDROOT
BRANCH   1   7
ATOM      7  C   UNL     1       5.478   4.646  15.042  0.00  0.00    +0.000 C 
BRANCH   7   9
ATOM      8  F   UNL     1       5.493   3.633  12.889  0.00  0.00    +0.000 F 
ATOM      9  C   UNL     1       6.298   3.997  13.920  0.00  0.00    +0.000 C 
ATOM     10  F   UNL     1       7.165   4.914  13.410  0.00  0.00    +0.000 F 
ENDBRANCH   7   9
ENDBRANCH   1   7
BRANCH   5  11
ATOM     11  C   UNL     1       3.453   4.944  17.730  0.00  0.00    +0.000 C 
BRANCH  11  12
ATOM     12  N   UNL     1       3.010   4.476  19.024  0.00  0.00    +0.000 N 
ATOM     13  C   UNL     1       2.333   5.191  19.969  0.00  0.00    +0.000 A 
ATOM     14  C   UNL     1       2.141   4.337  21.030  0.00  0.00    +0.000 A 
ATOM     15  C   UNL     1       2.746   3.130  20.628  0.00  0.00    +0.000 A 
ATOM     16  N   UNL     1       3.270   3.211  19.405  0.00  0.00    +0.000 NA
ENDBRANCH  11  12
ENDBRANCH   5  11
TORSDOF 4
ENDMDL
MODEL 8
REMARK VINA RESULT:      -5.8      1.227      1.515
REMARK  Name = 
REMARK  4 active torsions:
REMARK  status: ('A' for Active; 'I' for Inactive)
REMARK    1  A    between atoms: C_2  and  C_4
REMARK    2  A    between atoms: C_4  and  N_5
REMARK    3  A    between atoms: C_9  and  C_10
REMARK    4  A    between atoms: C_10  and  N_11
REMARK                            x       y       z     vdW  Elec       q    Type
REMARK                         _______ _______ _______ _____ _____    ______ ____
ROOT
ATOM      1  N   UNL     1       6.130   5.177  15.617  0.00  0.00    +0.000 NA
ATOM      2  C   UNL     1       7.257   5.359  16.551  0.00  0.00    +0.000 C 
ATOM      3  C   UNL     1       7.073   4.616  17.883  0.00  0.00    +0.000 C 
ATOM      4  O   UNL     1       5.871   5.020  18.556  0.00  0.00    +0.000 OA
ATOM      5  C   UNL     1       4.685   4.886  17.740  0.00  0.00    +0.000 C 
ATOM      6  C   UNL     1       4.887   5.528  16.340  0.00  0.00    +0.000 C 
ENDROOT
BRANCH   1   7
ATOM      7  C   UNL     1       6.056   3.828  15.011  0.00  0.00    +0.000 C 
BRANCH   7   9
ATOM      8  F   UNL     1       5.065   3.817  12.848  0.00  0.00    +0.000 F 
ATOM      9  C   UNL     1       6.255   3.718  13.494  0.00  0.00    +0.000 C 
ATOM     10  F   UNL     1       7.002   4.771  13.062  0.00  0.00    +0.000 F 
ENDBRANCH   7   9
ENDBRANCH   1   7
BRANCH   5  11
ATOM     11  C   UNL     1       4.161   3.442  17.781  0.00  0.00    +0.000 C 
BRANCH  11  12
ATOM     12  N   UNL     1       2.879   3.299  18.434  0.00  0.00    +0.000 N 
ATOM     13  C   UNL     1       2.504   3.832  19.633  0.00  0.00    +0.000 A 
ATOM     14  C   UNL     1       1.209   3.419  19.847  0.00  0.00    +0.000 A 
ATOM     15  C   UNL     1       0.896   2.634  18.719  0.00  0.00    +0.000 A 
ATOM     16  N   UNL     1       1.909   2.566  17.856  0.00  0.00    +0.000 NA
ENDBRANCH  11  12
ENDBRANCH   5  11
TORSDOF 4
ENDMDL
MODEL 9
REMARK VINA RESULT:      -5.8      2.414      3.008
REMARK  Name = 
REMARK  4 active torsions:
REMARK  status: ('A' for Active; 'I' for Inactive)
REMARK    1  A    between atoms: C_2  and  C_4
REMARK    2  A    between atoms: C_4  and  N_5
REMARK    3  A    between atoms: C_9  and  C_10
REMARK    4  A    between atoms: C_10  and  N_11
REMARK                            x       y       z     vdW  Elec       q    Type
REMARK                         _______ _______ _______ _____ _____    ______ ____
ROOT
ATOM      1  N   UNL     1       6.254   5.403  16.838  0.00  0.00    +0.000 NA
ATOM      2  C   UNL     1       5.424   6.587  17.131  0.00  0.00    +0.000 C 
ATOM      3  C   UNL     1       4.193   6.271  17.994  0.00  0.00    +0.000 C 
ATOM      4  O   UNL     1       3.352   5.283  17.379  0.00  0.00    +0.000 OA
ATOM      5  C   UNL     1       4.054   4.064  17.043  0.00  0.00    +0.000 C 
ATOM      6  C   UNL     1       5.367   4.363  16.271  0.00  0.00    +0.000 C 
ENDROOT
BRANCH   1   7
ATOM      7  C   UNL     1       7.025   4.901  17.998  0.00  0.00    +0.000 C 
BRANCH   7   9
ATOM      8  F   UNL     1       8.490   5.357  19.816  0.00  0.00    +0.000 F 
ATOM      9  C   UNL     1       7.599   5.937  18.973  0.00  0.00    +0.000 C 
ATOM     10  F   UNL     1       8.300   6.871  18.273  0.00  0.00    +0.000 F 
ENDBRANCH   7   9
ENDBRANCH   1   7
BRANCH   5  11
ATOM     11  C   UNL     1       4.154   3.142  18.269  0.00  0.00    +0.000 C 
BRANCH  11  12
ATOM     12  N   UNL     1       2.909   2.975  18.984  0.00  0.00    +0.000 N 
ATOM     13  C   UNL     1       2.693   3.176  20.317  0.00  0.00    +0.000 A 
ATOM     14  C   UNL     1       1.367   2.884  20.538  0.00  0.00    +0.000 A 
ATOM     15  C   UNL     1       0.871   2.510  19.273  0.00  0.00    +0.000 A 
ATOM     16  N   UNL     1       1.806   2.571  18.326  0.00  0.00    +0.000 NA
ENDBRANCH  11  12
ENDBRANCH   5  11
TORSDOF 4
ENDMDL
