MODEL 1
REMARK VINA RESULT:      -6.9      0.000      0.000
REMARK  Name = 
REMARK  7 active torsions:
REMARK  status: ('A' for Active; 'I' for Inactive)
REMARK    1  A    between atoms: C_1  and  C_2
REMARK    2  A    between atoms: C_8  and  C_9
REMARK    3  A    between atoms: N_16  and  C_17
REMARK    4  A    between atoms: N_19  and  C_20
REMARK    5  A    between atoms: C_20  and  C_21
REMARK    6  A    between atoms: C_20  and  C_22
REMARK    7  A    between atoms: C_20  and  C_23
REMARK                            x       y       z     vdW  Elec       q    Type
REMARK                         _______ _______ _______ _____ _____    ______ ____
ROOT
ATOM      1  C   UNL     1      -4.112  11.891  18.838  0.00  0.00    +0.000 A 
ATOM      2  N   UNL     1      -4.845  11.647  17.717  0.00  0.00    +0.000 NA
ATOM      3  C   UNL     1      -6.186  11.710  17.818  0.00  0.00    +0.000 A 
ATOM      4  C   UNL     1      -6.844  11.967  19.001  0.00  0.00    +0.000 A 
ATOM      5  C   UNL     1      -6.063  12.234  20.130  0.00  0.00    +0.000 A 
ATOM      6  C   UNL     1      -6.697  12.510  21.421  0.00  0.00    +0.000 A 
ATOM      7  O   UNL     1      -7.917  12.382  21.518  0.00  0.00    +0.000 OA
ATOM      8  N   UNL     1      -5.853  12.913  22.463  0.00  0.00    +0.000 N 
ATOM      9  C   UNL     1      -6.520  13.320  23.690  0.00  0.00    +0.000 C 
ATOM     10  C   UNL     1      -4.471  12.945  22.323  0.00  0.00    +0.000 A 
ATOM     11  N   UNL     1      -3.680  13.362  23.371  0.00  0.00    +0.000 N 
ATOM     12  N   UNL     1      -3.894  12.591  21.210  0.00  0.00    +0.000 NA
ATOM     13  C   UNL     1      -4.679  12.237  20.082  0.00  0.00    +0.000 A 
ATOM     14  H   UNL     1      -4.144  13.510  24.255  0.00  0.00    +0.000 HD
ENDROOT
BRANCH   1  22
ATOM     15  C   UNL     1       1.297  13.209  20.025  0.00  0.00    +0.000 C 
ATOM     16  C   UNL     1       0.881  12.663  18.675  0.00  0.00    +0.000 C 
ATOM     17  N   UNL     1       1.557  11.388  18.384  0.00  0.00    +0.000 N 
ATOM     18  C   UNL     1       0.705  10.302  18.176  0.00  0.00    +0.000 C 
ATOM     19  O   UNL     1       1.035   9.155  17.910  0.00  0.00    +0.000 OA
ATOM     20  C   UNL     1      -0.612  10.837  18.341  0.00  0.00    +0.000 A 
ATOM     21  C   UNL     1      -1.969  10.503  18.328  0.00  0.00    +0.000 A 
ATOM     22  C   UNL     1      -2.678  11.667  18.629  0.00  0.00    +0.000 A 
ATOM     23  N   UNL     1      -1.745  12.684  18.786  0.00  0.00    +0.000 N 
ATOM     24  C   UNL     1      -0.506  12.169  18.624  0.00  0.00    +0.000 A 
ATOM     25  H   UNL     1       2.555  11.276  18.274  0.00  0.00    +0.000 HD
ATOM     26  H   UNL     1      -2.018  13.629  19.020  0.00  0.00    +0.000 HD
ENDBRANCH   1  22
BRANCH  11  27
ATOM     27  C   UNL     1      -2.401  14.088  23.250  0.00  0.00    +0.000 C 
ATOM     28  C   UNL     1      -2.450  15.136  22.120  0.00  0.00    +0.000 C 
ATOM     29  C   UNL     1      -2.110  14.799  24.587  0.00  0.00    +0.000 C 
ATOM     30  C   UNL     1      -1.242  13.104  23.012  0.00  0.00    +0.000 C 
ENDBRANCH  11  27
TORSDOF 2
ENDMDL
MODEL 2
REMARK VINA RESULT:      -6.6      2.390      5.986
REMARK  Name = 
REMARK  7 active torsions:
REMARK  status: ('A' for Active; 'I' for Inactive)
REMARK    1  A    between atoms: C_1  and  C_2
REMARK    2  A    between atoms: C_8  and  C_9
REMARK    3  A    between atoms: N_16  and  C_17
REMARK    4  A    between atoms: N_19  and  C_20
REMARK    5  A    between atoms: C_20  and  C_21
REMARK    6  A    between atoms: C_20  and  C_22
REMARK    7  A    between atoms: C_20  and  C_23
REMARK                            x       y       z     vdW  Elec       q    Type
REMARK                         _______ _______ _______ _____ _____    ______ ____
ROOT
ATOM      1  C   UNL     1      -5.952  12.798  22.374  0.00  0.00    +0.000 A 
ATOM      2  N   UNL     1      -7.108  12.376  22.957  0.00  0.00    +0.000 NA
ATOM      3  C   UNL     1      -7.914  11.570  22.239  0.00  0.00    +0.000 A 
ATOM      4  C   UNL     1      -7.645  11.191  20.942  0.00  0.00    +0.000 A 
ATOM      5  C   UNL     1      -6.440  11.624  20.380  0.00  0.00    +0.000 A 
ATOM      6  C   UNL     1      -6.092  11.262  19.004  0.00  0.00    +0.000 A 
ATOM      7  O   UNL     1      -6.931  10.679  18.319  0.00  0.00    +0.000 OA
ATOM      8  N   UNL     1      -4.807  11.607  18.568  0.00  0.00    +0.000 N 
ATOM      9  C   UNL     1      -4.435  11.112  17.252  0.00  0.00    +0.000 C 
ATOM     10  C   UNL     1      -3.937  12.353  19.353  0.00  0.00    +0.000 A 
ATOM     11  N   UNL     1      -2.676  12.657  18.889  0.00  0.00    +0.000 N 
ATOM     12  N   UNL     1      -4.284  12.775  20.536  0.00  0.00    +0.000 NA
ATOM     13  C   UNL     1      -5.542  12.410  21.082  0.00  0.00    +0.000 A 
ATOM     14  H   UNL     1      -2.482  12.426  17.926  0.00  0.00    +0.000 HD
ENDROOT
BRANCH   1  22
ATOM     15  C   UNL     1      -1.052  15.207  23.983  0.00  0.00    +0.000 C 
ATOM     16  C   UNL     1      -2.234  15.087  24.922  0.00  0.00    +0.000 C 
ATOM     17  N   UNL     1      -2.698  16.412  25.366  0.00  0.00    +0.000 N 
ATOM     18  C   UNL     1      -4.023  16.712  25.043  0.00  0.00    +0.000 C 
ATOM     19  O   UNL     1      -4.627  17.740  25.316  0.00  0.00    +0.000 OA
ATOM     20  C   UNL     1      -4.495  15.560  24.338  0.00  0.00    +0.000 A 
ATOM     21  C   UNL     1      -5.606  15.022  23.683  0.00  0.00    +0.000 A 
ATOM     22  C   UNL     1      -5.228  13.766  23.204  0.00  0.00    +0.000 A 
ATOM     23  N   UNL     1      -3.915  13.557  23.603  0.00  0.00    +0.000 N 
ATOM     24  C   UNL     1      -3.481  14.647  24.271  0.00  0.00    +0.000 A 
ATOM     25  H   UNL     1      -2.153  17.060  25.917  0.00  0.00    +0.000 HD
ATOM     26  H   UNL     1      -3.412  12.712  23.364  0.00  0.00    +0.000 HD
ENDBRANCH   1  22
BRANCH  11  27
ATOM     27  C   UNL     1      -1.462  12.794  19.717  0.00  0.00    +0.000 C 
ATOM     28  C   UNL     1      -1.406  11.716  20.819  0.00  0.00    +0.000 C 
ATOM     29  C   UNL     1      -0.226  12.652  18.806  0.00  0.00    +0.000 C 
ATOM     30  C   UNL     1      -1.389  14.198  20.343  0.00  0.00    +0.000 C 
ENDBRANCH  11  27
TORSDOF 2
ENDMDL
MODEL 3
REMARK VINA RESULT:      -6.6      2.268      3.037
REMARK  Name = 
REMARK  7 active torsions:
REMARK  status: ('A' for Active; 'I' for Inactive)
REMARK    1  A    between atoms: C_1  and  C_2
REMARK    2  A    between atoms: C_8  and  C_9
REMARK    3  A    between atoms: N_16  and  C_17
REMARK    4  A    between atoms: N_19  and  C_20
REMARK    5  A    between atoms: C_20  and  C_21
REMARK    6  A    between atoms: C_20  and  C_22
REMARK    7  A    between atoms: C_20  and  C_23
REMARK                            x       y       z     vdW  Elec       q    Type
REMARK                         _______ _______ _______ _____ _____    ______ ____
ROOT
ATOM      1  C   UNL     1      -2.496  11.025  17.907  0.00  0.00    +0.000 A 
ATOM      2  N   UNL     1      -2.253  10.685  16.612  0.00  0.00    +0.000 NA
ATOM      3  C   UNL     1      -3.212  10.947  15.704  0.00  0.00    +0.000 A 
ATOM      4  C   UNL     1      -4.432  11.499  16.029  0.00  0.00    +0.000 A 
ATOM      5  C   UNL     1      -4.642  11.857  17.365  0.00  0.00    +0.000 A 
ATOM      6  C   UNL     1      -5.917  12.445  17.782  0.00  0.00    +0.000 A 
ATOM      7  O   UNL     1      -6.834  12.503  16.964  0.00  0.00    +0.000 OA
ATOM      8  N   UNL     1      -5.994  12.911  19.099  0.00  0.00    +0.000 N 
ATOM      9  C   UNL     1      -7.217  13.619  19.446  0.00  0.00    +0.000 C 
ATOM     10  C   UNL     1      -4.959  12.730  20.008  0.00  0.00    +0.000 A 
ATOM     11  N   UNL     1      -5.072  13.218  21.291  0.00  0.00    +0.000 N 
ATOM     12  N   UNL     1      -3.865  12.106  19.674  0.00  0.00    +0.000 NA
ATOM     13  C   UNL     1      -3.677  11.664  18.339  0.00  0.00    +0.000 A 
ATOM     14  H   UNL     1      -5.975  13.585  21.556  0.00  0.00    +0.000 HD
ENDROOT
BRANCH   1  22
ATOM     15  C   UNL     1      -0.640  10.007  23.192  0.00  0.00    +0.000 C 
ATOM     16  C   UNL     1       0.300  10.402  22.072  0.00  0.00    +0.000 C 
ATOM     17  N   UNL     1       1.305   9.354  21.826  0.00  0.00    +0.000 N 
ATOM     18  C   UNL     1       1.298   8.821  20.535  0.00  0.00    +0.000 C 
ATOM     19  O   UNL     1       2.043   7.955  20.099  0.00  0.00    +0.000 OA
ATOM     20  C   UNL     1       0.243   9.513  19.862  0.00  0.00    +0.000 A 
ATOM     21  C   UNL     1      -0.437   9.613  18.645  0.00  0.00    +0.000 A 
ATOM     22  C   UNL     1      -1.434  10.576  18.813  0.00  0.00    +0.000 A 
ATOM     23  N   UNL     1      -1.320  11.059  20.110  0.00  0.00    +0.000 N 
ATOM     24  C   UNL     1      -0.318  10.403  20.734  0.00  0.00    +0.000 A 
ATOM     25  H   UNL     1       2.004   9.057  22.491  0.00  0.00    +0.000 HD
ATOM     26  H   UNL     1      -1.946  11.765  20.474  0.00  0.00    +0.000 HD
ENDBRANCH   1  22
BRANCH  11  27
ATOM     27  C   UNL     1      -3.964  13.730  22.121  0.00  0.00    +0.000 C 
ATOM     28  C   UNL     1      -2.948  14.527  21.276  0.00  0.00    +0.000 C 
ATOM     29  C   UNL     1      -4.549  14.650  23.211  0.00  0.00    +0.000 C 
ATOM     30  C   UNL     1      -3.257  12.575  22.851  0.00  0.00    +0.000 C 
ENDBRANCH  11  27
TORSDOF 2
ENDMDL
MODEL 4
REMARK VINA RESULT:      -6.6      2.111      4.718
REMARK  Name = 
REMARK  7 active torsions:
REMARK  status: ('A' for Active; 'I' for Inactive)
REMARK    1  A    between atoms: C_1  and  C_2
REMARK    2  A    between atoms: C_8  and  C_9
REMARK    3  A    between atoms: N_16  and  C_17
REMARK    4  A    between atoms: N_19  and  C_20
REMARK    5  A    between atoms: C_20  and  C_21
REMARK    6  A    between atoms: C_20  and  C_22
REMARK    7  A    between atoms: C_20  and  C_23
REMARK                            x       y       z     vdW  Elec       q    Type
REMARK                         _______ _______ _______ _____ _____    ______ ____
ROOT
ATOM      1  C   UNL     1      -3.291  12.889  22.078  0.00  0.00    +0.000 A 
ATOM      2  N   UNL     1      -3.641  13.035  23.386  0.00  0.00    +0.000 NA
ATOM      3  C   UNL     1      -4.952  13.002  23.692  0.00  0.00    +0.000 A 
ATOM      4  C   UNL     1      -5.946  12.869  22.747  0.00  0.00    +0.000 A 
ATOM      5  C   UNL     1      -5.553  12.701  21.415  0.00  0.00    +0.000 A 
ATOM      6  C   UNL     1      -6.557  12.559  20.359  0.00  0.00    +0.000 A 
ATOM      7  O   UNL     1      -7.743  12.713  20.649  0.00  0.00    +0.000 OA
ATOM      8  N   UNL     1      -6.084  12.245  19.079  0.00  0.00    +0.000 N 
ATOM      9  C   UNL     1      -7.106  11.968  18.081  0.00  0.00    +0.000 C 
ATOM     10  C   UNL     1      -4.727  12.179  18.789  0.00  0.00    +0.000 A 
ATOM     11  N   UNL     1      -4.307  11.853  17.519  0.00  0.00    +0.000 N 
ATOM     12  N   UNL     1      -3.827  12.416  19.701  0.00  0.00    +0.000 NA
ATOM     13  C   UNL     1      -4.220  12.672  21.040  0.00  0.00    +0.000 A 
ATOM     14  H   UNL     1      -5.022  11.797  16.808  0.00  0.00    +0.000 HD
ENDROOT
BRANCH   1  22
ATOM     15  C   UNL     1       1.389  11.855  19.007  0.00  0.00    +0.000 C 
ATOM     16  C   UNL     1       1.448  12.115  20.498  0.00  0.00    +0.000 C 
ATOM     17  N   UNL     1       2.257  13.307  20.799  0.00  0.00    +0.000 N 
ATOM     18  C   UNL     1       1.581  14.326  21.472  0.00  0.00    +0.000 C 
ATOM     19  O   UNL     1       2.046  15.396  21.835  0.00  0.00    +0.000 OA
ATOM     20  C   UNL     1       0.248  13.831  21.633  0.00  0.00    +0.000 A 
ATOM     21  C   UNL     1      -1.015  14.152  22.140  0.00  0.00    +0.000 A 
ATOM     22  C   UNL     1      -1.852  13.070  21.861  0.00  0.00    +0.000 A 
ATOM     23  N   UNL     1      -1.078  12.109  21.224  0.00  0.00    +0.000 N 
ATOM     24  C   UNL     1       0.179  12.584  21.080  0.00  0.00    +0.000 A 
ATOM     25  H   UNL     1       3.245  13.397  20.607  0.00  0.00    +0.000 HD
ATOM     26  H   UNL     1      -1.468  11.230  20.911  0.00  0.00    +0.000 HD
ENDBRANCH   1  22
BRANCH  11  27
ATOM     27  C   UNL     1      -3.083  11.100  17.181  0.00  0.00    +0.000 C 
ATOM     28  C   UNL     1      -3.114   9.676  17.776  0.00  0.00    +0.000 C 
ATOM     29  C   UNL     1      -2.970  11.005  15.647  0.00  0.00    +0.000 C 
ATOM     30  C   UNL     1      -1.833  11.853  17.671  0.00  0.00    +0.000 C 
ENDBRANCH  11  27
TORSDOF 2
ENDMDL
MODEL 5
REMARK VINA RESULT:      -6.6      1.524      1.978
REMARK  Name = 
REMARK  7 active torsions:
REMARK  status: ('A' for Active; 'I' for Inactive)
REMARK    1  A    between atoms: C_1  and  C_2
REMARK    2  A    between atoms: C_8  and  C_9
REMARK    3  A    between atoms: N_16  and  C_17
REMARK    4  A    between atoms: N_19  and  C_20
REMARK    5  A    between atoms: C_20  and  C_21
REMARK    6  A    between atoms: C_20  and  C_22
REMARK    7  A    between atoms: C_20  and  C_23
REMARK                            x       y       z     vdW  Elec       q    Type
REMARK                         _______ _______ _______ _____ _____    ______ ____
ROOT
ATOM      1  C   UNL     1      -3.534  11.620  18.199  0.00  0.00    +0.000 A 
ATOM      2  N   UNL     1      -3.841  11.581  16.873  0.00  0.00    +0.000 NA
ATOM      3  C   UNL     1      -5.087  11.936  16.507  0.00  0.00    +0.000 A 
ATOM      4  C   UNL     1      -6.067  12.295  17.407  0.00  0.00    +0.000 A 
ATOM      5  C   UNL     1      -5.714  12.347  18.759  0.00  0.00    +0.000 A 
ATOM      6  C   UNL     1      -6.707  12.716  19.770  0.00  0.00    +0.000 A 
ATOM      7  O   UNL     1      -7.878  12.859  19.421  0.00  0.00    +0.000 OA
ATOM      8  N   UNL     1      -6.239  12.889  21.077  0.00  0.00    +0.000 N 
ATOM      9  C   UNL     1      -7.213  13.395  22.033  0.00  0.00    +0.000 C 
ATOM     10  C   UNL     1      -4.923  12.619  21.433  0.00  0.00    +0.000 A 
ATOM     11  N   UNL     1      -4.503  12.817  22.729  0.00  0.00    +0.000 N 
ATOM     12  N   UNL     1      -4.062  12.181  20.559  0.00  0.00    +0.000 NA
ATOM     13  C   UNL     1      -4.435  12.045  19.197  0.00  0.00    +0.000 A 
ATOM     14  H   UNL     1      -5.218  13.036  23.407  0.00  0.00    +0.000 HD
ENDROOT
BRANCH   1  22
ATOM     15  C   UNL     1       0.048   8.895  21.685  0.00  0.00    +0.000 C 
ATOM     16  C   UNL     1       0.525   9.946  20.704  0.00  0.00    +0.000 C 
ATOM     17  N   UNL     1       1.486   9.381  19.743  0.00  0.00    +0.000 N 
ATOM     18  C   UNL     1       1.104   9.473  18.403  0.00  0.00    +0.000 C 
ATOM     19  O   UNL     1       1.740   9.085  17.434  0.00  0.00    +0.000 OA
ATOM     20  C   UNL     1      -0.175  10.114  18.433  0.00  0.00    +0.000 A 
ATOM     21  C   UNL     1      -1.224  10.565  17.627  0.00  0.00    +0.000 A 
ATOM     22  C   UNL     1      -2.196  11.092  18.480  0.00  0.00    +0.000 A 
ATOM     23  N   UNL     1      -1.706  10.979  19.774  0.00  0.00    +0.000 N 
ATOM     24  C   UNL     1      -0.497  10.377  19.734  0.00  0.00    +0.000 A 
ATOM     25  H   UNL     1       2.390   9.002  19.985  0.00  0.00    +0.000 HD
ATOM     26  H   UNL     1      -2.240  11.287  20.577  0.00  0.00    +0.000 HD
ENDBRANCH   1  22
BRANCH  11  27
ATOM     27  C   UNL     1      -3.152  13.245  23.143  0.00  0.00    +0.000 C 
ATOM     28  C   UNL     1      -2.175  12.052  23.199  0.00  0.00    +0.000 C 
ATOM     29  C   UNL     1      -2.630  14.279  22.126  0.00  0.00    +0.000 C 
ATOM     30  C   UNL     1      -3.203  13.954  24.507  0.00  0.00    +0.000 C 
ENDBRANCH  11  27
TORSDOF 2
ENDMDL
MODEL 6
REMARK VINA RESULT:      -6.5      2.122      4.671
REMARK  Name = 
REMARK  7 active torsions:
REMARK  status: ('A' for Active; 'I' for Inactive)
REMARK    1  A    between atoms: C_1  and  C_2
REMARK    2  A    between atoms: C_8  and  C_9
REMARK    3  A    between atoms: N_16  and  C_17
REMARK    4  A    between atoms: N_19  and  C_20
REMARK    5  A    between atoms: C_20  and  C_21
REMARK    6  A    between atoms: C_20  and  C_22
REMARK    7  A    between atoms: C_20  and  C_23
REMARK                            x       y       z     vdW  Elec       q    Type
REMARK                         _______ _______ _______ _____ _____    ______ ____
ROOT
ATOM      1  C   UNL     1      -2.741  13.178  21.850  0.00  0.00    +0.000 A 
ATOM      2  N   UNL     1      -2.883  13.390  23.187  0.00  0.00    +0.000 NA
ATOM      3  C   UNL     1      -4.115  13.263  23.715  0.00  0.00    +0.000 A 
ATOM      4  C   UNL     1      -5.234  12.971  22.965  0.00  0.00    +0.000 A 
ATOM      5  C   UNL     1      -5.051  12.739  21.598  0.00  0.00    +0.000 A 
ATOM      6  C   UNL     1      -6.197  12.429  20.740  0.00  0.00    +0.000 A 
ATOM      7  O   UNL     1      -7.328  12.498  21.220  0.00  0.00    +0.000 OA
ATOM      8  N   UNL     1      -5.913  12.064  19.419  0.00  0.00    +0.000 N 
ATOM      9  C   UNL     1      -7.053  11.623  18.630  0.00  0.00    +0.000 C 
ATOM     10  C   UNL     1      -4.623  12.098  18.904  0.00  0.00    +0.000 A 
ATOM     11  N   UNL     1      -4.388  11.716  17.602  0.00  0.00    +0.000 N 
ATOM     12  N   UNL     1      -3.613  12.483  19.632  0.00  0.00    +0.000 NA
ATOM     13  C   UNL     1      -3.803  12.802  21.002  0.00  0.00    +0.000 A 
ATOM     14  H   UNL     1      -5.201  11.544  17.029  0.00  0.00    +0.000 HD
ENDROOT
BRANCH   1  22
ATOM     15  C   UNL     1       0.858  16.542  18.998  0.00  0.00    +0.000 C 
ATOM     16  C   UNL     1       1.080  15.049  19.121  0.00  0.00    +0.000 C 
ATOM     17  N   UNL     1       2.351  14.754  19.804  0.00  0.00    +0.000 N 
ATOM     18  C   UNL     1       2.230  14.011  20.980  0.00  0.00    +0.000 C 
ATOM     19  O   UNL     1       3.141  13.639  21.705  0.00  0.00    +0.000 OA
ATOM     20  C   UNL     1       0.824  13.791  21.127  0.00  0.00    +0.000 A 
ATOM     21  C   UNL     1      -0.140  13.203  21.952  0.00  0.00    +0.000 A 
ATOM     22  C   UNL     1      -1.384  13.471  21.378  0.00  0.00    +0.000 A 
ATOM     23  N   UNL     1      -1.149  14.182  20.209  0.00  0.00    +0.000 N 
ATOM     24  C   UNL     1       0.181  14.380  20.077  0.00  0.00    +0.000 A 
ATOM     25  H   UNL     1       3.266  14.999  19.452  0.00  0.00    +0.000 HD
ATOM     26  H   UNL     1      -1.905  14.502  19.617  0.00  0.00    +0.000 HD
ENDBRANCH   1  22
BRANCH  11  27
ATOM     27  C   UNL     1      -3.167  11.053  17.104  0.00  0.00    +0.000 C 
ATOM     28  C   UNL     1      -1.894  11.784  17.579  0.00  0.00    +0.000 C 
ATOM     29  C   UNL     1      -3.145   9.604  17.630  0.00  0.00    +0.000 C 
ATOM     30  C   UNL     1      -3.188  10.965  15.568  0.00  0.00    +0.000 C 
ENDBRANCH  11  27
TORSDOF 2
ENDMDL
MODEL 7
REMARK VINA RESULT:      -6.4      1.954      2.531
REMARK  Name = 
REMARK  7 active torsions:
REMARK  status: ('A' for Active; 'I' for Inactive)
REMARK    1  A    between atoms: C_1  and  C_2
REMARK    2  A    between atoms: C_8  and  C_9
REMARK    3  A    between atoms: N_16  and  C_17
REMARK    4  A    between atoms: N_19  and  C_20
REMARK    5  A    between atoms: C_20  and  C_21
REMARK    6  A    between atoms: C_20  and  C_22
REMARK    7  A    between atoms: C_20  and  C_23
REMARK                            x       y       z     vdW  Elec       q    Type
REMARK                         _______ _______ _______ _____ _____    ______ ____
ROOT
ATOM      1  C   UNL     1      -3.057  11.372  18.273  0.00  0.00    +0.000 A 
ATOM      2  N   UNL     1      -3.032  11.155  16.929  0.00  0.00    +0.000 NA
ATOM      3  C   UNL     1      -4.138  11.459  16.223  0.00  0.00    +0.000 A 
ATOM      4  C   UNL     1      -5.295  11.938  16.799  0.00  0.00    +0.000 A 
ATOM      5  C   UNL     1      -5.281  12.171  18.178  0.00  0.00    +0.000 A 
ATOM      6  C   UNL     1      -6.478  12.675  18.855  0.00  0.00    +0.000 A 
ATOM      7  O   UNL     1      -7.523  12.770  18.212  0.00  0.00    +0.000 OA
ATOM      8  N   UNL     1      -6.338  13.022  20.204  0.00  0.00    +0.000 N 
ATOM      9  C   UNL     1      -7.499  13.653  20.814  0.00  0.00    +0.000 C 
ATOM     10  C   UNL     1      -5.160  12.800  20.905  0.00  0.00    +0.000 A 
ATOM     11  N   UNL     1      -5.063  13.171  22.228  0.00  0.00    +0.000 N 
ATOM     12  N   UNL     1      -4.127  12.247  20.336  0.00  0.00    +0.000 NA
ATOM     13  C   UNL     1      -4.160  11.929  18.953  0.00  0.00    +0.000 A 
ATOM     14  H   UNL     1      -5.914  13.480  22.673  0.00  0.00    +0.000 HD
ENDROOT
BRANCH   1  22
ATOM     15  C   UNL     1      -0.353   9.830  23.039  0.00  0.00    +0.000 C 
ATOM     16  C   UNL     1       0.382  10.421  21.853  0.00  0.00    +0.000 C 
ATOM     17  N   UNL     1       1.382   9.480  21.324  0.00  0.00    +0.000 N 
ATOM     18  C   UNL     1       1.198   9.112  19.989  0.00  0.00    +0.000 C 
ATOM     19  O   UNL     1       1.904   8.358  19.336  0.00  0.00    +0.000 OA
ATOM     20  C   UNL     1       0.019   9.812  19.579  0.00  0.00    +0.000 A 
ATOM     21  C   UNL     1      -0.846  10.018  18.501  0.00  0.00    +0.000 A 
ATOM     22  C   UNL     1      -1.847  10.884  18.942  0.00  0.00    +0.000 A 
ATOM     23  N   UNL     1      -1.554  11.209  20.260  0.00  0.00    +0.000 N 
ATOM     24  C   UNL     1      -0.438  10.547  20.636  0.00  0.00    +0.000 A 
ATOM     25  H   UNL     1       2.190   9.150  21.832  0.00  0.00    +0.000 HD
ATOM     26  H   UNL     1      -2.147  11.822  20.804  0.00  0.00    +0.000 HD
ENDBRANCH   1  22
BRANCH  11  27
ATOM     27  C   UNL     1      -3.840  13.648  22.903  0.00  0.00    +0.000 C 
ATOM     28  C   UNL     1      -2.961  12.472  23.377  0.00  0.00    +0.000 C 
ATOM     29  C   UNL     1      -3.036  14.513  21.911  0.00  0.00    +0.000 C 
ATOM     30  C   UNL     1      -4.198  14.557  24.091  0.00  0.00    +0.000 C 
ENDBRANCH  11  27
TORSDOF 2
ENDMDL
MODEL 8
REMARK VINA RESULT:      -6.4      2.165      3.181
REMARK  Name = 
REMARK  7 active torsions:
REMARK  status: ('A' for Active; 'I' for Inactive)
REMARK    1  A    between atoms: C_1  and  C_2
REMARK    2  A    between atoms: C_8  and  C_9
REMARK    3  A    between atoms: N_16  and  C_17
REMARK    4  A    between atoms: N_19  and  C_20
REMARK    5  A    between atoms: C_20  and  C_21
REMARK    6  A    between atoms: C_20  and  C_22
REMARK    7  A    between atoms: C_20  and  C_23
REMARK                            x       y       z     vdW  Elec       q    Type
REMARK                         _______ _______ _______ _____ _____    ______ ____
ROOT
ATOM      1  C   UNL     1      -5.733  12.324  19.776  0.00  0.00    +0.000 A 
ATOM      2  N   UNL     1      -7.067  12.294  19.509  0.00  0.00    +0.000 NA
ATOM      3  C   UNL     1      -7.917  12.548  20.523  0.00  0.00    +0.000 A 
ATOM      4  C   UNL     1      -7.502  12.794  21.814  0.00  0.00    +0.000 A 
ATOM      5  C   UNL     1      -6.124  12.840  22.051  0.00  0.00    +0.000 A 
ATOM      6  C   UNL     1      -5.613  13.093  23.400  0.00  0.00    +0.000 A 
ATOM      7  O   UNL     1      -6.414  13.141  24.333  0.00  0.00    +0.000 OA
ATOM      8  N   UNL     1      -4.231  13.271  23.526  0.00  0.00    +0.000 N 
ATOM      9  C   UNL     1      -3.765  13.662  24.848  0.00  0.00    +0.000 C 
ATOM     10  C   UNL     1      -3.364  13.108  22.453  0.00  0.00    +0.000 A 
ATOM     11  N   UNL     1      -2.012  13.307  22.620  0.00  0.00    +0.000 N 
ATOM     12  N   UNL     1      -3.803  12.772  21.273  0.00  0.00    +0.000 NA
ATOM     13  C   UNL     1      -5.197  12.640  21.042  0.00  0.00    +0.000 A 
ATOM     14  H   UNL     1      -1.690  13.444  23.566  0.00  0.00    +0.000 HD
ENDROOT
BRANCH   1  22
ATOM     15  C   UNL     1      -0.957  10.026  17.700  0.00  0.00    +0.000 C 
ATOM     16  C   UNL     1      -1.748  11.065  16.933  0.00  0.00    +0.000 C 
ATOM     17  N   UNL     1      -2.223  10.530  15.647  0.00  0.00    +0.000 N 
ATOM     18  C   UNL     1      -3.609  10.535  15.481  0.00  0.00    +0.000 C 
ATOM     19  O   UNL     1      -4.229  10.153  14.499  0.00  0.00    +0.000 OA
ATOM     20  C   UNL     1      -4.118  11.081  16.701  0.00  0.00    +0.000 A 
ATOM     21  C   UNL     1      -5.296  11.418  17.375  0.00  0.00    +0.000 A 
ATOM     22  C   UNL     1      -4.922  11.908  18.628  0.00  0.00    +0.000 A 
ATOM     23  N   UNL     1      -3.534  11.889  18.675  0.00  0.00    +0.000 N 
ATOM     24  C   UNL     1      -3.064  11.377  17.517  0.00  0.00    +0.000 A 
ATOM     25  H   UNL     1      -1.625  10.230  14.890  0.00  0.00    +0.000 HD
ATOM     26  H   UNL     1      -3.023  12.191  19.495  0.00  0.00    +0.000 HD
ENDBRANCH   1  22
BRANCH  11  27
ATOM     27  C   UNL     1      -1.086  13.841  21.601  0.00  0.00    +0.000 C 
ATOM     28  C   UNL     1      -0.623  12.739  20.626  0.00  0.00    +0.000 C 
ATOM     29  C   UNL     1      -1.811  14.947  20.808  0.00  0.00    +0.000 C 
ATOM     30  C   UNL     1       0.131  14.504  22.271  0.00  0.00    +0.000 C 
ENDBRANCH  11  27
TORSDOF 2
ENDMDL
MODEL 9
REMARK VINA RESULT:      -6.4      1.843      7.242
REMARK  Name = 
REMARK  7 active torsions:
REMARK  status: ('A' for Active; 'I' for Inactive)
REMARK    1  A    between atoms: C_1  and  C_2
REMARK    2  A    between atoms: C_8  and  C_9
REMARK    3  A    between atoms: N_16  and  C_17
REMARK    4  A    between atoms: N_19  and  C_20
REMARK    5  A    between atoms: C_20  and  C_21
REMARK    6  A    between atoms: C_20  and  C_22
REMARK    7  A    between atoms: C_20  and  C_23
REMARK                            x       y       z     vdW  Elec       q    Type
REMARK                         _______ _______ _______ _____ _____    ______ ____
ROOT
ATOM      1  C   UNL     1      -2.422  13.423  21.554  0.00  0.00    +0.000 A 
ATOM      2  N   UNL     1      -2.066  14.461  22.360  0.00  0.00    +0.000 NA
ATOM      3  C   UNL     1      -0.758  14.768  22.446  0.00  0.00    +0.000 A 
ATOM      4  C   UNL     1       0.230  14.061  21.795  0.00  0.00    +0.000 A 
ATOM      5  C   UNL     1      -0.170  13.014  20.958  0.00  0.00    +0.000 A 
ATOM      6  C   UNL     1       0.827  12.219  20.239  0.00  0.00    +0.000 A 
ATOM      7  O   UNL     1       2.018  12.410  20.480  0.00  0.00    +0.000 OA
ATOM      8  N   UNL     1       0.341  11.291  19.310  0.00  0.00    +0.000 N 
ATOM      9  C   UNL     1       1.350  10.617  18.507  0.00  0.00    +0.000 C 
ATOM     10  C   UNL     1      -1.017  11.049  19.150  0.00  0.00    +0.000 A 
ATOM     11  N   UNL     1      -1.451  10.137  18.214  0.00  0.00    +0.000 N 
ATOM     12  N   UNL     1      -1.906  11.674  19.869  0.00  0.00    +0.000 NA
ATOM     13  C   UNL     1      -1.503  12.681  20.783  0.00  0.00    +0.000 A 
ATOM     14  H   UNL     1      -0.740   9.581  17.762  0.00  0.00    +0.000 HD
ENDROOT
BRANCH   1  22
ATOM     15  C   UNL     1      -6.975  10.614  19.607  0.00  0.00    +0.000 C 
ATOM     16  C   UNL     1      -7.093  11.962  20.289  0.00  0.00    +0.000 C 
ATOM     17  N   UNL     1      -7.917  11.873  21.506  0.00  0.00    +0.000 N 
ATOM     18  C   UNL     1      -7.269  12.244  22.686  0.00  0.00    +0.000 C 
ATOM     19  O   UNL     1      -7.751  12.263  23.809  0.00  0.00    +0.000 OA
ATOM     20  C   UNL     1      -5.943  12.592  22.277  0.00  0.00    +0.000 A 
ATOM     21  C   UNL     1      -4.702  13.030  22.749  0.00  0.00    +0.000 A 
ATOM     22  C   UNL     1      -3.851  13.109  21.644  0.00  0.00    +0.000 A 
ATOM     23  N   UNL     1      -4.598  12.751  20.529  0.00  0.00    +0.000 N 
ATOM     24  C   UNL     1      -5.849  12.429  20.925  0.00  0.00    +0.000 A 
ATOM     25  H   UNL     1      -8.896  11.626  21.523  0.00  0.00    +0.000 HD
ATOM     26  H   UNL     1      -4.194  12.723  19.602  0.00  0.00    +0.000 HD
ENDBRANCH   1  22
BRANCH  11  27
ATOM     27  C   UNL     1      -2.707  10.223  17.442  0.00  0.00    +0.000 C 
ATOM     28  C   UNL     1      -3.235  11.672  17.383  0.00  0.00    +0.000 C 
ATOM     29  C   UNL     1      -2.440   9.722  16.009  0.00  0.00    +0.000 C 
ATOM     30  C   UNL     1      -3.775   9.293  18.043  0.00  0.00    +0.000 C 
ENDBRANCH  11  27
TORSDOF 2
ENDMDL
