MODEL 1
REMARK VINA RESULT:      -8.1      0.000      0.000
REMARK  Name = 
REMARK  2 active torsions:
REMARK  status: ('A' for Active; 'I' for Inactive)
REMARK    1  A    between atoms: C_9  and  C_10
REMARK    2  A    between atoms: C_10  and  C_11
REMARK                            x       y       z     vdW  Elec       q    Type
REMARK                         _______ _______ _______ _____ _____    ______ ____
ROOT
ATOM      1  C   UNL     1       5.750   4.931  19.206  0.00  0.00    +0.000 C 
ENDROOT
BRANCH   1  10
ATOM      2  F   UNL     1       4.358   3.229  16.836  0.00  0.00    +0.000 F 
ATOM      3  C   UNL     1       5.261   3.858  16.065  0.00  0.00    +0.000 A 
ATOM      4  C   UNL     1       5.386   3.472  14.726  0.00  0.00    +0.000 A 
ATOM      5  C   UNL     1       6.318   4.092  13.899  0.00  0.00    +0.000 A 
ATOM      6  C   UNL     1       7.113   5.138  14.379  0.00  0.00    +0.000 A 
ATOM      7  C   UNL     1       6.960   5.519  15.721  0.00  0.00    +0.000 A 
ATOM      8  N   UNL     1       7.598   6.503  16.437  0.00  0.00    +0.000 N 
ATOM      9  C   UNL     1       7.208   6.457  17.747  0.00  0.00    +0.000 A 
ATOM     10  C   UNL     1       6.284   5.439  17.901  0.00  0.00    +0.000 A 
ATOM     11  C   UNL     1       6.070   4.881  16.593  0.00  0.00    +0.000 A 
ATOM     12  H   UNL     1       8.290   7.131  16.058  0.00  0.00    +0.000 HD
ENDBRANCH   1  10
BRANCH   1  13
ATOM     13  C   UNL     1       4.307   5.219  19.482  0.00  0.00    +0.000 A 
ATOM     14  C   UNL     1       3.633   6.381  19.150  0.00  0.00    +0.000 A 
ATOM     15  N   UNL     1       2.303   6.204  19.417  0.00  0.00    +0.000 N 
ATOM     16  C   UNL     1       2.078   4.937  19.902  0.00  0.00    +0.000 A 
ATOM     17  C   UNL     1       0.876   4.300  20.240  0.00  0.00    +0.000 A 
ATOM     18  C   UNL     1       0.942   2.982  20.707  0.00  0.00    +0.000 A 
ATOM     19  C   UNL     1       2.167   2.336  20.847  0.00  0.00    +0.000 A 
ATOM     20  C   UNL     1       3.352   2.989  20.498  0.00  0.00    +0.000 A 
ATOM     21  F   UNL     1       4.513   2.332  20.630  0.00  0.00    +0.000 F 
ATOM     22  C   UNL     1       3.323   4.309  20.001  0.00  0.00    +0.000 A 
ATOM     23  H   UNL     1       1.579   6.886  19.235  0.00  0.00    +0.000 HD
ENDBRANCH   1  13
TORSDOF 2
ENDMDL
MODEL 2
REMARK VINA RESULT:      -8.0      1.617      5.949
REMARK  Name = 
REMARK  2 active torsions:
REMARK  status: ('A' for Active; 'I' for Inactive)
REMARK    1  A    between atoms: C_9  and  C_10
REMARK    2  A    between atoms: C_10  and  C_11
REMARK                            x       y       z     vdW  Elec       q    Type
REMARK                         _______ _______ _______ _____ _____    ______ ____
ROOT
ATOM      1  C   UNL     1       4.478   3.209  17.159  0.00  0.00    +0.000 C 
ENDROOT
BRANCH   1  10
ATOM      2  F   UNL     1       4.770   2.109  20.184  0.00  0.00    +0.000 F 
ATOM      3  C   UNL     1       3.515   2.570  20.308  0.00  0.00    +0.000 A 
ATOM      4  C   UNL     1       2.808   2.288  21.482  0.00  0.00    +0.000 A 
ATOM      5  C   UNL     1       1.502   2.739  21.643  0.00  0.00    +0.000 A 
ATOM      6  C   UNL     1       0.890   3.518  20.655  0.00  0.00    +0.000 A 
ATOM      7  C   UNL     1       1.622   3.802  19.493  0.00  0.00    +0.000 A 
ATOM      8  N   UNL     1       1.271   4.537  18.386  0.00  0.00    +0.000 N 
ATOM      9  C   UNL     1       2.260   4.469  17.445  0.00  0.00    +0.000 A 
ATOM     10  C   UNL     1       3.292   3.691  17.939  0.00  0.00    +0.000 A 
ATOM     11  C   UNL     1       2.918   3.320  19.277  0.00  0.00    +0.000 A 
ATOM     12  H   UNL     1       0.390   5.014  18.270  0.00  0.00    +0.000 HD
ENDBRANCH   1  10
BRANCH   1  13
ATOM     13  C   UNL     1       5.385   4.272  16.620  0.00  0.00    +0.000 A 
ATOM     14  C   UNL     1       5.417   4.727  15.314  0.00  0.00    +0.000 A 
ATOM     15  N   UNL     1       6.256   5.806  15.249  0.00  0.00    +0.000 N 
ATOM     16  C   UNL     1       6.767   6.088  16.493  0.00  0.00    +0.000 A 
ATOM     17  C   UNL     1       7.603   7.133  16.911  0.00  0.00    +0.000 A 
ATOM     18  C   UNL     1       7.964   7.184  18.262  0.00  0.00    +0.000 A 
ATOM     19  C   UNL     1       7.520   6.213  19.155  0.00  0.00    +0.000 A 
ATOM     20  C   UNL     1       6.683   5.184  18.718  0.00  0.00    +0.000 A 
ATOM     21  F   UNL     1       6.260   4.274  19.608  0.00  0.00    +0.000 F 
ATOM     22  C   UNL     1       6.277   5.114  17.368  0.00  0.00    +0.000 A 
ATOM     23  H   UNL     1       6.436   6.351  14.417  0.00  0.00    +0.000 HD
ENDBRANCH   1  13
TORSDOF 2
ENDMDL
MODEL 3
REMARK VINA RESULT:      -8.0      1.584      2.685
REMARK  Name = 
REMARK  2 active torsions:
REMARK  status: ('A' for Active; 'I' for Inactive)
REMARK    1  A    between atoms: C_9  and  C_10
REMARK    2  A    between atoms: C_10  and  C_11
REMARK                            x       y       z     vdW  Elec       q    Type
REMARK                         _______ _______ _______ _____ _____    ______ ____
ROOT
ATOM      1  C   UNL     1       4.428   3.277  17.094  0.00  0.00    +0.000 C 
ENDROOT
BRANCH   1  10
ATOM      2  F   UNL     1       6.321   4.177  19.554  0.00  0.00    +0.000 F 
ATOM      3  C   UNL     1       6.713   5.136  18.699  0.00  0.00    +0.000 A 
ATOM      4  C   UNL     1       7.549   6.155  19.169  0.00  0.00    +0.000 A 
ATOM      5  C   UNL     1       7.966   7.173  18.316  0.00  0.00    +0.000 A 
ATOM      6  C   UNL     1       7.593   7.170  16.968  0.00  0.00    +0.000 A 
ATOM      7  C   UNL     1       6.768   6.130  16.514  0.00  0.00    +0.000 A 
ATOM      8  N   UNL     1       6.266   5.885  15.258  0.00  0.00    +0.000 N 
ATOM      9  C   UNL     1       5.422   4.811  15.293  0.00  0.00    +0.000 A 
ATOM     10  C   UNL     1       5.373   4.323  16.587  0.00  0.00    +0.000 A 
ATOM     11  C   UNL     1       6.288   5.122  17.357  0.00  0.00    +0.000 A 
ATOM     12  H   UNL     1       6.457   6.449  14.445  0.00  0.00    +0.000 HD
ENDBRANCH   1  10
BRANCH   1  13
ATOM     13  C   UNL     1       3.278   3.773  17.915  0.00  0.00    +0.000 A 
ATOM     14  C   UNL     1       2.262   4.601  17.472  0.00  0.00    +0.000 A 
ATOM     15  N   UNL     1       1.318   4.698  18.457  0.00  0.00    +0.000 N 
ATOM     16  C   UNL     1       1.680   3.933  19.541  0.00  0.00    +0.000 A 
ATOM     17  C   UNL     1       0.994   3.678  20.737  0.00  0.00    +0.000 A 
ATOM     18  C   UNL     1       1.603   2.840  21.676  0.00  0.00    +0.000 A 
ATOM     19  C   UNL     1       2.860   2.294  21.435  0.00  0.00    +0.000 A 
ATOM     20  C   UNL     1       3.523   2.556  20.233  0.00  0.00    +0.000 A 
ATOM     21  F   UNL     1       4.726   2.000  20.025  0.00  0.00    +0.000 F 
ATOM     22  C   UNL     1       2.930   3.377  19.251  0.00  0.00    +0.000 A 
ATOM     23  H   UNL     1       0.453   5.216  18.383  0.00  0.00    +0.000 HD
ENDBRANCH   1  13
TORSDOF 2
ENDMDL
MODEL 4
REMARK VINA RESULT:      -8.0      0.222      5.716
REMARK  Name = 
REMARK  2 active torsions:
REMARK  status: ('A' for Active; 'I' for Inactive)
REMARK    1  A    between atoms: C_9  and  C_10
REMARK    2  A    between atoms: C_10  and  C_11
REMARK                            x       y       z     vdW  Elec       q    Type
REMARK                         _______ _______ _______ _____ _____    ______ ____
ROOT
ATOM      1  C   UNL     1       5.770   5.118  19.297  0.00  0.00    +0.000 C 
ENDROOT
BRANCH   1  10
ATOM      2  F   UNL     1       4.575   2.368  20.502  0.00  0.00    +0.000 F 
ATOM      3  C   UNL     1       3.393   2.966  20.281  0.00  0.00    +0.000 A 
ATOM      4  C   UNL     1       2.220   2.222  20.454  0.00  0.00    +0.000 A 
ATOM      5  C   UNL     1       0.977   2.804  20.223  0.00  0.00    +0.000 A 
ATOM      6  C   UNL     1       0.877   4.150  19.857  0.00  0.00    +0.000 A 
ATOM      7  C   UNL     1       2.065   4.882  19.705  0.00  0.00    +0.000 A 
ATOM      8  N   UNL     1       2.252   6.200  19.365  0.00  0.00    +0.000 N 
ATOM      9  C   UNL     1       3.587   6.465  19.235  0.00  0.00    +0.000 A 
ATOM     10  C   UNL     1       4.299   5.311  19.508  0.00  0.00    +0.000 A 
ATOM     11  C   UNL     1       3.332   4.313  19.878  0.00  0.00    +0.000 A 
ATOM     12  H   UNL     1       1.509   6.858  19.189  0.00  0.00    +0.000 HD
ENDBRANCH   1  10
BRANCH   1  13
ATOM     13  C   UNL     1       6.305   5.552  17.966  0.00  0.00    +0.000 A 
ATOM     14  C   UNL     1       7.218   6.569  17.750  0.00  0.00    +0.000 A 
ATOM     15  N   UNL     1       7.580   6.555  16.431  0.00  0.00    +0.000 N 
ATOM     16  C   UNL     1       6.939   5.534  15.771  0.00  0.00    +0.000 A 
ATOM     17  C   UNL     1       7.056   5.104  14.442  0.00  0.00    +0.000 A 
ATOM     18  C   UNL     1       6.279   4.014  14.034  0.00  0.00    +0.000 A 
ATOM     19  C   UNL     1       5.403   3.393  14.920  0.00  0.00    +0.000 A 
ATOM     20  C   UNL     1       5.307   3.835  16.242  0.00  0.00    +0.000 A 
ATOM     21  F   UNL     1       4.466   3.203  17.074  0.00  0.00    +0.000 F 
ATOM     22  C   UNL     1       6.094   4.914  16.696  0.00  0.00    +0.000 A 
ATOM     23  H   UNL     1       8.261   7.173  16.011  0.00  0.00    +0.000 HD
ENDBRANCH   1  13
TORSDOF 2
ENDMDL
MODEL 5
REMARK VINA RESULT:      -7.8      3.392      5.133
REMARK  Name = 
REMARK  2 active torsions:
REMARK  status: ('A' for Active; 'I' for Inactive)
REMARK    1  A    between atoms: C_9  and  C_10
REMARK    2  A    between atoms: C_10  and  C_11
REMARK                            x       y       z     vdW  Elec       q    Type
REMARK                         _______ _______ _______ _____ _____    ______ ____
ROOT
ATOM      1  C   UNL     1       3.336   6.897  18.041  0.00  0.00    +0.000 C 
ENDROOT
BRANCH   1  10
ATOM      2  F   UNL     1       1.146   4.603  17.415  0.00  0.00    +0.000 F 
ATOM      3  C   UNL     1       2.090   3.785  17.909  0.00  0.00    +0.000 A 
ATOM      4  C   UNL     1       1.769   2.440  18.121  0.00  0.00    +0.000 A 
ATOM      5  C   UNL     1       2.717   1.564  18.643  0.00  0.00    +0.000 A 
ATOM      6  C   UNL     1       4.015   2.003  18.923  0.00  0.00    +0.000 A 
ATOM      7  C   UNL     1       4.319   3.352  18.689  0.00  0.00    +0.000 A 
ATOM      8  N   UNL     1       5.498   4.035  18.867  0.00  0.00    +0.000 N 
ATOM      9  C   UNL     1       5.314   5.364  18.605  0.00  0.00    +0.000 A 
ATOM     10  C   UNL     1       3.998   5.566  18.230  0.00  0.00    +0.000 A 
ATOM     11  C   UNL     1       3.375   4.270  18.215  0.00  0.00    +0.000 A 
ATOM     12  H   UNL     1       6.357   3.620  19.193  0.00  0.00    +0.000 HD
ENDBRANCH   1  10
BRANCH   1  13
ATOM     13  C   UNL     1       2.424   7.339  19.144  0.00  0.00    +0.000 A 
ATOM     14  C   UNL     1       2.207   6.671  20.336  0.00  0.00    +0.000 A 
ATOM     15  N   UNL     1       1.442   7.464  21.146  0.00  0.00    +0.000 N 
ATOM     16  C   UNL     1       1.162   8.656  20.521  0.00  0.00    +0.000 A 
ATOM     17  C   UNL     1       0.477   9.784  20.993  0.00  0.00    +0.000 A 
ATOM     18  C   UNL     1       0.347  10.880  20.133  0.00  0.00    +0.000 A 
ATOM     19  C   UNL     1       0.866  10.838  18.842  0.00  0.00    +0.000 A 
ATOM     20  C   UNL     1       1.552   9.705  18.395  0.00  0.00    +0.000 A 
ATOM     21  F   UNL     1       2.054   9.704  17.152  0.00  0.00    +0.000 F 
ATOM     22  C   UNL     1       1.724   8.590  19.243  0.00  0.00    +0.000 A 
ATOM     23  H   UNL     1       1.163   7.231  22.090  0.00  0.00    +0.000 HD
ENDBRANCH   1  13
TORSDOF 2
ENDMDL
MODEL 6
REMARK VINA RESULT:      -7.8      3.382      5.990
REMARK  Name = 
REMARK  2 active torsions:
REMARK  status: ('A' for Active; 'I' for Inactive)
REMARK    1  A    between atoms: C_9  and  C_10
REMARK    2  A    between atoms: C_10  and  C_11
REMARK                            x       y       z     vdW  Elec       q    Type
REMARK                         _______ _______ _______ _____ _____    ______ ____
ROOT
ATOM      1  C   UNL     1       3.393   6.881  18.098  0.00  0.00    +0.000 C 
ENDROOT
BRANCH   1  10
ATOM      2  F   UNL     1       2.045   9.657  17.136  0.00  0.00    +0.000 F 
ATOM      3  C   UNL     1       1.565   9.680  18.390  0.00  0.00    +0.000 A 
ATOM      4  C   UNL     1       0.897  10.826  18.834  0.00  0.00    +0.000 A 
ATOM      5  C   UNL     1       0.396  10.891  20.131  0.00  0.00    +0.000 A 
ATOM      6  C   UNL     1       0.513   9.798  20.996  0.00  0.00    +0.000 A 
ATOM      7  C   UNL     1       1.173   8.653  20.525  0.00  0.00    +0.000 A 
ATOM      8  N   UNL     1       1.418   7.455  21.152  0.00  0.00    +0.000 N 
ATOM      9  C   UNL     1       2.185   6.655  20.351  0.00  0.00    +0.000 A 
ATOM     10  C   UNL     1       2.439   7.323  19.167  0.00  0.00    +0.000 A 
ATOM     11  C   UNL     1       1.734   8.574  19.246  0.00  0.00    +0.000 A 
ATOM     12  H   UNL     1       1.118   7.225  22.087  0.00  0.00    +0.000 HD
ENDBRANCH   1  10
BRANCH   1  13
ATOM     13  C   UNL     1       4.050   5.552  18.313  0.00  0.00    +0.000 A 
ATOM     14  C   UNL     1       5.349   5.349  18.742  0.00  0.00    +0.000 A 
ATOM     15  N   UNL     1       5.528   4.013  18.972  0.00  0.00    +0.000 N 
ATOM     16  C   UNL     1       4.363   3.326  18.722  0.00  0.00    +0.000 A 
ATOM     17  C   UNL     1       4.062   1.966  18.887  0.00  0.00    +0.000 A 
ATOM     18  C   UNL     1       2.773   1.536  18.559  0.00  0.00    +0.000 A 
ATOM     19  C   UNL     1       1.826   2.430  18.067  0.00  0.00    +0.000 A 
ATOM     20  C   UNL     1       2.146   3.782  17.917  0.00  0.00    +0.000 A 
ATOM     21  F   UNL     1       1.205   4.620  17.456  0.00  0.00    +0.000 F 
ATOM     22  C   UNL     1       3.429   4.258  18.260  0.00  0.00    +0.000 A 
ATOM     23  H   UNL     1       6.377   3.593  19.324  0.00  0.00    +0.000 HD
ENDBRANCH   1  13
TORSDOF 2
ENDMDL
MODEL 7
REMARK VINA RESULT:      -7.7      1.540      2.032
REMARK  Name = 
REMARK  2 active torsions:
REMARK  status: ('A' for Active; 'I' for Inactive)
REMARK    1  A    between atoms: C_9  and  C_10
REMARK    2  A    between atoms: C_10  and  C_11
REMARK                            x       y       z     vdW  Elec       q    Type
REMARK                         _______ _______ _______ _____ _____    ______ ____
ROOT
ATOM      1  C   UNL     1       4.421   3.801  16.435  0.00  0.00    +0.000 C 
ENDROOT
BRANCH   1  10
ATOM      2  F   UNL     1       4.254   3.248  13.254  0.00  0.00    +0.000 F 
ATOM      3  C   UNL     1       5.457   3.847  13.244  0.00  0.00    +0.000 A 
ATOM      4  C   UNL     1       6.193   3.855  12.055  0.00  0.00    +0.000 A 
ATOM      5  C   UNL     1       7.448   4.455  12.008  0.00  0.00    +0.000 A 
ATOM      6  C   UNL     1       7.974   5.096  13.135  0.00  0.00    +0.000 A 
ATOM      7  C   UNL     1       7.212   5.089  14.313  0.00  0.00    +0.000 A 
ATOM      8  N   UNL     1       7.482   5.641  15.542  0.00  0.00    +0.000 N 
ATOM      9  C   UNL     1       6.501   5.304  16.432  0.00  0.00    +0.000 A 
ATOM     10  C   UNL     1       5.555   4.531  15.782  0.00  0.00    +0.000 A 
ATOM     11  C   UNL     1       5.971   4.450  14.408  0.00  0.00    +0.000 A 
ATOM     12  H   UNL     1       8.310   6.172  15.762  0.00  0.00    +0.000 HD
ENDBRANCH   1  10
BRANCH   1  13
ATOM     13  C   UNL     1       3.743   4.515  17.563  0.00  0.00    +0.000 A 
ATOM     14  C   UNL     1       3.633   5.886  17.707  0.00  0.00    +0.000 A 
ATOM     15  N   UNL     1       2.811   6.148  18.768  0.00  0.00    +0.000 N 
ATOM     16  C   UNL     1       2.357   4.974  19.321  0.00  0.00    +0.000 A 
ATOM     17  C   UNL     1       1.450   4.760  20.369  0.00  0.00    +0.000 A 
ATOM     18  C   UNL     1       1.157   3.439  20.722  0.00  0.00    +0.000 A 
ATOM     19  C   UNL     1       1.764   2.373  20.064  0.00  0.00    +0.000 A 
ATOM     20  C   UNL     1       2.660   2.610  19.018  0.00  0.00    +0.000 A 
ATOM     21  F   UNL     1       3.215   1.560  18.395  0.00  0.00    +0.000 F 
ATOM     22  C   UNL     1       2.962   3.929  18.617  0.00  0.00    +0.000 A 
ATOM     23  H   UNL     1       2.534   7.071  19.073  0.00  0.00    +0.000 HD
ENDBRANCH   1  13
TORSDOF 2
ENDMDL
MODEL 8
REMARK VINA RESULT:      -7.7      1.535      6.613
REMARK  Name = 
REMARK  2 active torsions:
REMARK  status: ('A' for Active; 'I' for Inactive)
REMARK    1  A    between atoms: C_9  and  C_10
REMARK    2  A    between atoms: C_10  and  C_11
REMARK                            x       y       z     vdW  Elec       q    Type
REMARK                         _______ _______ _______ _____ _____    ______ ____
ROOT
ATOM      1  C   UNL     1       4.344   3.857  16.390  0.00  0.00    +0.000 C 
ENDROOT
BRANCH   1  10
ATOM      2  F   UNL     1       3.264   1.596  18.432  0.00  0.00    +0.000 F 
ATOM      3  C   UNL     1       2.689   2.645  19.045  0.00  0.00    +0.000 A 
ATOM      4  C   UNL     1       1.799   2.404  20.097  0.00  0.00    +0.000 A 
ATOM      5  C   UNL     1       1.175   3.464  20.748  0.00  0.00    +0.000 A 
ATOM      6  C   UNL     1       1.460   4.786  20.392  0.00  0.00    +0.000 A 
ATOM      7  C   UNL     1       2.368   5.005  19.345  0.00  0.00    +0.000 A 
ATOM      8  N   UNL     1       2.824   6.184  18.805  0.00  0.00    +0.000 N 
ATOM      9  C   UNL     1       3.627   5.926  17.728  0.00  0.00    +0.000 A 
ATOM     10  C   UNL     1       3.719   4.556  17.560  0.00  0.00    +0.000 A 
ATOM     11  C   UNL     1       2.971   3.961  18.635  0.00  0.00    +0.000 A 
ATOM     12  H   UNL     1       2.562   7.102  19.128  0.00  0.00    +0.000 HD
ENDBRANCH   1  10
BRANCH   1  13
ATOM     13  C   UNL     1       5.525   4.539  15.772  0.00  0.00    +0.000 A 
ATOM     14  C   UNL     1       6.486   5.271  16.447  0.00  0.00    +0.000 A 
ATOM     15  N   UNL     1       7.483   5.595  15.568  0.00  0.00    +0.000 N 
ATOM     16  C   UNL     1       7.211   5.076  14.325  0.00  0.00    +0.000 A 
ATOM     17  C   UNL     1       7.975   5.097  13.150  0.00  0.00    +0.000 A 
ATOM     18  C   UNL     1       7.451   4.470  12.015  0.00  0.00    +0.000 A 
ATOM     19  C   UNL     1       6.199   3.862  12.051  0.00  0.00    +0.000 A 
ATOM     20  C   UNL     1       5.457   3.847  13.236  0.00  0.00    +0.000 A 
ATOM     21  F   UNL     1       4.262   3.237  13.240  0.00  0.00    +0.000 F 
ATOM     22  C   UNL     1       5.965   4.447  14.407  0.00  0.00    +0.000 A 
ATOM     23  H   UNL     1       8.325   6.100  15.808  0.00  0.00    +0.000 HD
ENDBRANCH   1  13
TORSDOF 2
ENDMDL
MODEL 9
REMARK VINA RESULT:      -7.6      3.932      5.661
REMARK  Name = 
REMARK  2 active torsions:
REMARK  status: ('A' for Active; 'I' for Inactive)
REMARK    1  A    between atoms: C_9  and  C_10
REMARK    2  A    between atoms: C_10  and  C_11
REMARK                            x       y       z     vdW  Elec       q    Type
REMARK                         _______ _______ _______ _____ _____    ______ ____
ROOT
ATOM      1  C   UNL     1       2.576   7.029  19.738  0.00  0.00    +0.000 C 
ENDROOT
BRANCH   1  10
ATOM      2  F   UNL     1       0.510   4.641  20.433  0.00  0.00    +0.000 F 
ATOM      3  C   UNL     1       1.237   3.959  19.532  0.00  0.00    +0.000 A 
ATOM      4  C   UNL     1       0.993   2.591  19.369  0.00  0.00    +0.000 A 
ATOM      5  C   UNL     1       1.734   1.849  18.454  0.00  0.00    +0.000 A 
ATOM      6  C   UNL     1       2.701   2.464  17.654  0.00  0.00    +0.000 A 
ATOM      7  C   UNL     1       2.918   3.840  17.822  0.00  0.00    +0.000 A 
ATOM      8  N   UNL     1       3.788   4.683  17.173  0.00  0.00    +0.000 N 
ATOM      9  C   UNL     1       3.735   5.930  17.730  0.00  0.00    +0.000 A 
ATOM     10  C   UNL     1       2.804   5.923  18.753  0.00  0.00    +0.000 A 
ATOM     11  C   UNL     1       2.228   4.605  18.770  0.00  0.00    +0.000 A 
ATOM     12  H   UNL     1       4.409   4.404  16.430  0.00  0.00    +0.000 HD
ENDBRANCH   1  10
BRANCH   1  13
ATOM     13  C   UNL     1       1.912   8.259  19.202  0.00  0.00    +0.000 A 
ATOM     14  C   UNL     1       1.865   8.643  17.874  0.00  0.00    +0.000 A 
ATOM     15  N   UNL     1       1.037   9.727  17.763  0.00  0.00    +0.000 N 
ATOM     16  C   UNL     1       0.517  10.058  18.992  0.00  0.00    +0.000 A 
ATOM     17  C   UNL     1      -0.418  11.042  19.343  0.00  0.00    +0.000 A 
ATOM     18  C   UNL     1      -0.780  11.152  20.689  0.00  0.00    +0.000 A 
ATOM     19  C   UNL     1      -0.212  10.321  21.651  0.00  0.00    +0.000 A 
ATOM     20  C   UNL     1       0.714   9.342  21.278  0.00  0.00    +0.000 A 
ATOM     21  F   UNL     1       1.229   8.547  22.227  0.00  0.00    +0.000 F 
ATOM     22  C   UNL     1       1.085   9.185  19.926  0.00  0.00    +0.000 A 
ATOM     23  H   UNL     1       0.799  10.188  16.896  0.00  0.00    +0.000 HD
ENDBRANCH   1  13
TORSDOF 2
ENDMDL
