MODEL 1
REMARK VINA RESULT:      -6.8      0.000      0.000
REMARK  Name = 
REMARK  6 active torsions:
REMARK  status: ('A' for Active; 'I' for Inactive)
REMARK    1  A    between atoms: O_1  and  C_2
REMARK    2  A    between atoms: C_5  and  C_6
REMARK    3  A    between atoms: C_6  and  N_7
REMARK    4  A    between atoms: N_7  and  C_8
REMARK    5  A    between atoms: C_8  and  C_9
REMARK    6  A    between atoms: C_18  and  O_19
REMARK                            x       y       z     vdW  Elec       q    Type
REMARK                         _______ _______ _______ _____ _____    ______ ____
ROOT
ATOM      1  C   UNL     1       4.780   5.040  19.324  0.00  0.00    +0.000 C 
ENDROOT
BRANCH   1   5
ATOM      2  C   UNL     1       1.756   3.353  20.830  0.00  0.00    +0.000 C 
ATOM      3  C   UNL     1       2.061   4.849  20.961  0.00  0.00    +0.000 C 
ATOM      4  C   UNL     1       2.251   5.511  19.596  0.00  0.00    +0.000 C 
ATOM      5  C   UNL     1       3.356   4.837  18.765  0.00  0.00    +0.000 C 
ATOM      6  C   UNL     1       3.033   3.334  18.612  0.00  0.00    +0.000 C 
ATOM      7  C   UNL     1       2.779   2.612  19.944  0.00  0.00    +0.000 C 
BRANCH   2   8
ATOM      8  O   UNL     1       0.453   3.193  20.268  0.00  0.00    +0.000 OA
ATOM      9  H   UNL     1      -0.032   4.026  20.400  0.00  0.00    +0.000 HD
ENDBRANCH   2   8
BRANCH   7  10
ATOM     10  O   UNL     1       4.027   2.401  20.609  0.00  0.00    +0.000 OA
ATOM     11  H   UNL     1       3.928   2.602  21.554  0.00  0.00    +0.000 HD
ENDBRANCH   7  10
ENDBRANCH   1   5
BRANCH   1  12
ATOM     12  N   UNL     1       5.760   4.118  18.748  0.00  0.00    +0.000 NA
ATOM     13  H   UNL     1       5.294   3.437  18.149  0.00  0.00    +0.000 HD
BRANCH  12  14
ATOM     14  C   UNL     1       6.729   4.859  17.938  0.00  0.00    +0.000 C 
BRANCH  14  15
ATOM     15  C   UNL     1       6.549   4.545  16.473  0.00  0.00    +0.000 A 
ATOM     16  C   UNL     1       5.564   3.635  16.065  0.00  0.00    +0.000 A 
ATOM     17  C   UNL     1       5.389   3.338  14.714  0.00  0.00    +0.000 A 
ATOM     18  C   UNL     1       6.197   3.944  13.752  0.00  0.00    +0.000 A 
ATOM     19 CL   UNL     1       5.924   3.534  12.097  0.00  0.00    +0.000 Cl
ATOM     20  C   UNL     1       7.186   4.852  14.146  0.00  0.00    +0.000 A 
ATOM     21 CL   UNL     1       8.227   5.639  13.015  0.00  0.00    +0.000 Cl
ATOM     22  C   UNL     1       7.361   5.149  15.504  0.00  0.00    +0.000 A 
ENDBRANCH  14  15
ENDBRANCH  12  14
ENDBRANCH   1  12
TORSDOF 6
ENDMDL
MODEL 2
REMARK VINA RESULT:      -6.7      5.068      7.407
REMARK  Name = 
REMARK  6 active torsions:
REMARK  status: ('A' for Active; 'I' for Inactive)
REMARK    1  A    between atoms: O_1  and  C_2
REMARK    2  A    between atoms: C_5  and  C_6
REMARK    3  A    between atoms: C_6  and  N_7
REMARK    4  A    between atoms: N_7  and  C_8
REMARK    5  A    between atoms: C_8  and  C_9
REMARK    6  A    between atoms: C_18  and  O_19
REMARK                            x       y       z     vdW  Elec       q    Type
REMARK                         _______ _______ _______ _____ _____    ______ ____
ROOT
ATOM      1  C   UNL     1       4.650   5.600  18.432  0.00  0.00    +0.000 C 
ENDROOT
BRANCH   1   5
ATOM      2  C   UNL     1       7.021   4.688  15.638  0.00  0.00    +0.000 C 
ATOM      3  C   UNL     1       5.514   4.896  15.454  0.00  0.00    +0.000 C 
ATOM      4  C   UNL     1       5.064   6.265  15.966  0.00  0.00    +0.000 C 
ATOM      5  C   UNL     1       5.433   6.489  17.442  0.00  0.00    +0.000 C 
ATOM      6  C   UNL     1       6.955   6.304  17.621  0.00  0.00    +0.000 C 
ATOM      7  C   UNL     1       7.489   4.969  17.081  0.00  0.00    +0.000 C 
BRANCH   2   8
ATOM      8  O   UNL     1       7.721   5.555  14.745  0.00  0.00    +0.000 OA
ATOM      9  H   UNL     1       7.063   6.105  14.287  0.00  0.00    +0.000 HD
ENDBRANCH   2   8
BRANCH   7  10
ATOM     10  O   UNL     1       7.133   3.920  17.985  0.00  0.00    +0.000 OA
ATOM     11  H   UNL     1       7.753   3.912  18.732  0.00  0.00    +0.000 HD
ENDBRANCH   7  10
ENDBRANCH   1   5
BRANCH   1  12
ATOM     12  N   UNL     1       3.201   5.790  18.353  0.00  0.00    +0.000 NA
ATOM     13  H   UNL     1       2.738   4.901  18.168  0.00  0.00    +0.000 HD
BRANCH  12  14
ATOM     14  C   UNL     1       2.696   6.321  19.620  0.00  0.00    +0.000 C 
BRANCH  14  15
ATOM     15  C   UNL     1       2.078   7.683  19.419  0.00  0.00    +0.000 A 
ATOM     16  C   UNL     1       2.181   8.325  18.177  0.00  0.00    +0.000 A 
ATOM     17  C   UNL     1       1.614   9.583  17.981  0.00  0.00    +0.000 A 
ATOM     18  C   UNL     1       0.937  10.218  19.022  0.00  0.00    +0.000 A 
ATOM     19 CL   UNL     1       0.255  11.774  18.710  0.00  0.00    +0.000 Cl
ATOM     20  C   UNL     1       0.830   9.589  20.267  0.00  0.00    +0.000 A 
ATOM     21 CL   UNL     1       0.011  10.313  21.606  0.00  0.00    +0.000 Cl
ATOM     22  C   UNL     1       1.400   8.325  20.464  0.00  0.00    +0.000 A 
ENDBRANCH  14  15
ENDBRANCH  12  14
ENDBRANCH   1  12
TORSDOF 6
ENDMDL
MODEL 3
REMARK VINA RESULT:      -6.6      4.005      6.660
REMARK  Name = 
REMARK  6 active torsions:
REMARK  status: ('A' for Active; 'I' for Inactive)
REMARK    1  A    between atoms: O_1  and  C_2
REMARK    2  A    between atoms: C_5  and  C_6
REMARK    3  A    between atoms: C_6  and  N_7
REMARK    4  A    between atoms: N_7  and  C_8
REMARK    5  A    between atoms: C_8  and  C_9
REMARK    6  A    between atoms: C_18  and  O_19
REMARK                            x       y       z     vdW  Elec       q    Type
REMARK                         _______ _______ _______ _____ _____    ______ ____
ROOT
ATOM      1  C   UNL     1       4.662   6.436  17.894  0.00  0.00    +0.000 C 
ENDROOT
BRANCH   1   5
ATOM      2  C   UNL     1       6.801   4.268  15.661  0.00  0.00    +0.000 C 
ATOM      3  C   UNL     1       5.422   4.811  15.269  0.00  0.00    +0.000 C 
ATOM      4  C   UNL     1       5.353   6.333  15.403  0.00  0.00    +0.000 C 
ATOM      5  C   UNL     1       5.705   6.813  16.821  0.00  0.00    +0.000 C 
ATOM      6  C   UNL     1       7.105   6.286  17.205  0.00  0.00    +0.000 C 
ATOM      7  C   UNL     1       7.265   4.767  17.045  0.00  0.00    +0.000 C 
BRANCH   2   8
ATOM      8  O   UNL     1       7.754   4.670  14.678  0.00  0.00    +0.000 OA
ATOM      9  H   UNL     1       8.626   4.339  14.956  0.00  0.00    +0.000 HD
ENDBRANCH   2   8
BRANCH   7  10
ATOM     10  O   UNL     1       6.589   4.108  18.119  0.00  0.00    +0.000 OA
ATOM     11  H   UNL     1       6.009   4.740  18.573  0.00  0.00    +0.000 HD
ENDBRANCH   7  10
ENDBRANCH   1   5
BRANCH   1  12
ATOM     12  N   UNL     1       3.621   7.452  18.065  0.00  0.00    +0.000 NA
ATOM     13  H   UNL     1       3.750   8.205  17.391  0.00  0.00    +0.000 HD
BRANCH  12  14
ATOM     14  C   UNL     1       2.301   6.857  17.848  0.00  0.00    +0.000 C 
BRANCH  14  15
ATOM     15  C   UNL     1       2.062   5.725  18.817  0.00  0.00    +0.000 A 
ATOM     16  C   UNL     1       2.174   5.945  20.197  0.00  0.00    +0.000 A 
ATOM     17  C   UNL     1       1.954   4.906  21.100  0.00  0.00    +0.000 A 
ATOM     18  C   UNL     1       1.620   3.633  20.638  0.00  0.00    +0.000 A 
ATOM     19 CL   UNL     1       1.358   2.393  21.811  0.00  0.00    +0.000 Cl
ATOM     20  C   UNL     1       1.507   3.400  19.263  0.00  0.00    +0.000 A 
ATOM     21 CL   UNL     1       1.101   1.851  18.615  0.00  0.00    +0.000 Cl
ATOM     22  C   UNL     1       1.729   4.444  18.357  0.00  0.00    +0.000 A 
ENDBRANCH  14  15
ENDBRANCH  12  14
ENDBRANCH   1  12
TORSDOF 6
ENDMDL
MODEL 4
REMARK VINA RESULT:      -6.5      2.449      3.832
REMARK  Name = 
REMARK  6 active torsions:
REMARK  status: ('A' for Active; 'I' for Inactive)
REMARK    1  A    between atoms: O_1  and  C_2
REMARK    2  A    between atoms: C_5  and  C_6
REMARK    3  A    between atoms: C_6  and  N_7
REMARK    4  A    between atoms: N_7  and  C_8
REMARK    5  A    between atoms: C_8  and  C_9
REMARK    6  A    between atoms: C_18  and  O_19
REMARK                            x       y       z     vdW  Elec       q    Type
REMARK                         _______ _______ _______ _____ _____    ______ ____
ROOT
ATOM      1  C   UNL     1       1.559   4.448  19.941  0.00  0.00    +0.000 C 
ENDROOT
BRANCH   1   5
ATOM      2  C   UNL     1       3.696   1.890  18.165  0.00  0.00    +0.000 C 
ATOM      3  C   UNL     1       4.194   2.787  19.303  0.00  0.00    +0.000 C 
ATOM      4  C   UNL     1       3.322   2.655  20.552  0.00  0.00    +0.000 C 
ATOM      5  C   UNL     1       1.842   2.966  20.270  0.00  0.00    +0.000 C 
ATOM      6  C   UNL     1       1.335   2.044  19.139  0.00  0.00    +0.000 C 
ATOM      7  C   UNL     1       2.195   2.086  17.867  0.00  0.00    +0.000 C 
BRANCH   2   8
ATOM      8  O   UNL     1       3.927   0.525  18.514  0.00  0.00    +0.000 OA
ATOM      9  H   UNL     1       3.062   0.108  18.668  0.00  0.00    +0.000 HD
ENDBRANCH   2   8
BRANCH   7  10
ATOM     10  O   UNL     1       1.930   3.301  17.161  0.00  0.00    +0.000 OA
ATOM     11  H   UNL     1       2.557   3.985  17.448  0.00  0.00    +0.000 HD
ENDBRANCH   7  10
ENDBRANCH   1   5
BRANCH   1  12
ATOM     12  N   UNL     1       2.513   5.366  20.564  0.00  0.00    +0.000 NA
ATOM     13  H   UNL     1       3.386   4.882  20.770  0.00  0.00    +0.000 HD
BRANCH  12  14
ATOM     14  C   UNL     1       2.803   6.478  19.657  0.00  0.00    +0.000 C 
BRANCH  14  15
ATOM     15  C   UNL     1       3.942   6.127  18.732  0.00  0.00    +0.000 A 
ATOM     16  C   UNL     1       3.704   5.944  17.363  0.00  0.00    +0.000 A 
ATOM     17  C   UNL     1       4.750   5.620  16.500  0.00  0.00    +0.000 A 
ATOM     18  C   UNL     1       6.047   5.474  16.991  0.00  0.00    +0.000 A 
ATOM     19 CL   UNL     1       7.295   5.076  15.866  0.00  0.00    +0.000 Cl
ATOM     20  C   UNL     1       6.297   5.651  18.356  0.00  0.00    +0.000 A 
ATOM     21 CL   UNL     1       7.874   5.483  19.041  0.00  0.00    +0.000 Cl
ATOM     22  C   UNL     1       5.246   5.976  19.223  0.00  0.00    +0.000 A 
ENDBRANCH  14  15
ENDBRANCH  12  14
ENDBRANCH   1  12
TORSDOF 6
ENDMDL
MODEL 5
REMARK VINA RESULT:      -6.5      1.099      1.580
REMARK  Name = 
REMARK  6 active torsions:
REMARK  status: ('A' for Active; 'I' for Inactive)
REMARK    1  A    between atoms: O_1  and  C_2
REMARK    2  A    between atoms: C_5  and  C_6
REMARK    3  A    between atoms: C_6  and  N_7
REMARK    4  A    between atoms: N_7  and  C_8
REMARK    5  A    between atoms: C_8  and  C_9
REMARK    6  A    between atoms: C_18  and  O_19
REMARK                            x       y       z     vdW  Elec       q    Type
REMARK                         _______ _______ _______ _____ _____    ______ ____
ROOT
ATOM      1  C   UNL     1       4.974   4.137  19.404  0.00  0.00    +0.000 C 
ENDROOT
BRANCH   1   5
ATOM      2  C   UNL     1       1.214   3.797  19.296  0.00  0.00    +0.000 C 
ATOM      3  C   UNL     1       2.108   3.862  18.053  0.00  0.00    +0.000 C 
ATOM      4  C   UNL     1       3.201   2.793  18.084  0.00  0.00    +0.000 C 
ATOM      5  C   UNL     1       4.075   2.883  19.346  0.00  0.00    +0.000 C 
ATOM      6  C   UNL     1       3.174   2.792  20.598  0.00  0.00    +0.000 C 
ATOM      7  C   UNL     1       2.021   3.806  20.611  0.00  0.00    +0.000 C 
BRANCH   2   8
ATOM      8  O   UNL     1       0.428   2.607  19.240  0.00  0.00    +0.000 OA
ATOM      9  H   UNL     1       0.579   2.112  20.065  0.00  0.00    +0.000 HD
ENDBRANCH   2   8
BRANCH   7  10
ATOM     10  O   UNL     1       2.537   5.101  20.927  0.00  0.00    +0.000 OA
ATOM     11  H   UNL     1       2.258   5.736  20.247  0.00  0.00    +0.000 HD
ENDBRANCH   7  10
ENDBRANCH   1   5
BRANCH   1  12
ATOM     12  N   UNL     1       6.177   4.019  18.579  0.00  0.00    +0.000 NA
ATOM     13  H   UNL     1       6.121   3.189  17.990  0.00  0.00    +0.000 HD
BRANCH  12  14
ATOM     14  C   UNL     1       6.307   5.192  17.714  0.00  0.00    +0.000 C 
BRANCH  14  15
ATOM     15  C   UNL     1       6.317   4.784  16.261  0.00  0.00    +0.000 A 
ATOM     16  C   UNL     1       5.377   3.861  15.783  0.00  0.00    +0.000 A 
ATOM     17  C   UNL     1       5.378   3.478  14.443  0.00  0.00    +0.000 A 
ATOM     18  C   UNL     1       6.319   4.010  13.562  0.00  0.00    +0.000 A 
ATOM     19 CL   UNL     1       6.262   3.494  11.914  0.00  0.00    +0.000 Cl
ATOM     20  C   UNL     1       7.265   4.930  14.026  0.00  0.00    +0.000 A 
ATOM     21 CL   UNL     1       8.463   5.629  12.997  0.00  0.00    +0.000 Cl
ATOM     22  C   UNL     1       7.263   5.314  15.373  0.00  0.00    +0.000 A 
ENDBRANCH  14  15
ENDBRANCH  12  14
ENDBRANCH   1  12
TORSDOF 6
ENDMDL
MODEL 6
REMARK VINA RESULT:      -6.5      4.797      7.081
REMARK  Name = 
REMARK  6 active torsions:
REMARK  status: ('A' for Active; 'I' for Inactive)
REMARK    1  A    between atoms: O_1  and  C_2
REMARK    2  A    between atoms: C_5  and  C_6
REMARK    3  A    between atoms: C_6  and  N_7
REMARK    4  A    between atoms: N_7  and  C_8
REMARK    5  A    between atoms: C_8  and  C_9
REMARK    6  A    between atoms: C_18  and  O_19
REMARK                            x       y       z     vdW  Elec       q    Type
REMARK                         _______ _______ _______ _____ _____    ______ ____
ROOT
ATOM      1  C   UNL     1       4.963   4.963  18.673  0.00  0.00    +0.000 C 
ENDROOT
BRANCH   1   5
ATOM      2  C   UNL     1       6.247   5.077  15.122  0.00  0.00    +0.000 C 
ATOM      3  C   UNL     1       5.336   6.141  15.743  0.00  0.00    +0.000 C 
ATOM      4  C   UNL     1       5.928   6.714  17.031  0.00  0.00    +0.000 C 
ATOM      5  C   UNL     1       6.223   5.625  18.076  0.00  0.00    +0.000 C 
ATOM      6  C   UNL     1       7.162   4.567  17.457  0.00  0.00    +0.000 C 
ATOM      7  C   UNL     1       6.655   3.982  16.131  0.00  0.00    +0.000 C 
BRANCH   2   8
ATOM      8  O   UNL     1       7.424   5.709  14.621  0.00  0.00    +0.000 OA
ATOM      9  H   UNL     1       8.121   5.616  15.293  0.00  0.00    +0.000 HD
ENDBRANCH   2   8
BRANCH   7  10
ATOM     10  O   UNL     1       5.594   3.062  16.398  0.00  0.00    +0.000 OA
ATOM     11  H   UNL     1       5.490   2.460  15.643  0.00  0.00    +0.000 HD
ENDBRANCH   7  10
ENDBRANCH   1   5
BRANCH   1  12
ATOM     12  N   UNL     1       4.314   5.783  19.696  0.00  0.00    +0.000 NA
ATOM     13  H   UNL     1       4.608   6.755  19.609  0.00  0.00    +0.000 HD
BRANCH  12  14
ATOM     14  C   UNL     1       2.860   5.724  19.536  0.00  0.00    +0.000 C 
BRANCH  14  15
ATOM     15  C   UNL     1       2.288   7.108  19.350  0.00  0.00    +0.000 A 
ATOM     16  C   UNL     1       2.386   7.747  18.106  0.00  0.00    +0.000 A 
ATOM     17  C   UNL     1       1.860   9.026  17.923  0.00  0.00    +0.000 A 
ATOM     18  C   UNL     1       1.232   9.684  18.980  0.00  0.00    +0.000 A 
ATOM     19 CL   UNL     1       0.601  11.264  18.684  0.00  0.00    +0.000 Cl
ATOM     20  C   UNL     1       1.131   9.058  20.227  0.00  0.00    +0.000 A 
ATOM     21 CL   UNL     1       0.371   9.811  21.584  0.00  0.00    +0.000 Cl
ATOM     22  C   UNL     1       1.659   7.775  20.410  0.00  0.00    +0.000 A 
ENDBRANCH  14  15
ENDBRANCH  12  14
ENDBRANCH   1  12
TORSDOF 6
ENDMDL
MODEL 7
REMARK VINA RESULT:      -6.4      5.118      6.287
REMARK  Name = 
REMARK  6 active torsions:
REMARK  status: ('A' for Active; 'I' for Inactive)
REMARK    1  A    between atoms: O_1  and  C_2
REMARK    2  A    between atoms: C_5  and  C_6
REMARK    3  A    between atoms: C_6  and  N_7
REMARK    4  A    between atoms: N_7  and  C_8
REMARK    5  A    between atoms: C_8  and  C_9
REMARK    6  A    between atoms: C_18  and  O_19
REMARK                            x       y       z     vdW  Elec       q    Type
REMARK                         _______ _______ _______ _____ _____    ______ ____
ROOT
ATOM      1  C   UNL     1       2.450   3.861  17.680  0.00  0.00    +0.000 C 
ENDROOT
BRANCH   1   5
ATOM      2  C   UNL     1       2.485   3.176  21.394  0.00  0.00    +0.000 C 
ATOM      3  C   UNL     1       1.469   4.087  20.696  0.00  0.00    +0.000 C 
ATOM      4  C   UNL     1       0.744   3.364  19.561  0.00  0.00    +0.000 C 
ATOM      5  C   UNL     1       1.716   2.791  18.516  0.00  0.00    +0.000 C 
ATOM      6  C   UNL     1       2.723   1.852  19.217  0.00  0.00    +0.000 C 
ATOM      7  C   UNL     1       3.454   2.497  20.404  0.00  0.00    +0.000 C 
BRANCH   2   8
ATOM      8  O   UNL     1       1.781   2.168  22.120  0.00  0.00    +0.000 OA
ATOM      9  H   UNL     1       0.837   2.404  22.119  0.00  0.00    +0.000 HD
ENDBRANCH   2   8
BRANCH   7  10
ATOM     10  O   UNL     1       4.450   3.397  19.910  0.00  0.00    +0.000 OA
ATOM     11  H   UNL     1       4.624   4.083  20.574  0.00  0.00    +0.000 HD
ENDBRANCH   7  10
ENDBRANCH   1   5
BRANCH   1  12
ATOM     12  N   UNL     1       1.848   5.190  17.793  0.00  0.00    +0.000 NA
ATOM     13  H   UNL     1       1.145   5.197  18.531  0.00  0.00    +0.000 HD
BRANCH  12  14
ATOM     14  C   UNL     1       2.875   6.179  18.123  0.00  0.00    +0.000 C 
BRANCH  14  15
ATOM     15  C   UNL     1       2.245   7.452  18.632  0.00  0.00    +0.000 A 
ATOM     16  C   UNL     1       1.974   8.505  17.747  0.00  0.00    +0.000 A 
ATOM     17  C   UNL     1       1.392   9.685  18.207  0.00  0.00    +0.000 A 
ATOM     18  C   UNL     1       1.074   9.831  19.557  0.00  0.00    +0.000 A 
ATOM     19 CL   UNL     1       0.352  11.318  20.058  0.00  0.00    +0.000 Cl
ATOM     20  C   UNL     1       1.343   8.789  20.451  0.00  0.00    +0.000 A 
ATOM     21 CL   UNL     1       0.982   8.897  22.137  0.00  0.00    +0.000 Cl
ATOM     22  C   UNL     1       1.928   7.604  19.988  0.00  0.00    +0.000 A 
ENDBRANCH  14  15
ENDBRANCH  12  14
ENDBRANCH   1  12
TORSDOF 6
ENDMDL
MODEL 8
REMARK VINA RESULT:      -6.4      4.043      6.582
REMARK  Name = 
REMARK  6 active torsions:
REMARK  status: ('A' for Active; 'I' for Inactive)
REMARK    1  A    between atoms: O_1  and  C_2
REMARK    2  A    between atoms: C_5  and  C_6
REMARK    3  A    between atoms: C_6  and  N_7
REMARK    4  A    between atoms: N_7  and  C_8
REMARK    5  A    between atoms: C_8  and  C_9
REMARK    6  A    between atoms: C_18  and  O_19
REMARK                            x       y       z     vdW  Elec       q    Type
REMARK                         _______ _______ _______ _____ _____    ______ ____
ROOT
ATOM      1  C   UNL     1       4.437   6.467  16.292  0.00  0.00    +0.000 C 
ENDROOT
BRANCH   1   5
ATOM      2  C   UNL     1       7.522   5.216  18.076  0.00  0.00    +0.000 C 
ATOM      3  C   UNL     1       6.088   4.856  18.481  0.00  0.00    +0.000 C 
ATOM      4  C   UNL     1       5.303   4.254  17.315  0.00  0.00    +0.000 C 
ATOM      5  C   UNL     1       5.269   5.182  16.089  0.00  0.00    +0.000 C 
ATOM      6  C   UNL     1       6.715   5.523  15.667  0.00  0.00    +0.000 C 
ATOM      7  C   UNL     1       7.580   6.087  16.804  0.00  0.00    +0.000 C 
BRANCH   2   8
ATOM      8  O   UNL     1       8.255   4.012  17.849  0.00  0.00    +0.000 OA
ATOM      9  H   UNL     1       9.109   4.255  17.450  0.00  0.00    +0.000 HD
ENDBRANCH   2   8
BRANCH   7  10
ATOM     10  O   UNL     1       7.203   7.444  17.052  0.00  0.00    +0.000 OA
ATOM     11  H   UNL     1       7.613   7.747  17.878  0.00  0.00    +0.000 HD
ENDBRANCH   7  10
ENDBRANCH   1   5
BRANCH   1  12
ATOM     12  N   UNL     1       4.205   6.784  17.702  0.00  0.00    +0.000 NA
ATOM     13  H   UNL     1       4.606   7.693  17.929  0.00  0.00    +0.000 HD
BRANCH  12  14
ATOM     14  C   UNL     1       2.768   6.832  17.974  0.00  0.00    +0.000 C 
BRANCH  14  15
ATOM     15  C   UNL     1       2.365   5.719  18.910  0.00  0.00    +0.000 A 
ATOM     16  C   UNL     1       2.603   5.838  20.286  0.00  0.00    +0.000 A 
ATOM     17  C   UNL     1       2.235   4.816  21.159  0.00  0.00    +0.000 A 
ATOM     18  C   UNL     1       1.626   3.660  20.671  0.00  0.00    +0.000 A 
ATOM     19 CL   UNL     1       1.193   2.435  21.808  0.00  0.00    +0.000 Cl
ATOM     20  C   UNL     1       1.385   3.528  19.299  0.00  0.00    +0.000 A 
ATOM     21 CL   UNL     1       0.639   2.127  18.618  0.00  0.00    +0.000 Cl
ATOM     22  C   UNL     1       1.756   4.556  18.422  0.00  0.00    +0.000 A 
ENDBRANCH  14  15
ENDBRANCH  12  14
ENDBRANCH   1  12
TORSDOF 6
ENDMDL
MODEL 9
REMARK VINA RESULT:      -6.4      2.827      3.512
REMARK  Name = 
REMARK  6 active torsions:
REMARK  status: ('A' for Active; 'I' for Inactive)
REMARK    1  A    between atoms: O_1  and  C_2
REMARK    2  A    between atoms: C_5  and  C_6
REMARK    3  A    between atoms: C_6  and  N_7
REMARK    4  A    between atoms: N_7  and  C_8
REMARK    5  A    between atoms: C_8  and  C_9
REMARK    6  A    between atoms: C_18  and  O_19
REMARK                            x       y       z     vdW  Elec       q    Type
REMARK                         _______ _______ _______ _____ _____    ______ ____
ROOT
ATOM      1  C   UNL     1       2.532   3.891  17.441  0.00  0.00    +0.000 C 
ENDROOT
BRANCH   1   5
ATOM      2  C   UNL     1       2.642   2.596  20.987  0.00  0.00    +0.000 C 
ATOM      3  C   UNL     1       3.787   3.359  20.314  0.00  0.00    +0.000 C 
ATOM      4  C   UNL     1       3.324   4.709  19.764  0.00  0.00    +0.000 C 
ATOM      5  C   UNL     1       2.155   4.569  18.775  0.00  0.00    +0.000 C 
ATOM      6  C   UNL     1       0.991   3.822  19.463  0.00  0.00    +0.000 C 
ATOM      7  C   UNL     1       1.395   2.477  20.085  0.00  0.00    +0.000 C 
BRANCH   2   8
ATOM      8  O   UNL     1       2.281   3.270  22.193  0.00  0.00    +0.000 OA
ATOM      9  H   UNL     1       2.752   4.121  22.211  0.00  0.00    +0.000 HD
ENDBRANCH   2   8
BRANCH   7  10
ATOM     10  O   UNL     1       1.562   1.510  19.046  0.00  0.00    +0.000 OA
ATOM     11  H   UNL     1       2.312   0.932  19.259  0.00  0.00    +0.000 HD
ENDBRANCH   7  10
ENDBRANCH   1   5
BRANCH   1  12
ATOM     12  N   UNL     1       3.783   3.134  17.515  0.00  0.00    +0.000 NA
ATOM     13  H   UNL     1       3.596   2.135  17.438  0.00  0.00    +0.000 HD
BRANCH  12  14
ATOM     14  C   UNL     1       4.670   3.525  16.418  0.00  0.00    +0.000 C 
BRANCH  14  15
ATOM     15  C   UNL     1       5.498   4.725  16.805  0.00  0.00    +0.000 A 
ATOM     16  C   UNL     1       5.370   5.926  16.093  0.00  0.00    +0.000 A 
ATOM     17  C   UNL     1       6.130   7.041  16.442  0.00  0.00    +0.000 A 
ATOM     18  C   UNL     1       7.029   6.973  17.506  0.00  0.00    +0.000 A 
ATOM     19 CL   UNL     1       7.936   8.392  17.887  0.00  0.00    +0.000 Cl
ATOM     20  C   UNL     1       7.169   5.780  18.223  0.00  0.00    +0.000 A 
ATOM     21 CL   UNL     1       8.264   5.616  19.549  0.00  0.00    +0.000 Cl
ATOM     22  C   UNL     1       6.405   4.660  17.871  0.00  0.00    +0.000 A 
ENDBRANCH  14  15
ENDBRANCH  12  14
ENDBRANCH   1  12
TORSDOF 6
ENDMDL
