MODEL 1
REMARK VINA RESULT:      -7.6      0.000      0.000
REMARK  Name = 
REMARK  15 active torsions:
REMARK  status: ('A' for Active; 'I' for Inactive)
REMARK    1  A    between atoms: C_1  and  C_2
REMARK    2  A    between atoms: C_2  and  N_3
REMARK    3  A    between atoms: C_4  and  C_6
REMARK    4  A    between atoms: C_10  and  C_11
REMARK    5  A    between atoms: C_11  and  N_12
REMARK    6  A    between atoms: N_12  and  C_24
REMARK    7  A    between atoms: C_13  and  C_15
REMARK    8  A    between atoms: C_15  and  C_16
REMARK    9  A    between atoms: C_16  and  C_17
REMARK   10  A    between atoms: C_17  and  C_18
REMARK   11  A    between atoms: C_18  and  C_19
REMARK   12  A    between atoms: C_19  and  C_20
REMARK   13  A    between atoms: N_22  and  O_23
REMARK   14  A    between atoms: C_29  and  O_30
REMARK   15  A    between atoms: O_30  and  C_31
REMARK                            x       y       z     vdW  Elec       q    Type
REMARK                         _______ _______ _______ _____ _____    ______ ____
ROOT
ATOM      1  N   UNL     1       3.383   5.741  18.286  0.00  0.00    +0.000 N 
ATOM      2  C   UNL     1       4.547   5.866  17.460  0.00  0.00    +0.000 C 
ATOM      3  O   UNL     1       5.324   6.816  17.544  0.00  0.00    +0.000 OA
ENDROOT
BRANCH   1   4
ATOM      4  C   UNL     1       2.762   4.460  18.469  0.00  0.00    +0.000 A 
ATOM      5  C   UNL     1       1.472   4.304  17.913  0.00  0.00    +0.000 A 
ATOM      6  C   UNL     1       0.742   3.125  18.068  0.00  0.00    +0.000 A 
ATOM      7  C   UNL     1       1.298   2.062  18.758  0.00  0.00    +0.000 A 
ATOM      8  C   UNL     1       2.595   2.173  19.250  0.00  0.00    +0.000 A 
ATOM      9  C   UNL     1       3.353   3.351  19.107  0.00  0.00    +0.000 A 
BRANCH   9  10
ATOM     10  O   UNL     1       4.585   3.157  19.655  0.00  0.00    +0.000 OA
ATOM     11  C   UNL     1       4.912   2.003  20.394  0.00  0.00    +0.000 C 
ENDBRANCH   9  10
ENDBRANCH   1   4
BRANCH   1  12
ATOM     12  C   UNL     1       3.271   6.619  19.503  0.00  0.00    +0.000 C 
BRANCH  12  17
ATOM     13  C   UNL     1       0.587   9.154  20.354  0.00  0.00    +0.000 A 
ATOM     14  C   UNL     1       0.295   9.708  19.110  0.00  0.00    +0.000 A 
ATOM     15  C   UNL     1       1.080   9.371  18.001  0.00  0.00    +0.000 A 
ATOM     16  C   UNL     1       2.098   8.414  18.126  0.00  0.00    +0.000 A 
ATOM     17  C   UNL     1       2.372   7.835  19.373  0.00  0.00    +0.000 A 
ATOM     18  C   UNL     1       1.699   8.329  20.489  0.00  0.00    +0.000 A 
BRANCH  13  20
ATOM     19  N   UNL     1      -0.424  10.633  22.008  0.00  0.00    +0.000 N 
ATOM     20  C   UNL     1      -0.322   9.337  21.526  0.00  0.00    +0.000 C 
ATOM     21  O   UNL     1      -0.899   8.376  22.019  0.00  0.00    +0.000 OA
ATOM     22  H   UNL     1       0.241  11.323  21.679  0.00  0.00    +0.000 HD
BRANCH  19  24
ATOM     23  C   UNL     1      -1.767  12.439  23.020  0.00  0.00    +0.000 C 
ATOM     24  C   UNL     1      -1.277  11.005  23.115  0.00  0.00    +0.000 C 
ENDBRANCH  19  24
ENDBRANCH  13  20
ENDBRANCH  12  17
ENDBRANCH   1  12
BRANCH   2  25
ATOM     25  C   UNL     1       4.832   4.774  16.415  0.00  0.00    +0.000 C 
BRANCH  25  26
ATOM     26  C   UNL     1       6.269   4.173  16.374  0.00  0.00    +0.000 C 
BRANCH  26  27
ATOM     27  C   UNL     1       6.678   3.917  14.902  0.00  0.00    +0.000 C 
BRANCH  27  28
ATOM     28  C   UNL     1       5.635   4.104  13.781  0.00  0.00    +0.000 C 
BRANCH  28  29
ATOM     29  C   UNL     1       5.995   3.896  12.305  0.00  0.00    +0.000 C 
BRANCH  29  30
ATOM     30  C   UNL     1       5.556   2.599  11.649  0.00  0.00    +0.000 C 
ATOM     31  O   UNL     1       4.449   2.389  11.168  0.00  0.00    +0.000 OA
ATOM     32  N   UNL     1       6.553   1.645  11.636  0.00  0.00    +0.000 N 
ATOM     33  H   UNL     1       7.462   1.733  12.077  0.00  0.00    +0.000 HD
BRANCH  32  34
ATOM     34  O   UNL     1       6.233   0.388  11.081  0.00  0.00    +0.000 OA
ATOM     35  H   UNL     1       6.887   0.308  10.353  0.00  0.00    +0.000 HD
ENDBRANCH  32  34
ENDBRANCH  29  30
ENDBRANCH  28  29
ENDBRANCH  27  28
ENDBRANCH  26  27
ENDBRANCH  25  26
ENDBRANCH   2  25
TORSDOF 13
ENDMDL
MODEL 2
REMARK VINA RESULT:      -7.3      1.819      2.257
REMARK  Name = 
REMARK  15 active torsions:
REMARK  status: ('A' for Active; 'I' for Inactive)
REMARK    1  A    between atoms: C_1  and  C_2
REMARK    2  A    between atoms: C_2  and  N_3
REMARK    3  A    between atoms: C_4  and  C_6
REMARK    4  A    between atoms: C_10  and  C_11
REMARK    5  A    between atoms: C_11  and  N_12
REMARK    6  A    between atoms: N_12  and  C_24
REMARK    7  A    between atoms: C_13  and  C_15
REMARK    8  A    between atoms: C_15  and  C_16
REMARK    9  A    between atoms: C_16  and  C_17
REMARK   10  A    between atoms: C_17  and  C_18
REMARK   11  A    between atoms: C_18  and  C_19
REMARK   12  A    between atoms: C_19  and  C_20
REMARK   13  A    between atoms: N_22  and  O_23
REMARK   14  A    between atoms: C_29  and  O_30
REMARK   15  A    between atoms: O_30  and  C_31
REMARK                            x       y       z     vdW  Elec       q    Type
REMARK                         _______ _______ _______ _____ _____    ______ ____
ROOT
ATOM      1  N   UNL     1       3.650   5.575  18.054  0.00  0.00    +0.000 N 
ATOM      2  C   UNL     1       4.765   5.398  17.172  0.00  0.00    +0.000 C 
ATOM      3  O   UNL     1       5.689   6.207  17.096  0.00  0.00    +0.000 OA
ENDROOT
BRANCH   1   4
ATOM      4  C   UNL     1       2.844   4.450  18.433  0.00  0.00    +0.000 A 
ATOM      5  C   UNL     1       1.547   4.393  17.876  0.00  0.00    +0.000 A 
ATOM      6  C   UNL     1       0.647   3.379  18.208  0.00  0.00    +0.000 A 
ATOM      7  C   UNL     1       1.037   2.379  19.082  0.00  0.00    +0.000 A 
ATOM      8  C   UNL     1       2.335   2.379  19.583  0.00  0.00    +0.000 A 
ATOM      9  C   UNL     1       3.262   3.391  19.265  0.00  0.00    +0.000 A 
BRANCH   9  10
ATOM     10  O   UNL     1       4.449   3.114  19.871  0.00  0.00    +0.000 OA
ATOM     11  C   UNL     1       4.727   1.864  20.458  0.00  0.00    +0.000 C 
ENDBRANCH   9  10
ENDBRANCH   1   4
BRANCH   1  12
ATOM     12  C   UNL     1       3.757   6.606  19.145  0.00  0.00    +0.000 C 
BRANCH  12  17
ATOM     13  C   UNL     1       1.180   9.381  19.257  0.00  0.00    +0.000 A 
ATOM     14  C   UNL     1       0.460   9.073  20.409  0.00  0.00    +0.000 A 
ATOM     15  C   UNL     1       0.708   7.869  21.078  0.00  0.00    +0.000 A 
ATOM     16  C   UNL     1       1.735   7.021  20.640  0.00  0.00    +0.000 A 
ATOM     17  C   UNL     1       2.479   7.346  19.497  0.00  0.00    +0.000 A 
ATOM     18  C   UNL     1       2.084   8.454  18.749  0.00  0.00    +0.000 A 
BRANCH  13  20
ATOM     19  N   UNL     1      -0.192  11.261  18.528  0.00  0.00    +0.000 N 
ATOM     20  C   UNL     1       1.085  10.725  18.610  0.00  0.00    +0.000 C 
ATOM     21  O   UNL     1       2.086  11.271  18.166  0.00  0.00    +0.000 OA
ATOM     22  H   UNL     1      -0.981  10.658  18.727  0.00  0.00    +0.000 HD
BRANCH  19  24
ATOM     23  C   UNL     1      -0.300  13.687  18.967  0.00  0.00    +0.000 C 
ATOM     24  C   UNL     1      -0.473  12.562  17.962  0.00  0.00    +0.000 C 
ENDBRANCH  19  24
ENDBRANCH  13  20
ENDBRANCH  12  17
ENDBRANCH   1  12
BRANCH   2  25
ATOM     25  C   UNL     1       4.806   4.150  16.273  0.00  0.00    +0.000 C 
BRANCH  25  26
ATOM     26  C   UNL     1       5.981   4.032  15.257  0.00  0.00    +0.000 C 
BRANCH  26  27
ATOM     27  C   UNL     1       5.437   4.220  13.819  0.00  0.00    +0.000 C 
BRANCH  27  28
ATOM     28  C   UNL     1       6.233   3.652  12.626  0.00  0.00    +0.000 C 
BRANCH  28  29
ATOM     29  C   UNL     1       5.624   2.618  11.671  0.00  0.00    +0.000 C 
BRANCH  29  30
ATOM     30  C   UNL     1       6.474   1.416  11.300  0.00  0.00    +0.000 C 
ATOM     31  O   UNL     1       7.598   1.468  10.816  0.00  0.00    +0.000 OA
ATOM     32  N   UNL     1       5.848   0.217  11.572  0.00  0.00    +0.000 N 
ATOM     33  H   UNL     1       4.896   0.108  11.906  0.00  0.00    +0.000 HD
BRANCH  32  34
ATOM     34  O   UNL     1       6.540  -0.963  11.228  0.00  0.00    +0.000 OA
ATOM     35  H   UNL     1       6.001  -1.657  11.665  0.00  0.00    +0.000 HD
ENDBRANCH  32  34
ENDBRANCH  29  30
ENDBRANCH  28  29
ENDBRANCH  27  28
ENDBRANCH  26  27
ENDBRANCH  25  26
ENDBRANCH   2  25
TORSDOF 13
ENDMDL
MODEL 3
REMARK VINA RESULT:      -7.2      2.510      9.223
REMARK  Name = 
REMARK  15 active torsions:
REMARK  status: ('A' for Active; 'I' for Inactive)
REMARK    1  A    between atoms: C_1  and  C_2
REMARK    2  A    between atoms: C_2  and  N_3
REMARK    3  A    between atoms: C_4  and  C_6
REMARK    4  A    between atoms: C_10  and  C_11
REMARK    5  A    between atoms: C_11  and  N_12
REMARK    6  A    between atoms: N_12  and  C_24
REMARK    7  A    between atoms: C_13  and  C_15
REMARK    8  A    between atoms: C_15  and  C_16
REMARK    9  A    between atoms: C_16  and  C_17
REMARK   10  A    between atoms: C_17  and  C_18
REMARK   11  A    between atoms: C_18  and  C_19
REMARK   12  A    between atoms: C_19  and  C_20
REMARK   13  A    between atoms: N_22  and  O_23
REMARK   14  A    between atoms: C_29  and  O_30
REMARK   15  A    between atoms: O_30  and  C_31
REMARK                            x       y       z     vdW  Elec       q    Type
REMARK                         _______ _______ _______ _____ _____    ______ ____
ROOT
ATOM      1  N   UNL     1       2.770   6.443  19.006  0.00  0.00    +0.000 N 
ATOM      2  C   UNL     1       2.108   7.640  19.429  0.00  0.00    +0.000 C 
ATOM      3  O   UNL     1       2.141   8.685  18.781  0.00  0.00    +0.000 OA
ENDROOT
BRANCH   1   4
ATOM      4  C   UNL     1       2.366   5.170  19.530  0.00  0.00    +0.000 A 
ATOM      5  C   UNL     1       2.353   5.048  20.937  0.00  0.00    +0.000 A 
ATOM      6  C   UNL     1       2.030   3.846  21.569  0.00  0.00    +0.000 A 
ATOM      7  C   UNL     1       1.683   2.745  20.805  0.00  0.00    +0.000 A 
ATOM      8  C   UNL     1       1.620   2.867  19.421  0.00  0.00    +0.000 A 
ATOM      9  C   UNL     1       1.941   4.069  18.759  0.00  0.00    +0.000 A 
BRANCH   9  10
ATOM     10  O   UNL     1       1.762   3.901  17.419  0.00  0.00    +0.000 OA
ATOM     11  C   UNL     1       2.611   3.094  16.637  0.00  0.00    +0.000 C 
ENDBRANCH   9  10
ENDBRANCH   1   4
BRANCH   1  12
ATOM     12  C   UNL     1       3.252   6.358  17.583  0.00  0.00    +0.000 C 
BRANCH  12  17
ATOM     13  C   UNL     1       6.401   5.160  15.848  0.00  0.00    +0.000 A 
ATOM     14  C   UNL     1       7.176   4.709  16.914  0.00  0.00    +0.000 A 
ATOM     15  C   UNL     1       6.743   4.933  18.226  0.00  0.00    +0.000 A 
ATOM     16  C   UNL     1       5.496   5.529  18.463  0.00  0.00    +0.000 A 
ATOM     17  C   UNL     1       4.704   5.957  17.388  0.00  0.00    +0.000 A 
ATOM     18  C   UNL     1       5.245   5.889  16.105  0.00  0.00    +0.000 A 
BRANCH  13  20
ATOM     19  N   UNL     1       6.093   3.650  13.957  0.00  0.00    +0.000 N 
ATOM     20  C   UNL     1       6.721   4.791  14.435  0.00  0.00    +0.000 C 
ATOM     21  O   UNL     1       7.513   5.460  13.785  0.00  0.00    +0.000 OA
ATOM     22  H   UNL     1       5.624   3.046  14.620  0.00  0.00    +0.000 HD
BRANCH  19  24
ATOM     23  C   UNL     1       5.013   3.342  11.761  0.00  0.00    +0.000 C 
ATOM     24  C   UNL     1       6.259   3.159  12.607  0.00  0.00    +0.000 C 
ENDBRANCH  19  24
ENDBRANCH  13  20
ENDBRANCH  12  17
ENDBRANCH   1  12
BRANCH   2  25
ATOM     25  C   UNL     1       1.331   7.624  20.758  0.00  0.00    +0.000 C 
BRANCH  25  26
ATOM     26  C   UNL     1       1.198   8.970  21.531  0.00  0.00    +0.000 C 
BRANCH  26  27
ATOM     27  C   UNL     1       0.014   9.781  20.951  0.00  0.00    +0.000 C 
BRANCH  27  28
ATOM     28  C   UNL     1      -0.229  11.224  21.438  0.00  0.00    +0.000 C 
BRANCH  28  29
ATOM     29  C   UNL     1      -1.400  12.064  20.914  0.00  0.00    +0.000 C 
BRANCH  29  30
ATOM     30  C   UNL     1      -1.698  12.006  19.426  0.00  0.00    +0.000 C 
ATOM     31  O   UNL     1      -2.491  11.239  18.893  0.00  0.00    +0.000 OA
ATOM     32  N   UNL     1      -0.975  12.931  18.701  0.00  0.00    +0.000 N 
ATOM     33  H   UNL     1      -0.256  13.542  19.073  0.00  0.00    +0.000 HD
BRANCH  32  34
ATOM     34  O   UNL     1      -1.151  12.932  17.302  0.00  0.00    +0.000 OA
ATOM     35  H   UNL     1      -1.852  13.608  17.180  0.00  0.00    +0.000 HD
ENDBRANCH  32  34
ENDBRANCH  29  30
ENDBRANCH  28  29
ENDBRANCH  27  28
ENDBRANCH  26  27
ENDBRANCH  25  26
ENDBRANCH   2  25
TORSDOF 13
ENDMDL
MODEL 4
REMARK VINA RESULT:      -7.2      2.302      4.068
REMARK  Name = 
REMARK  15 active torsions:
REMARK  status: ('A' for Active; 'I' for Inactive)
REMARK    1  A    between atoms: C_1  and  C_2
REMARK    2  A    between atoms: C_2  and  N_3
REMARK    3  A    between atoms: C_4  and  C_6
REMARK    4  A    between atoms: C_10  and  C_11
REMARK    5  A    between atoms: C_11  and  N_12
REMARK    6  A    between atoms: N_12  and  C_24
REMARK    7  A    between atoms: C_13  and  C_15
REMARK    8  A    between atoms: C_15  and  C_16
REMARK    9  A    between atoms: C_16  and  C_17
REMARK   10  A    between atoms: C_17  and  C_18
REMARK   11  A    between atoms: C_18  and  C_19
REMARK   12  A    between atoms: C_19  and  C_20
REMARK   13  A    between atoms: N_22  and  O_23
REMARK   14  A    between atoms: C_29  and  O_30
REMARK   15  A    between atoms: O_30  and  C_31
REMARK                            x       y       z     vdW  Elec       q    Type
REMARK                         _______ _______ _______ _____ _____    ______ ____
ROOT
ATOM      1  N   UNL     1       5.552   4.291  17.980  0.00  0.00    +0.000 N 
ATOM      2  C   UNL     1       4.820   3.817  16.845  0.00  0.00    +0.000 C 
ATOM      3  O   UNL     1       3.919   2.984  16.932  0.00  0.00    +0.000 OA
ENDROOT
BRANCH   1   4
ATOM      4  C   UNL     1       6.265   5.535  17.913  0.00  0.00    +0.000 A 
ATOM      5  C   UNL     1       5.616   6.592  17.236  0.00  0.00    +0.000 A 
ATOM      6  C   UNL     1       6.226   7.834  17.056  0.00  0.00    +0.000 A 
ATOM      7  C   UNL     1       7.489   8.057  17.576  0.00  0.00    +0.000 A 
ATOM      8  C   UNL     1       8.112   7.051  18.308  0.00  0.00    +0.000 A 
ATOM      9  C   UNL     1       7.518   5.789  18.504  0.00  0.00    +0.000 A 
BRANCH   9  10
ATOM     10  O   UNL     1       8.340   5.026  19.278  0.00  0.00    +0.000 OA
ATOM     11  C   UNL     1       8.478   5.229  20.664  0.00  0.00    +0.000 C 
ENDBRANCH   9  10
ENDBRANCH   1   4
BRANCH   1  12
ATOM     12  C   UNL     1       5.002   4.012  19.353  0.00  0.00    +0.000 C 
BRANCH  12  17
ATOM     13  C   UNL     1       1.959   6.143  20.099  0.00  0.00    +0.000 A 
ATOM     14  C   UNL     1       1.031   5.197  20.527  0.00  0.00    +0.000 A 
ATOM     15  C   UNL     1       1.337   3.835  20.432  0.00  0.00    +0.000 A 
ATOM     16  C   UNL     1       2.604   3.429  19.988  0.00  0.00    +0.000 A 
ATOM     17  C   UNL     1       3.548   4.383  19.583  0.00  0.00    +0.000 A 
ATOM     18  C   UNL     1       3.147   5.716  19.515  0.00  0.00    +0.000 A 
BRANCH  13  20
ATOM     19  N   UNL     1       1.472   7.956  21.654  0.00  0.00    +0.000 N 
ATOM     20  C   UNL     1       1.761   7.604  20.344  0.00  0.00    +0.000 C 
ATOM     21  O   UNL     1       1.827   8.402  19.419  0.00  0.00    +0.000 OA
ATOM     22  H   UNL     1       1.230   7.222  22.309  0.00  0.00    +0.000 HD
BRANCH  19  24
ATOM     23  C   UNL     1       0.130   9.471  23.066  0.00  0.00    +0.000 C 
ATOM     24  C   UNL     1       1.279   9.323  22.085  0.00  0.00    +0.000 C 
ENDBRANCH  19  24
ENDBRANCH  13  20
ENDBRANCH  12  17
ENDBRANCH   1  12
BRANCH   2  25
ATOM     25  C   UNL     1       5.183   4.361  15.452  0.00  0.00    +0.000 C 
BRANCH  25  26
ATOM     26  C   UNL     1       6.552   3.930  14.844  0.00  0.00    +0.000 C 
BRANCH  26  27
ATOM     27  C   UNL     1       6.455   3.942  13.299  0.00  0.00    +0.000 C 
BRANCH  27  28
ATOM     28  C   UNL     1       5.151   3.481  12.617  0.00  0.00    +0.000 C 
BRANCH  28  29
ATOM     29  C   UNL     1       5.167   2.596  11.364  0.00  0.00    +0.000 C 
BRANCH  29  30
ATOM     30  C   UNL     1       6.249   1.534  11.267  0.00  0.00    +0.000 C 
ATOM     31  O   UNL     1       7.436   1.752  11.055  0.00  0.00    +0.000 OA
ATOM     32  N   UNL     1       5.760   0.257  11.450  0.00  0.00    +0.000 N 
ATOM     33  H   UNL     1       4.783   0.007  11.559  0.00  0.00    +0.000 HD
BRANCH  32  34
ATOM     34  O   UNL     1       6.681  -0.806  11.341  0.00  0.00    +0.000 OA
ATOM     35  H   UNL     1       6.584  -1.071  10.400  0.00  0.00    +0.000 HD
ENDBRANCH  32  34
ENDBRANCH  29  30
ENDBRANCH  28  29
ENDBRANCH  27  28
ENDBRANCH  26  27
ENDBRANCH  25  26
ENDBRANCH   2  25
TORSDOF 13
ENDMDL
MODEL 5
REMARK VINA RESULT:      -7.1      3.183      5.666
REMARK  Name = 
REMARK  15 active torsions:
REMARK  status: ('A' for Active; 'I' for Inactive)
REMARK    1  A    between atoms: C_1  and  C_2
REMARK    2  A    between atoms: C_2  and  N_3
REMARK    3  A    between atoms: C_4  and  C_6
REMARK    4  A    between atoms: C_10  and  C_11
REMARK    5  A    between atoms: C_11  and  N_12
REMARK    6  A    between atoms: N_12  and  C_24
REMARK    7  A    between atoms: C_13  and  C_15
REMARK    8  A    between atoms: C_15  and  C_16
REMARK    9  A    between atoms: C_16  and  C_17
REMARK   10  A    between atoms: C_17  and  C_18
REMARK   11  A    between atoms: C_18  and  C_19
REMARK   12  A    between atoms: C_19  and  C_20
REMARK   13  A    between atoms: N_22  and  O_23
REMARK   14  A    between atoms: C_29  and  O_30
REMARK   15  A    between atoms: O_30  and  C_31
REMARK                            x       y       z     vdW  Elec       q    Type
REMARK                         _______ _______ _______ _____ _____    ______ ____
ROOT
ATOM      1  N   UNL     1       3.718   5.561  17.505  0.00  0.00    +0.000 N 
ATOM      2  C   UNL     1       2.658   4.610  17.346  0.00  0.00    +0.000 C 
ATOM      3  O   UNL     1       1.471   4.910  17.463  0.00  0.00    +0.000 OA
ENDROOT
BRANCH   1   4
ATOM      4  C   UNL     1       5.015   5.296  16.951  0.00  0.00    +0.000 A 
ATOM      5  C   UNL     1       5.120   5.361  15.543  0.00  0.00    +0.000 A 
ATOM      6  C   UNL     1       6.313   5.073  14.880  0.00  0.00    +0.000 A 
ATOM      7  C   UNL     1       7.439   4.741  15.613  0.00  0.00    +0.000 A 
ATOM      8  C   UNL     1       7.373   4.743  17.003  0.00  0.00    +0.000 A 
ATOM      9  C   UNL     1       6.181   5.030  17.696  0.00  0.00    +0.000 A 
BRANCH   9  10
ATOM     10  O   UNL     1       6.423   4.987  19.036  0.00  0.00    +0.000 OA
ATOM     11  C   UNL     1       7.528   5.630  19.627  0.00  0.00    +0.000 C 
ENDBRANCH   9  10
ENDBRANCH   1   4
BRANCH   1  12
ATOM     12  C   UNL     1       3.372   7.026  17.496  0.00  0.00    +0.000 C 
BRANCH  12  17
ATOM     13  C   UNL     1       1.103   9.329  19.473  0.00  0.00    +0.000 A 
ATOM     14  C   UNL     1       1.105   8.738  20.734  0.00  0.00    +0.000 A 
ATOM     15  C   UNL     1       1.723   7.496  20.915  0.00  0.00    +0.000 A 
ATOM     16  C   UNL     1       2.410   6.891  19.853  0.00  0.00    +0.000 A 
ATOM     17  C   UNL     1       2.432   7.500  18.590  0.00  0.00    +0.000 A 
ATOM     18  C   UNL     1       1.652   8.639  18.396  0.00  0.00    +0.000 A 
BRANCH  13  20
ATOM     19  N   UNL     1      -0.631  10.847  18.676  0.00  0.00    +0.000 N 
ATOM     20  C   UNL     1       0.620  10.727  19.263  0.00  0.00    +0.000 C 
ATOM     21  O   UNL     1       1.324  11.679  19.574  0.00  0.00    +0.000 OA
ATOM     22  H   UNL     1      -1.049  10.022  18.262  0.00  0.00    +0.000 HD
BRANCH  19  24
ATOM     23  C   UNL     1      -2.008  12.654  19.637  0.00  0.00    +0.000 C 
ATOM     24  C   UNL     1      -1.272  12.118  18.423  0.00  0.00    +0.000 C 
ENDBRANCH  19  24
ENDBRANCH  13  20
ENDBRANCH  12  17
ENDBRANCH   1  12
BRANCH   2  25
ATOM     25  C   UNL     1       3.020   3.148  17.030  0.00  0.00    +0.000 C 
BRANCH  25  26
ATOM     26  C   UNL     1       2.276   2.034  17.826  0.00  0.00    +0.000 C 
BRANCH  26  27
ATOM     27  C   UNL     1       3.186   1.525  18.970  0.00  0.00    +0.000 C 
BRANCH  27  28
ATOM     28  C   UNL     1       4.117   2.516  19.699  0.00  0.00    +0.000 C 
BRANCH  28  29
ATOM     29  C   UNL     1       3.584   3.494  20.753  0.00  0.00    +0.000 C 
BRANCH  29  30
ATOM     30  C   UNL     1       2.135   3.344  21.183  0.00  0.00    +0.000 C 
ATOM     31  O   UNL     1       1.182   3.916  20.667  0.00  0.00    +0.000 OA
ATOM     32  N   UNL     1       1.980   2.473  22.241  0.00  0.00    +0.000 N 
ATOM     33  H   UNL     1       2.733   2.025  22.754  0.00  0.00    +0.000 HD
BRANCH  32  34
ATOM     34  O   UNL     1       0.674   2.293  22.742  0.00  0.00    +0.000 OA
ATOM     35  H   UNL     1       0.440   3.197  23.047  0.00  0.00    +0.000 HD
ENDBRANCH  32  34
ENDBRANCH  29  30
ENDBRANCH  28  29
ENDBRANCH  27  28
ENDBRANCH  26  27
ENDBRANCH  25  26
ENDBRANCH   2  25
TORSDOF 13
ENDMDL
MODEL 6
REMARK VINA RESULT:      -7.1      3.222      9.160
REMARK  Name = 
REMARK  15 active torsions:
REMARK  status: ('A' for Active; 'I' for Inactive)
REMARK    1  A    between atoms: C_1  and  C_2
REMARK    2  A    between atoms: C_2  and  N_3
REMARK    3  A    between atoms: C_4  and  C_6
REMARK    4  A    between atoms: C_10  and  C_11
REMARK    5  A    between atoms: C_11  and  N_12
REMARK    6  A    between atoms: N_12  and  C_24
REMARK    7  A    between atoms: C_13  and  C_15
REMARK    8  A    between atoms: C_15  and  C_16
REMARK    9  A    between atoms: C_16  and  C_17
REMARK   10  A    between atoms: C_17  and  C_18
REMARK   11  A    between atoms: C_18  and  C_19
REMARK   12  A    between atoms: C_19  and  C_20
REMARK   13  A    between atoms: N_22  and  O_23
REMARK   14  A    between atoms: C_29  and  O_30
REMARK   15  A    between atoms: O_30  and  C_31
REMARK                            x       y       z     vdW  Elec       q    Type
REMARK                         _______ _______ _______ _____ _____    ______ ____
ROOT
ATOM      1  N   UNL     1       5.258   4.665  17.192  0.00  0.00    +0.000 N 
ATOM      2  C   UNL     1       4.155   4.328  18.041  0.00  0.00    +0.000 C 
ATOM      3  O   UNL     1       3.470   3.320  17.875  0.00  0.00    +0.000 OA
ENDROOT
BRANCH   1   4
ATOM      4  C   UNL     1       6.273   5.569  17.650  0.00  0.00    +0.000 A 
ATOM      5  C   UNL     1       7.166   5.068  18.624  0.00  0.00    +0.000 A 
ATOM      6  C   UNL     1       8.163   5.864  19.189  0.00  0.00    +0.000 A 
ATOM      7  C   UNL     1       8.310   7.175  18.769  0.00  0.00    +0.000 A 
ATOM      8  C   UNL     1       7.487   7.664  17.759  0.00  0.00    +0.000 A 
ATOM      9  C   UNL     1       6.473   6.880  17.173  0.00  0.00    +0.000 A 
BRANCH   9  10
ATOM     10  O   UNL     1       5.855   7.607  16.201  0.00  0.00    +0.000 OA
ATOM     11  C   UNL     1       4.731   7.131  15.499  0.00  0.00    +0.000 C 
ENDBRANCH   9  10
ENDBRANCH   1   4
BRANCH   1  12
ATOM     12  C   UNL     1       5.799   3.607  16.267  0.00  0.00    +0.000 C 
BRANCH  12  17
ATOM     13  C   UNL     1       5.683   3.813  12.486  0.00  0.00    +0.000 A 
ATOM     14  C   UNL     1       6.928   4.355  12.178  0.00  0.00    +0.000 A 
ATOM     15  C   UNL     1       7.761   4.804  13.210  0.00  0.00    +0.000 A 
ATOM     16  C   UNL     1       7.379   4.628  14.548  0.00  0.00    +0.000 A 
ATOM     17  C   UNL     1       6.137   4.056  14.857  0.00  0.00    +0.000 A 
ATOM     18  C   UNL     1       5.256   3.793  13.809  0.00  0.00    +0.000 A 
BRANCH  13  20
ATOM     19  N   UNL     1       3.888   3.972  10.843  0.00  0.00    +0.000 N 
ATOM     20  C   UNL     1       4.835   3.156  11.444  0.00  0.00    +0.000 C 
ATOM     21  O   UNL     1       4.977   1.968  11.189  0.00  0.00    +0.000 OA
ATOM     22  H   UNL     1       3.698   4.876  11.257  0.00  0.00    +0.000 HD
BRANCH  19  24
ATOM     23  C   UNL     1       2.387   4.666   9.012  0.00  0.00    +0.000 C 
ATOM     24  C   UNL     1       3.001   3.519   9.794  0.00  0.00    +0.000 C 
ENDBRANCH  19  24
ENDBRANCH  13  20
ENDBRANCH  12  17
ENDBRANCH   1  12
BRANCH   2  25
ATOM     25  C   UNL     1       3.804   5.272  19.204  0.00  0.00    +0.000 C 
BRANCH  25  26
ATOM     26  C   UNL     1       3.028   6.579  18.861  0.00  0.00    +0.000 C 
BRANCH  26  27
ATOM     27  C   UNL     1       2.039   6.906  20.007  0.00  0.00    +0.000 C 
BRANCH  27  28
ATOM     28  C   UNL     1       1.554   5.775  20.937  0.00  0.00    +0.000 C 
BRANCH  28  29
ATOM     29  C   UNL     1       0.860   4.523  20.387  0.00  0.00    +0.000 C 
BRANCH  29  30
ATOM     30  C   UNL     1       1.479   3.175  20.711  0.00  0.00    +0.000 C 
ATOM     31  O   UNL     1       1.314   2.148  20.063  0.00  0.00    +0.000 OA
ATOM     32  N   UNL     1       2.278   3.211  21.835  0.00  0.00    +0.000 N 
ATOM     33  H   UNL     1       2.398   4.009  22.450  0.00  0.00    +0.000 HD
BRANCH  32  34
ATOM     34  O   UNL     1       2.871   1.998  22.243  0.00  0.00    +0.000 OA
ATOM     35  H   UNL     1       2.099   1.489  22.574  0.00  0.00    +0.000 HD
ENDBRANCH  32  34
ENDBRANCH  29  30
ENDBRANCH  28  29
ENDBRANCH  27  28
ENDBRANCH  26  27
ENDBRANCH  25  26
ENDBRANCH   2  25
TORSDOF 13
ENDMDL
MODEL 7
REMARK VINA RESULT:      -7.1      2.531      8.749
REMARK  Name = 
REMARK  15 active torsions:
REMARK  status: ('A' for Active; 'I' for Inactive)
REMARK    1  A    between atoms: C_1  and  C_2
REMARK    2  A    between atoms: C_2  and  N_3
REMARK    3  A    between atoms: C_4  and  C_6
REMARK    4  A    between atoms: C_10  and  C_11
REMARK    5  A    between atoms: C_11  and  N_12
REMARK    6  A    between atoms: N_12  and  C_24
REMARK    7  A    between atoms: C_13  and  C_15
REMARK    8  A    between atoms: C_15  and  C_16
REMARK    9  A    between atoms: C_16  and  C_17
REMARK   10  A    between atoms: C_17  and  C_18
REMARK   11  A    between atoms: C_18  and  C_19
REMARK   12  A    between atoms: C_19  and  C_20
REMARK   13  A    between atoms: N_22  and  O_23
REMARK   14  A    between atoms: C_29  and  O_30
REMARK   15  A    between atoms: O_30  and  C_31
REMARK                            x       y       z     vdW  Elec       q    Type
REMARK                         _______ _______ _______ _____ _____    ______ ____
ROOT
ATOM      1  N   UNL     1       2.784   6.401  18.999  0.00  0.00    +0.000 N 
ATOM      2  C   UNL     1       2.131   7.445  19.731  0.00  0.00    +0.000 C 
ATOM      3  O   UNL     1       2.360   8.638  19.536  0.00  0.00    +0.000 OA
ENDROOT
BRANCH   1   4
ATOM      4  C   UNL     1       2.202   5.091  18.936  0.00  0.00    +0.000 A 
ATOM      5  C   UNL     1       1.721   4.679  17.673  0.00  0.00    +0.000 A 
ATOM      6  C   UNL     1       1.087   3.450  17.491  0.00  0.00    +0.000 A 
ATOM      7  C   UNL     1       0.944   2.589  18.566  0.00  0.00    +0.000 A 
ATOM      8  C   UNL     1       1.476   2.948  19.801  0.00  0.00    +0.000 A 
ATOM      9  C   UNL     1       2.120   4.182  20.010  0.00  0.00    +0.000 A 
BRANCH   9  10
ATOM     10  O   UNL     1       2.560   4.243  21.298  0.00  0.00    +0.000 OA
ATOM     11  C   UNL     1       2.222   3.271  22.260  0.00  0.00    +0.000 C 
ENDBRANCH   9  10
ENDBRANCH   1   4
BRANCH   1  12
ATOM     12  C   UNL     1       3.530   6.765  17.744  0.00  0.00    +0.000 C 
BRANCH  12  17
ATOM     13  C   UNL     1       6.571   5.236  16.080  0.00  0.00    +0.000 A 
ATOM     14  C   UNL     1       7.210   4.607  17.146  0.00  0.00    +0.000 A 
ATOM     15  C   UNL     1       6.738   4.805  18.449  0.00  0.00    +0.000 A 
ATOM     16  C   UNL     1       5.577   5.560  18.668  0.00  0.00    +0.000 A 
ATOM     17  C   UNL     1       4.918   6.170  17.591  0.00  0.00    +0.000 A 
ATOM     18  C   UNL     1       5.518   6.108  16.334  0.00  0.00    +0.000 A 
BRANCH  13  20
ATOM     19  N   UNL     1       6.160   3.919  14.070  0.00  0.00    +0.000 N 
ATOM     20  C   UNL     1       6.918   4.918  14.661  0.00  0.00    +0.000 C 
ATOM     21  O   UNL     1       7.837   5.503  14.102  0.00  0.00    +0.000 OA
ATOM     22  H   UNL     1       5.568   3.348  14.662  0.00  0.00    +0.000 HD
BRANCH  19  24
ATOM     23  C   UNL     1       5.011   3.263  11.987  0.00  0.00    +0.000 C 
ATOM     24  C   UNL     1       6.332   3.498  12.697  0.00  0.00    +0.000 C 
ENDBRANCH  19  24
ENDBRANCH  13  20
ENDBRANCH  12  17
ENDBRANCH   1  12
BRANCH   2  25
ATOM     25  C   UNL     1       1.110   7.061  20.815  0.00  0.00    +0.000 C 
BRANCH  25  26
ATOM     26  C   UNL     1      -0.126   7.991  21.004  0.00  0.00    +0.000 C 
BRANCH  26  27
ATOM     27  C   UNL     1       0.215   9.095  22.035  0.00  0.00    +0.000 C 
BRANCH  27  28
ATOM     28  C   UNL     1       0.498  10.530  21.546  0.00  0.00    +0.000 C 
BRANCH  28  29
ATOM     29  C   UNL     1       0.061  11.007  20.156  0.00  0.00    +0.000 C 
BRANCH  29  30
ATOM     30  C   UNL     1       1.019  11.896  19.382  0.00  0.00    +0.000 C 
ATOM     31  O   UNL     1       1.315  13.046  19.683  0.00  0.00    +0.000 OA
ATOM     32  N   UNL     1       1.550  11.269  18.274  0.00  0.00    +0.000 N 
ATOM     33  H   UNL     1       1.293  10.348  17.935  0.00  0.00    +0.000 HD
BRANCH  32  34
ATOM     34  O   UNL     1       2.425  12.024  17.465  0.00  0.00    +0.000 OA
ATOM     35  H   UNL     1       3.169  12.210  18.077  0.00  0.00    +0.000 HD
ENDBRANCH  32  34
ENDBRANCH  29  30
ENDBRANCH  28  29
ENDBRANCH  27  28
ENDBRANCH  26  27
ENDBRANCH  25  26
ENDBRANCH   2  25
TORSDOF 13
ENDMDL
MODEL 8
REMARK VINA RESULT:      -7.1      1.897      2.608
REMARK  Name = 
REMARK  15 active torsions:
REMARK  status: ('A' for Active; 'I' for Inactive)
REMARK    1  A    between atoms: C_1  and  C_2
REMARK    2  A    between atoms: C_2  and  N_3
REMARK    3  A    between atoms: C_4  and  C_6
REMARK    4  A    between atoms: C_10  and  C_11
REMARK    5  A    between atoms: C_11  and  N_12
REMARK    6  A    between atoms: N_12  and  C_24
REMARK    7  A    between atoms: C_13  and  C_15
REMARK    8  A    between atoms: C_15  and  C_16
REMARK    9  A    between atoms: C_16  and  C_17
REMARK   10  A    between atoms: C_17  and  C_18
REMARK   11  A    between atoms: C_18  and  C_19
REMARK   12  A    between atoms: C_19  and  C_20
REMARK   13  A    between atoms: N_22  and  O_23
REMARK   14  A    between atoms: C_29  and  O_30
REMARK   15  A    between atoms: O_30  and  C_31
REMARK                            x       y       z     vdW  Elec       q    Type
REMARK                         _______ _______ _______ _____ _____    ______ ____
ROOT
ATOM      1  N   UNL     1       4.208   5.733  17.032  0.00  0.00    +0.000 N 
ATOM      2  C   UNL     1       5.019   5.813  15.854  0.00  0.00    +0.000 C 
ATOM      3  O   UNL     1       5.503   6.868  15.449  0.00  0.00    +0.000 OA
ENDROOT
BRANCH   1   4
ATOM      4  C   UNL     1       4.031   4.477  17.703  0.00  0.00    +0.000 A 
ATOM      5  C   UNL     1       2.884   3.732  17.347  0.00  0.00    +0.000 A 
ATOM      6  C   UNL     1       2.571   2.521  17.965  0.00  0.00    +0.000 A 
ATOM      7  C   UNL     1       3.416   2.010  18.934  0.00  0.00    +0.000 A 
ATOM      8  C   UNL     1       4.588   2.694  19.246  0.00  0.00    +0.000 A 
ATOM      9  C   UNL     1       4.926   3.918  18.637  0.00  0.00    +0.000 A 
BRANCH   9  10
ATOM     10  O   UNL     1       6.133   4.334  19.114  0.00  0.00    +0.000 OA
ATOM     11  C   UNL     1       7.211   4.655  18.267  0.00  0.00    +0.000 C 
ENDBRANCH   9  10
ENDBRANCH   1   4
BRANCH   1  12
ATOM     12  C   UNL     1       4.206   6.901  17.980  0.00  0.00    +0.000 C 
BRANCH  12  17
ATOM     13  C   UNL     1       1.351   8.604  19.798  0.00  0.00    +0.000 A 
ATOM     14  C   UNL     1       1.011   7.663  20.767  0.00  0.00    +0.000 A 
ATOM     15  C   UNL     1       1.607   6.397  20.740  0.00  0.00    +0.000 A 
ATOM     16  C   UNL     1       2.603   6.110  19.797  0.00  0.00    +0.000 A 
ATOM     17  C   UNL     1       2.965   7.068  18.839  0.00  0.00    +0.000 A 
ATOM     18  C   UNL     1       2.223   8.246  18.776  0.00  0.00    +0.000 A 
BRANCH  13  20
ATOM     19  N   UNL     1       1.389  10.877  18.916  0.00  0.00    +0.000 N 
ATOM     20  C   UNL     1       0.885  10.022  19.885  0.00  0.00    +0.000 C 
ATOM     21  O   UNL     1       0.132  10.373  20.784  0.00  0.00    +0.000 OA
ATOM     22  H   UNL     1       2.161  10.556  18.344  0.00  0.00    +0.000 HD
BRANCH  19  24
ATOM     23  C   UNL     1       2.115  13.120  18.187  0.00  0.00    +0.000 C 
ATOM     24  C   UNL     1       1.027  12.274  18.824  0.00  0.00    +0.000 C 
ENDBRANCH  19  24
ENDBRANCH  13  20
ENDBRANCH  12  17
ENDBRANCH   1  12
BRANCH   2  25
ATOM     25  C   UNL     1       5.287   4.527  15.053  0.00  0.00    +0.000 C 
BRANCH  25  26
ATOM     26  C   UNL     1       6.506   4.523  14.083  0.00  0.00    +0.000 C 
BRANCH  26  27
ATOM     27  C   UNL     1       6.236   3.534  12.922  0.00  0.00    +0.000 C 
BRANCH  27  28
ATOM     28  C   UNL     1       7.293   3.357  11.813  0.00  0.00    +0.000 C 
BRANCH  28  29
ATOM     29  C   UNL     1       7.345   2.094  10.945  0.00  0.00    +0.000 C 
BRANCH  29  30
ATOM     30  C   UNL     1       6.251   1.059  11.142  0.00  0.00    +0.000 C 
ATOM     31  O   UNL     1       5.047   1.284  11.087  0.00  0.00    +0.000 OA
ATOM     32  N   UNL     1       6.749  -0.203  11.390  0.00  0.00    +0.000 N 
ATOM     33  H   UNL     1       7.728  -0.438  11.516  0.00  0.00    +0.000 HD
BRANCH  32  34
ATOM     34  O   UNL     1       5.811  -1.230  11.625  0.00  0.00    +0.000 OA
ATOM     35  H   UNL     1       5.699  -1.620  10.731  0.00  0.00    +0.000 HD
ENDBRANCH  32  34
ENDBRANCH  29  30
ENDBRANCH  28  29
ENDBRANCH  27  28
ENDBRANCH  26  27
ENDBRANCH  25  26
ENDBRANCH   2  25
TORSDOF 13
ENDMDL
MODEL 9
REMARK VINA RESULT:      -7.0      3.309      5.613
REMARK  Name = 
REMARK  15 active torsions:
REMARK  status: ('A' for Active; 'I' for Inactive)
REMARK    1  A    between atoms: C_1  and  C_2
REMARK    2  A    between atoms: C_2  and  N_3
REMARK    3  A    between atoms: C_4  and  C_6
REMARK    4  A    between atoms: C_10  and  C_11
REMARK    5  A    between atoms: C_11  and  N_12
REMARK    6  A    between atoms: N_12  and  C_24
REMARK    7  A    between atoms: C_13  and  C_15
REMARK    8  A    between atoms: C_15  and  C_16
REMARK    9  A    between atoms: C_16  and  C_17
REMARK   10  A    between atoms: C_17  and  C_18
REMARK   11  A    between atoms: C_18  and  C_19
REMARK   12  A    between atoms: C_19  and  C_20
REMARK   13  A    between atoms: N_22  and  O_23
REMARK   14  A    between atoms: C_29  and  O_30
REMARK   15  A    between atoms: O_30  and  C_31
REMARK                            x       y       z     vdW  Elec       q    Type
REMARK                         _______ _______ _______ _____ _____    ______ ____
ROOT
ATOM      1  N   UNL     1       3.617   5.607  17.666  0.00  0.00    +0.000 N 
ATOM      2  C   UNL     1       2.455   4.802  17.432  0.00  0.00    +0.000 C 
ATOM      3  O   UNL     1       1.310   5.242  17.524  0.00  0.00    +0.000 OA
ENDROOT
BRANCH   1   4
ATOM      4  C   UNL     1       4.891   5.206  17.142  0.00  0.00    +0.000 A 
ATOM      5  C   UNL     1       4.980   5.081  15.738  0.00  0.00    +0.000 A 
ATOM      6  C   UNL     1       6.148   4.647  15.110  0.00  0.00    +0.000 A 
ATOM      7  C   UNL     1       7.266   4.357  15.872  0.00  0.00    +0.000 A 
ATOM      8  C   UNL     1       7.219   4.545  17.250  0.00  0.00    +0.000 A 
ATOM      9  C   UNL     1       6.053   4.981  17.908  0.00  0.00    +0.000 A 
BRANCH   9  10
ATOM     10  O   UNL     1       6.311   5.101  19.240  0.00  0.00    +0.000 OA
ATOM     11  C   UNL     1       7.557   5.534  19.733  0.00  0.00    +0.000 C 
ENDBRANCH   9  10
ENDBRANCH   1   4
BRANCH   1  12
ATOM     12  C   UNL     1       3.453   7.103  17.712  0.00  0.00    +0.000 C 
BRANCH  12  17
ATOM     13  C   UNL     1       0.796   9.403  19.128  0.00  0.00    +0.000 A 
ATOM     14  C   UNL     1       0.773   9.040  20.473  0.00  0.00    +0.000 A 
ATOM     15  C   UNL     1       1.515   7.934  20.903  0.00  0.00    +0.000 A 
ATOM     16  C   UNL     1       2.343   7.250  20.002  0.00  0.00    +0.000 A 
ATOM     17  C   UNL     1       2.387   7.633  18.654  0.00  0.00    +0.000 A 
ATOM     18  C   UNL     1       1.498   8.616  18.221  0.00  0.00    +0.000 A 
BRANCH  13  20
ATOM     19  N   UNL     1      -1.028  10.532  17.968  0.00  0.00    +0.000 N 
ATOM     20  C   UNL     1       0.173  10.674  18.648  0.00  0.00    +0.000 C 
ATOM     21  O   UNL     1       0.730  11.747  18.836  0.00  0.00    +0.000 OA
ATOM     22  H   UNL     1      -1.309   9.603  17.676  0.00  0.00    +0.000 HD
BRANCH  19  24
ATOM     23  C   UNL     1      -3.271  11.538  17.766  0.00  0.00    +0.000 C 
ATOM     24  C   UNL     1      -1.790  11.650  17.458  0.00  0.00    +0.000 C 
ENDBRANCH  19  24
ENDBRANCH  13  20
ENDBRANCH  12  17
ENDBRANCH   1  12
BRANCH   2  25
ATOM     25  C   UNL     1       2.646   3.321  17.062  0.00  0.00    +0.000 C 
BRANCH  25  26
ATOM     26  C   UNL     1       2.437   2.264  18.189  0.00  0.00    +0.000 C 
BRANCH  26  27
ATOM     27  C   UNL     1       0.998   2.385  18.747  0.00  0.00    +0.000 C 
BRANCH  27  28
ATOM     28  C   UNL     1       0.749   3.192  20.037  0.00  0.00    +0.000 C 
BRANCH  28  29
ATOM     29  C   UNL     1       1.907   3.718  20.894  0.00  0.00    +0.000 C 
BRANCH  29  30
ATOM     30  C   UNL     1       2.911   2.706  21.417  0.00  0.00    +0.000 C 
ATOM     31  O   UNL     1       2.736   1.970  22.381  0.00  0.00    +0.000 OA
ATOM     32  N   UNL     1       4.078   2.683  20.681  0.00  0.00    +0.000 N 
ATOM     33  H   UNL     1       4.309   3.313  19.920  0.00  0.00    +0.000 HD
BRANCH  32  34
ATOM     34  O   UNL     1       5.092   1.802  21.110  0.00  0.00    +0.000 OA
ATOM     35  H   UNL     1       4.984   1.043  20.496  0.00  0.00    +0.000 HD
ENDBRANCH  32  34
ENDBRANCH  29  30
ENDBRANCH  28  29
ENDBRANCH  27  28
ENDBRANCH  26  27
ENDBRANCH  25  26
ENDBRANCH   2  25
TORSDOF 13
ENDMDL
