MODEL 1
REMARK VINA RESULT:      -7.1      0.000      0.000
REMARK  Name = 
REMARK  6 active torsions:
REMARK  status: ('A' for Active; 'I' for Inactive)
REMARK    1  A    between atoms: C_1  and  O_2
REMARK    2  A    between atoms: O_2  and  C_3
REMARK    3  A    between atoms: C_3  and  C_5
REMARK    4  A    between atoms: C_5  and  N_6
REMARK    5  A    between atoms: C_7  and  C_8
REMARK    6  A    between atoms: C_14  and  C_15
REMARK                            x       y       z     vdW  Elec       q    Type
REMARK                         _______ _______ _______ _____ _____    ______ ____
ROOT
ATOM      1  N   UNL     1       4.967   5.651  16.736  0.00  0.00    +0.000 N 
ATOM      2  C   UNL     1       5.122   4.303  16.366  0.00  0.00    +0.000 A 
ATOM      3  C   UNL     1       6.316   3.839  15.569  0.00  0.00    +0.000 C 
ATOM      4  C   UNL     1       4.223   3.365  16.727  0.00  0.00    +0.000 A 
ATOM      5  C   UNL     1       3.043   3.737  17.532  0.00  0.00    +0.000 A 
ATOM      6  O   UNL     1       2.159   2.960  17.863  0.00  0.00    +0.000 OA
ATOM      7  N   UNL     1       2.997   5.073  17.913  0.00  0.00    +0.000 N 
ATOM      8  C   UNL     1       2.051   5.704  18.682  0.00  0.00    +0.000 A 
ATOM      9  C   UNL     1       2.482   7.006  18.798  0.00  0.00    +0.000 A 
ATOM     10  N   UNL     1       3.657   7.189  18.100  0.00  0.00    +0.000 NA
ATOM     11  C   UNL     1       3.937   6.020  17.561  0.00  0.00    +0.000 A 
ENDROOT
BRANCH   9  12
ATOM     12  C   UNL     1       1.819   8.042  19.574  0.00  0.00    +0.000 A 
ATOM     13  C   UNL     1       1.542   7.827  20.931  0.00  0.00    +0.000 A 
ATOM     14  C   UNL     1       0.865   8.794  21.682  0.00  0.00    +0.000 A 
ATOM     15  C   UNL     1       0.473   9.988  21.080  0.00  0.00    +0.000 A 
ATOM     16 CL   UNL     1      -0.369  11.174  21.999  0.00  0.00    +0.000 Cl
ATOM     17  C   UNL     1       0.756  10.226  19.739  0.00  0.00    +0.000 A 
ATOM     18  C   UNL     1       1.427   9.256  18.988  0.00  0.00    +0.000 A 
ENDBRANCH   9  12
BRANCH   1  19
ATOM     19  C   UNL     1       5.870   6.748  16.326  0.00  0.00    +0.000 C 
BRANCH  19  20
ATOM     20  C   UNL     1       7.008   6.967  17.317  0.00  0.00    +0.000 C 
ATOM     21  O   UNL     1       7.345   6.199  18.210  0.00  0.00    +0.000 OA
BRANCH  20  23
ATOM     22  C   UNL     1       8.265   8.783  18.119  0.00  0.00    +0.000 C 
ATOM     23  O   UNL     1       7.672   8.122  16.999  0.00  0.00    +0.000 OA
ENDBRANCH  20  23
ENDBRANCH  19  20
ENDBRANCH   1  19
TORSDOF 4
ENDMDL
MODEL 2
REMARK VINA RESULT:      -7.0      2.240      4.481
REMARK  Name = 
REMARK  6 active torsions:
REMARK  status: ('A' for Active; 'I' for Inactive)
REMARK    1  A    between atoms: C_1  and  O_2
REMARK    2  A    between atoms: O_2  and  C_3
REMARK    3  A    between atoms: C_3  and  C_5
REMARK    4  A    between atoms: C_5  and  N_6
REMARK    5  A    between atoms: C_7  and  C_8
REMARK    6  A    between atoms: C_14  and  C_15
REMARK                            x       y       z     vdW  Elec       q    Type
REMARK                         _______ _______ _______ _____ _____    ______ ____
ROOT
ATOM      1  N   UNL     1       3.169   4.864  20.014  0.00  0.00    +0.000 N 
ATOM      2  C   UNL     1       4.024   4.086  19.213  0.00  0.00    +0.000 A 
ATOM      3  C   UNL     1       4.396   2.677  19.601  0.00  0.00    +0.000 C 
ATOM      4  C   UNL     1       4.528   4.558  18.055  0.00  0.00    +0.000 A 
ATOM      5  C   UNL     1       4.186   5.918  17.595  0.00  0.00    +0.000 A 
ATOM      6  O   UNL     1       4.633   6.439  16.583  0.00  0.00    +0.000 OA
ATOM      7  N   UNL     1       3.284   6.597  18.406  0.00  0.00    +0.000 N 
ATOM      8  C   UNL     1       2.758   7.852  18.226  0.00  0.00    +0.000 A 
ATOM      9  C   UNL     1       1.894   8.042  19.279  0.00  0.00    +0.000 A 
ATOM     10  N   UNL     1       1.896   6.941  20.110  0.00  0.00    +0.000 NA
ATOM     11  C   UNL     1       2.753   6.095  19.576  0.00  0.00    +0.000 A 
ENDROOT
BRANCH   9  12
ATOM     12  C   UNL     1       1.061   9.218  19.480  0.00  0.00    +0.000 A 
ATOM     13  C   UNL     1       0.586   9.525  20.761  0.00  0.00    +0.000 A 
ATOM     14  C   UNL     1      -0.254  10.626  20.965  0.00  0.00    +0.000 A 
ATOM     15  C   UNL     1      -0.611  11.433  19.887  0.00  0.00    +0.000 A 
ATOM     16 CL   UNL     1      -1.650  12.781  20.133  0.00  0.00    +0.000 Cl
ATOM     17  C   UNL     1      -0.133  11.153  18.610  0.00  0.00    +0.000 A 
ATOM     18  C   UNL     1       0.700  10.049  18.407  0.00  0.00    +0.000 A 
ENDBRANCH   9  12
BRANCH   1  19
ATOM     19  C   UNL     1       2.628   4.446  21.326  0.00  0.00    +0.000 C 
BRANCH  19  20
ATOM     20  C   UNL     1       1.590   3.337  21.202  0.00  0.00    +0.000 C 
ATOM     21  O   UNL     1       1.463   2.381  21.956  0.00  0.00    +0.000 OA
BRANCH  20  23
ATOM     22  C   UNL     1       0.660   2.582  19.180  0.00  0.00    +0.000 C 
ATOM     23  O   UNL     1       0.745   3.618  20.162  0.00  0.00    +0.000 OA
ENDBRANCH  20  23
ENDBRANCH  19  20
ENDBRANCH   1  19
TORSDOF 4
ENDMDL
MODEL 3
REMARK VINA RESULT:      -7.0      2.356      3.113
REMARK  Name = 
REMARK  6 active torsions:
REMARK  status: ('A' for Active; 'I' for Inactive)
REMARK    1  A    between atoms: C_1  and  O_2
REMARK    2  A    between atoms: O_2  and  C_3
REMARK    3  A    between atoms: C_3  and  C_5
REMARK    4  A    between atoms: C_5  and  N_6
REMARK    5  A    between atoms: C_7  and  C_8
REMARK    6  A    between atoms: C_14  and  C_15
REMARK                            x       y       z     vdW  Elec       q    Type
REMARK                         _______ _______ _______ _____ _____    ______ ____
ROOT
ATOM      1  N   UNL     1       3.340   3.568  18.318  0.00  0.00    +0.000 N 
ATOM      2  C   UNL     1       3.517   2.383  19.054  0.00  0.00    +0.000 A 
ATOM      3  C   UNL     1       4.175   1.170  18.445  0.00  0.00    +0.000 C 
ATOM      4  C   UNL     1       3.127   2.288  20.341  0.00  0.00    +0.000 A 
ATOM      5  C   UNL     1       2.501   3.442  21.015  0.00  0.00    +0.000 A 
ATOM      6  O   UNL     1       2.078   3.427  22.163  0.00  0.00    +0.000 OA
ATOM      7  N   UNL     1       2.423   4.594  20.242  0.00  0.00    +0.000 N 
ATOM      8  C   UNL     1       1.925   5.824  20.599  0.00  0.00    +0.000 A 
ATOM      9  C   UNL     1       2.110   6.627  19.497  0.00  0.00    +0.000 A 
ATOM     10  N   UNL     1       2.689   5.912  18.470  0.00  0.00    +0.000 NA
ATOM     11  C   UNL     1       2.849   4.689  18.934  0.00  0.00    +0.000 A 
ENDROOT
BRANCH   9  12
ATOM     12  C   UNL     1       1.781   8.042  19.427  0.00  0.00    +0.000 A 
ATOM     13  C   UNL     1       1.217   8.683  20.538  0.00  0.00    +0.000 A 
ATOM     14  C   UNL     1       0.850  10.032  20.473  0.00  0.00    +0.000 A 
ATOM     15  C   UNL     1       1.060  10.750  19.297  0.00  0.00    +0.000 A 
ATOM     16 CL   UNL     1       0.602  12.406  19.212  0.00  0.00    +0.000 Cl
ATOM     17  C   UNL     1       1.636  10.134  18.190  0.00  0.00    +0.000 A 
ATOM     18  C   UNL     1       1.995   8.785  18.254  0.00  0.00    +0.000 A 
ENDBRANCH   9  12
BRANCH   1  19
ATOM     19  C   UNL     1       3.679   3.732  16.888  0.00  0.00    +0.000 C 
BRANCH  19  20
ATOM     20  C   UNL     1       5.090   4.271  16.681  0.00  0.00    +0.000 C 
ATOM     21  O   UNL     1       5.993   4.265  17.509  0.00  0.00    +0.000 OA
BRANCH  20  23
ATOM     22  C   UNL     1       6.143   3.895  14.614  0.00  0.00    +0.000 C 
ATOM     23  O   UNL     1       5.234   4.685  15.384  0.00  0.00    +0.000 OA
ENDBRANCH  20  23
ENDBRANCH  19  20
ENDBRANCH   1  19
TORSDOF 4
ENDMDL
MODEL 4
REMARK VINA RESULT:      -6.9      2.252      4.589
REMARK  Name = 
REMARK  6 active torsions:
REMARK  status: ('A' for Active; 'I' for Inactive)
REMARK    1  A    between atoms: C_1  and  O_2
REMARK    2  A    between atoms: O_2  and  C_3
REMARK    3  A    between atoms: C_3  and  C_5
REMARK    4  A    between atoms: C_5  and  N_6
REMARK    5  A    between atoms: C_7  and  C_8
REMARK    6  A    between atoms: C_14  and  C_15
REMARK                            x       y       z     vdW  Elec       q    Type
REMARK                         _______ _______ _______ _____ _____    ______ ____
ROOT
ATOM      1  N   UNL     1       3.147   4.944  20.001  0.00  0.00    +0.000 N 
ATOM      2  C   UNL     1       4.011   4.176  19.201  0.00  0.00    +0.000 A 
ATOM      3  C   UNL     1       4.392   2.767  19.584  0.00  0.00    +0.000 C 
ATOM      4  C   UNL     1       4.518   4.657  18.048  0.00  0.00    +0.000 A 
ATOM      5  C   UNL     1       4.170   6.016  17.592  0.00  0.00    +0.000 A 
ATOM      6  O   UNL     1       4.619   6.545  16.586  0.00  0.00    +0.000 OA
ATOM      7  N   UNL     1       3.259   6.685  18.402  0.00  0.00    +0.000 N 
ATOM      8  C   UNL     1       2.725   7.938  18.225  0.00  0.00    +0.000 A 
ATOM      9  C   UNL     1       1.854   8.116  19.274  0.00  0.00    +0.000 A 
ATOM     10  N   UNL     1       1.860   7.011  20.100  0.00  0.00    +0.000 NA
ATOM     11  C   UNL     1       2.725   6.173  19.567  0.00  0.00    +0.000 A 
ENDROOT
BRANCH   9  12
ATOM     12  C   UNL     1       1.013   9.286  19.476  0.00  0.00    +0.000 A 
ATOM     13  C   UNL     1       0.448   9.936  18.371  0.00  0.00    +0.000 A 
ATOM     14  C   UNL     1      -0.326  11.089  18.542  0.00  0.00    +0.000 A 
ATOM     15  C   UNL     1      -0.548  11.590  19.823  0.00  0.00    +0.000 A 
ATOM     16 CL   UNL     1      -1.491  13.013  20.036  0.00  0.00    +0.000 Cl
ATOM     17  C   UNL     1      -0.009  10.946  20.934  0.00  0.00    +0.000 A 
ATOM     18  C   UNL     1       0.769   9.798  20.760  0.00  0.00    +0.000 A 
ENDBRANCH   9  12
BRANCH   1  19
ATOM     19  C   UNL     1       2.602   4.516  21.308  0.00  0.00    +0.000 C 
BRANCH  19  20
ATOM     20  C   UNL     1       1.588   3.385  21.174  0.00  0.00    +0.000 C 
ATOM     21  O   UNL     1       1.468   2.431  21.932  0.00  0.00    +0.000 OA
BRANCH  20  23
ATOM     22  C   UNL     1       0.676   2.588  19.161  0.00  0.00    +0.000 C 
ATOM     23  O   UNL     1       0.753   3.645  20.121  0.00  0.00    +0.000 OA
ENDBRANCH  20  23
ENDBRANCH  19  20
ENDBRANCH   1  19
TORSDOF 4
ENDMDL
MODEL 5
REMARK VINA RESULT:      -6.9      4.733      8.205
REMARK  Name = 
REMARK  6 active torsions:
REMARK  status: ('A' for Active; 'I' for Inactive)
REMARK    1  A    between atoms: C_1  and  O_2
REMARK    2  A    between atoms: O_2  and  C_3
REMARK    3  A    between atoms: C_3  and  C_5
REMARK    4  A    between atoms: C_5  and  N_6
REMARK    5  A    between atoms: C_7  and  C_8
REMARK    6  A    between atoms: C_14  and  C_15
REMARK                            x       y       z     vdW  Elec       q    Type
REMARK                         _______ _______ _______ _____ _____    ______ ____
ROOT
ATOM      1  N   UNL     1      -0.783  11.144  20.229  0.00  0.00    +0.000 N 
ATOM      2  C   UNL     1      -1.373  11.651  21.400  0.00  0.00    +0.000 A 
ATOM      3  C   UNL     1      -2.413  12.743  21.347  0.00  0.00    +0.000 C 
ATOM      4  C   UNL     1      -1.052  11.168  22.617  0.00  0.00    +0.000 A 
ATOM      5  C   UNL     1      -0.064  10.080  22.748  0.00  0.00    +0.000 A 
ATOM      6  O   UNL     1       0.317   9.616  23.813  0.00  0.00    +0.000 OA
ATOM      7  N   UNL     1       0.423   9.589  21.542  0.00  0.00    +0.000 N 
ATOM      8  C   UNL     1       1.319   8.568  21.341  0.00  0.00    +0.000 A 
ATOM      9  C   UNL     1       1.439   8.449  19.976  0.00  0.00    +0.000 A 
ATOM     10  N   UNL     1       0.653   9.387  19.339  0.00  0.00    +0.000 NA
ATOM     11  C   UNL     1       0.067  10.072  20.300  0.00  0.00    +0.000 A 
ENDROOT
BRANCH   9  12
ATOM     12  C   UNL     1       2.247   7.455  19.288  0.00  0.00    +0.000 A 
ATOM     13  C   UNL     1       2.934   7.803  18.118  0.00  0.00    +0.000 A 
ATOM     14  C   UNL     1       3.680   6.848  17.417  0.00  0.00    +0.000 A 
ATOM     15  C   UNL     1       3.751   5.541  17.894  0.00  0.00    +0.000 A 
ATOM     16 CL   UNL     1       4.659   4.362  17.030  0.00  0.00    +0.000 Cl
ATOM     17  C   UNL     1       3.090   5.181  19.065  0.00  0.00    +0.000 A 
ATOM     18  C   UNL     1       2.340   6.135  19.759  0.00  0.00    +0.000 A 
ENDBRANCH   9  12
BRANCH   1  19
ATOM     19  C   UNL     1      -1.031  11.662  18.866  0.00  0.00    +0.000 C 
BRANCH  19  20
ATOM     20  C   UNL     1      -2.284  11.066  18.234  0.00  0.00    +0.000 C 
ATOM     21  O   UNL     1      -3.430  11.471  18.384  0.00  0.00    +0.000 OA
BRANCH  20  23
ATOM     22  C   UNL     1      -2.498  10.154  16.079  0.00  0.00    +0.000 C 
ATOM     23  O   UNL     1      -1.928  10.052  17.386  0.00  0.00    +0.000 OA
ENDBRANCH  20  23
ENDBRANCH  19  20
ENDBRANCH   1  19
TORSDOF 4
ENDMDL
MODEL 6
REMARK VINA RESULT:      -6.9      4.725      8.103
REMARK  Name = 
REMARK  6 active torsions:
REMARK  status: ('A' for Active; 'I' for Inactive)
REMARK    1  A    between atoms: C_1  and  O_2
REMARK    2  A    between atoms: O_2  and  C_3
REMARK    3  A    between atoms: C_3  and  C_5
REMARK    4  A    between atoms: C_5  and  N_6
REMARK    5  A    between atoms: C_7  and  C_8
REMARK    6  A    between atoms: C_14  and  C_15
REMARK                            x       y       z     vdW  Elec       q    Type
REMARK                         _______ _______ _______ _____ _____    ______ ____
ROOT
ATOM      1  N   UNL     1      -0.578  11.276  20.215  0.00  0.00    +0.000 N 
ATOM      2  C   UNL     1      -1.185  11.787  21.375  0.00  0.00    +0.000 A 
ATOM      3  C   UNL     1      -2.159  12.938  21.310  0.00  0.00    +0.000 C 
ATOM      4  C   UNL     1      -0.940  11.257  22.591  0.00  0.00    +0.000 A 
ATOM      5  C   UNL     1      -0.021  10.112  22.732  0.00  0.00    +0.000 A 
ATOM      6  O   UNL     1       0.291   9.602  23.798  0.00  0.00    +0.000 OA
ATOM      7  N   UNL     1       0.486   9.623  21.533  0.00  0.00    +0.000 N 
ATOM      8  C   UNL     1       1.331   8.558  21.340  0.00  0.00    +0.000 A 
ATOM      9  C   UNL     1       1.499   8.466  19.978  0.00  0.00    +0.000 A 
ATOM     10  N   UNL     1       0.793   9.461  19.336  0.00  0.00    +0.000 NA
ATOM     11  C   UNL     1       0.209  10.156  20.291  0.00  0.00    +0.000 A 
ENDROOT
BRANCH   9  12
ATOM     12  C   UNL     1       2.278   7.443  19.297  0.00  0.00    +0.000 A 
ATOM     13  C   UNL     1       2.368   6.156  19.843  0.00  0.00    +0.000 A 
ATOM     14  C   UNL     1       3.151   5.173  19.226  0.00  0.00    +0.000 A 
ATOM     15  C   UNL     1       3.837   5.472  18.051  0.00  0.00    +0.000 A 
ATOM     16 CL   UNL     1       4.807   4.269  17.296  0.00  0.00    +0.000 Cl
ATOM     17  C   UNL     1       3.744   6.740  17.484  0.00  0.00    +0.000 A 
ATOM     18  C   UNL     1       2.967   7.723  18.106  0.00  0.00    +0.000 A 
ENDBRANCH   9  12
BRANCH   1  19
ATOM     19  C   UNL     1      -0.741  11.839  18.857  0.00  0.00    +0.000 C 
BRANCH  19  20
ATOM     20  C   UNL     1      -1.982  11.306  18.150  0.00  0.00    +0.000 C 
ATOM     21  O   UNL     1      -3.131  11.694  18.319  0.00  0.00    +0.000 OA
BRANCH  20  23
ATOM     22  C   UNL     1      -2.681   9.914  16.391  0.00  0.00    +0.000 C 
ATOM     23  O   UNL     1      -1.609  10.380  17.214  0.00  0.00    +0.000 OA
ENDBRANCH  20  23
ENDBRANCH  19  20
ENDBRANCH   1  19
TORSDOF 4
ENDMDL
MODEL 7
REMARK VINA RESULT:      -6.9      0.681      1.234
REMARK  Name = 
REMARK  6 active torsions:
REMARK  status: ('A' for Active; 'I' for Inactive)
REMARK    1  A    between atoms: C_1  and  O_2
REMARK    2  A    between atoms: O_2  and  C_3
REMARK    3  A    between atoms: C_3  and  C_5
REMARK    4  A    between atoms: C_5  and  N_6
REMARK    5  A    between atoms: C_7  and  C_8
REMARK    6  A    between atoms: C_14  and  C_15
REMARK                            x       y       z     vdW  Elec       q    Type
REMARK                         _______ _______ _______ _____ _____    ______ ____
ROOT
ATOM      1  N   UNL     1       5.571   5.792  17.101  0.00  0.00    +0.000 N 
ATOM      2  C   UNL     1       5.755   4.522  16.527  0.00  0.00    +0.000 A 
ATOM      3  C   UNL     1       7.096   4.091  15.987  0.00  0.00    +0.000 C 
ATOM      4  C   UNL     1       4.748   3.628  16.457  0.00  0.00    +0.000 A 
ATOM      5  C   UNL     1       3.414   3.966  16.990  0.00  0.00    +0.000 A 
ATOM      6  O   UNL     1       2.437   3.234  16.926  0.00  0.00    +0.000 OA
ATOM      7  N   UNL     1       3.332   5.213  17.600  0.00  0.00    +0.000 N 
ATOM      8  C   UNL     1       2.244   5.789  18.210  0.00  0.00    +0.000 A 
ATOM      9  C   UNL     1       2.690   7.001  18.683  0.00  0.00    +0.000 A 
ATOM     10  N   UNL     1       4.017   7.188  18.358  0.00  0.00    +0.000 NA
ATOM     11  C   UNL     1       4.375   6.110  17.691  0.00  0.00    +0.000 A 
ENDROOT
BRANCH   9  12
ATOM     12  C   UNL     1       1.894   7.945  19.452  0.00  0.00    +0.000 A 
ATOM     13  C   UNL     1       1.437   9.125  18.849  0.00  0.00    +0.000 A 
ATOM     14  C   UNL     1       0.709  10.066  19.585  0.00  0.00    +0.000 A 
ATOM     15  C   UNL     1       0.424   9.824  20.928  0.00  0.00    +0.000 A 
ATOM     16 CL   UNL     1      -0.462  10.984  21.838  0.00  0.00    +0.000 Cl
ATOM     17  C   UNL     1       0.855   8.650  21.538  0.00  0.00    +0.000 A 
ATOM     18  C   UNL     1       1.588   7.713  20.802  0.00  0.00    +0.000 A 
ENDBRANCH   9  12
BRANCH   1  19
ATOM     19  C   UNL     1       6.602   6.850  17.158  0.00  0.00    +0.000 C 
BRANCH  19  20
ATOM     20  C   UNL     1       7.536   6.692  18.353  0.00  0.00    +0.000 C 
ATOM     21  O   UNL     1       7.582   5.729  19.108  0.00  0.00    +0.000 OA
BRANCH  20  23
ATOM     22  C   UNL     1       7.893   8.944  17.784  0.00  0.00    +0.000 C 
ATOM     23  O   UNL     1       8.394   7.757  18.404  0.00  0.00    +0.000 OA
ENDBRANCH  20  23
ENDBRANCH  19  20
ENDBRANCH   1  19
TORSDOF 4
ENDMDL
MODEL 8
REMARK VINA RESULT:      -6.9      0.714      1.018
REMARK  Name = 
REMARK  6 active torsions:
REMARK  status: ('A' for Active; 'I' for Inactive)
REMARK    1  A    between atoms: C_1  and  O_2
REMARK    2  A    between atoms: O_2  and  C_3
REMARK    3  A    between atoms: C_3  and  C_5
REMARK    4  A    between atoms: C_5  and  N_6
REMARK    5  A    between atoms: C_7  and  C_8
REMARK    6  A    between atoms: C_14  and  C_15
REMARK                            x       y       z     vdW  Elec       q    Type
REMARK                         _______ _______ _______ _____ _____    ______ ____
ROOT
ATOM      1  N   UNL     1       4.631   5.542  16.903  0.00  0.00    +0.000 N 
ATOM      2  C   UNL     1       4.784   4.172  16.624  0.00  0.00    +0.000 A 
ATOM      3  C   UNL     1       5.919   3.668  15.767  0.00  0.00    +0.000 C 
ATOM      4  C   UNL     1       3.939   3.251  17.128  0.00  0.00    +0.000 A 
ATOM      5  C   UNL     1       2.821   3.665  17.998  0.00  0.00    +0.000 A 
ATOM      6  O   UNL     1       1.984   2.902  18.459  0.00  0.00    +0.000 OA
ATOM      7  N   UNL     1       2.777   5.025  18.280  0.00  0.00    +0.000 N 
ATOM      8  C   UNL     1       1.883   5.699  19.076  0.00  0.00    +0.000 A 
ATOM      9  C   UNL     1       2.293   7.012  19.057  0.00  0.00    +0.000 A 
ATOM     10  N   UNL     1       3.403   7.159  18.252  0.00  0.00    +0.000 NA
ATOM     11  C   UNL     1       3.663   5.957  17.781  0.00  0.00    +0.000 A 
ENDROOT
BRANCH   9  12
ATOM     12  C   UNL     1       1.675   8.094  19.806  0.00  0.00    +0.000 A 
ATOM     13  C   UNL     1       1.410   7.934  21.173  0.00  0.00    +0.000 A 
ATOM     14  C   UNL     1       0.773   8.946  21.899  0.00  0.00    +0.000 A 
ATOM     15  C   UNL     1       0.410  10.131  21.262  0.00  0.00    +0.000 A 
ATOM     16 CL   UNL     1      -0.382  11.373  22.151  0.00  0.00    +0.000 Cl
ATOM     17  C   UNL     1       0.681  10.315  19.910  0.00  0.00    +0.000 A 
ATOM     18  C   UNL     1       1.311   9.299  19.184  0.00  0.00    +0.000 A 
ENDBRANCH   9  12
BRANCH   1  19
ATOM     19  C   UNL     1       5.472   6.619  16.338  0.00  0.00    +0.000 C 
BRANCH  19  20
ATOM     20  C   UNL     1       6.802   6.764  17.070  0.00  0.00    +0.000 C 
ATOM     21  O   UNL     1       7.827   7.253  16.613  0.00  0.00    +0.000 OA
BRANCH  20  23
ATOM     22  C   UNL     1       7.764   5.601  18.871  0.00  0.00    +0.000 C 
ATOM     23  O   UNL     1       6.655   6.349  18.367  0.00  0.00    +0.000 OA
ENDBRANCH  20  23
ENDBRANCH  19  20
ENDBRANCH   1  19
TORSDOF 4
ENDMDL
MODEL 9
REMARK VINA RESULT:      -6.9      2.599      4.806
REMARK  Name = 
REMARK  6 active torsions:
REMARK  status: ('A' for Active; 'I' for Inactive)
REMARK    1  A    between atoms: C_1  and  O_2
REMARK    2  A    between atoms: O_2  and  C_3
REMARK    3  A    between atoms: C_3  and  C_5
REMARK    4  A    between atoms: C_5  and  N_6
REMARK    5  A    between atoms: C_7  and  C_8
REMARK    6  A    between atoms: C_14  and  C_15
REMARK                            x       y       z     vdW  Elec       q    Type
REMARK                         _______ _______ _______ _____ _____    ______ ____
ROOT
ATOM      1  N   UNL     1       2.874   5.089  20.160  0.00  0.00    +0.000 N 
ATOM      2  C   UNL     1       3.604   4.630  19.050  0.00  0.00    +0.000 A 
ATOM      3  C   UNL     1       4.128   3.216  18.985  0.00  0.00    +0.000 C 
ATOM      4  C   UNL     1       3.849   5.424  17.988  0.00  0.00    +0.000 A 
ATOM      5  C   UNL     1       3.345   6.811  17.966  0.00  0.00    +0.000 A 
ATOM      6  O   UNL     1       3.559   7.611  17.066  0.00  0.00    +0.000 OA
ATOM      7  N   UNL     1       2.577   7.168  19.068  0.00  0.00    +0.000 N 
ATOM      8  C   UNL     1       1.952   8.365  19.316  0.00  0.00    +0.000 A 
ATOM      9  C   UNL     1       1.295   8.195  20.513  0.00  0.00    +0.000 A 
ATOM     10  N   UNL     1       1.522   6.930  21.012  0.00  0.00    +0.000 NA
ATOM     11  C   UNL     1       2.310   6.338  20.138  0.00  0.00    +0.000 A 
ENDROOT
BRANCH   9  12
ATOM     12  C   UNL     1       0.448   9.190  21.153  0.00  0.00    +0.000 A 
ATOM     13  C   UNL     1      -0.042  10.271  20.409  0.00  0.00    +0.000 A 
ATOM     14  C   UNL     1      -0.820  11.262  21.019  0.00  0.00    +0.000 A 
ATOM     15  C   UNL     1      -1.121  11.167  22.376  0.00  0.00    +0.000 A 
ATOM     16 CL   UNL     1      -2.069  12.388  23.130  0.00  0.00    +0.000 Cl
ATOM     17  C   UNL     1      -0.658  10.090  23.126  0.00  0.00    +0.000 A 
ATOM     18  C   UNL     1       0.125   9.105  22.517  0.00  0.00    +0.000 A 
ENDBRANCH   9  12
BRANCH   1  19
ATOM     19  C   UNL     1       2.620   4.305  21.387  0.00  0.00    +0.000 C 
BRANCH  19  20
ATOM     20  C   UNL     1       1.502   3.284  21.206  0.00  0.00    +0.000 C 
ATOM     21  O   UNL     1       1.256   2.344  21.952  0.00  0.00    +0.000 OA
BRANCH  20  23
ATOM     22  C   UNL     1       0.564   2.577  19.171  0.00  0.00    +0.000 C 
ATOM     23  O   UNL     1       0.742   3.630  20.122  0.00  0.00    +0.000 OA
ENDBRANCH  20  23
ENDBRANCH  19  20
ENDBRANCH   1  19
TORSDOF 4
ENDMDL
