MODEL 1
REMARK VINA RESULT:      -7.2      0.000      0.000
REMARK  Name = 
REMARK  10 active torsions:
REMARK  status: ('A' for Active; 'I' for Inactive)
REMARK    1  A    between atoms: C_1  and  C_2
REMARK    2  A    between atoms: C_2  and  C_3
REMARK    3  A    between atoms: C_2  and  C_4
REMARK    4  A    between atoms: C_2  and  O_5
REMARK    5  A    between atoms: O_5  and  C_6
REMARK    6  A    between atoms: C_6  and  C_8
REMARK    7  A    between atoms: C_8  and  O_9
REMARK    8  A    between atoms: O_9  and  C_10
REMARK    9  A    between atoms: C_16  and  O_17
REMARK   10  A    between atoms: C_18  and  N_19
REMARK                            x       y       z     vdW  Elec       q    Type
REMARK                         _______ _______ _______ _____ _____    ______ ____
ROOT
ATOM      1  C   UNL     1       5.358   5.744  18.449  0.00  0.00    +0.000 A 
ATOM      2  C   UNL     1       4.289   6.416  17.874  0.00  0.00    +0.000 A 
ATOM      3  C   UNL     1       3.018   5.860  17.927  0.00  0.00    +0.000 A 
ATOM      4  C   UNL     1       2.777   4.643  18.586  0.00  0.00    +0.000 A 
ATOM      5  C   UNL     1       3.847   3.966  19.205  0.00  0.00    +0.000 A 
ATOM      6  C   UNL     1       5.139   4.529  19.111  0.00  0.00    +0.000 A 
ATOM      7  C   UNL     1       3.663   2.698  20.025  0.00  0.00    +0.000 C 
ATOM      8  C   UNL     1       2.713   2.901  21.251  0.00  0.00    +0.000 C 
ATOM      9  C   UNL     1       1.212   3.012  20.927  0.00  0.00    +0.000 C 
ATOM     10  C   UNL     1       0.815   4.214  20.072  0.00  0.00    +0.000 C 
ATOM     11  C   UNL     1       1.355   4.163  18.651  0.00  0.00    +0.000 C 
ENDROOT
BRANCH   8  12
ATOM     12  N   UNL     1       2.868   1.782  22.205  0.00  0.00    +0.000 NA
ATOM     13  H   UNL     1       3.376   1.020  21.754  0.00  0.00    +0.000 HD
ATOM     14  H   UNL     1       1.954   1.414  22.466  0.00  0.00    +0.000 HD
ENDBRANCH   8  12
BRANCH   7  15
ATOM     15  O   UNL     1       3.283   1.599  19.194  0.00  0.00    +0.000 OA
ATOM     16  H   UNL     1       2.585   1.889  18.599  0.00  0.00    +0.000 HD
ENDBRANCH   7  15
BRANCH   1  17
ATOM     17  O   UNL     1       6.642   6.201  18.448  0.00  0.00    +0.000 OA
BRANCH  17  18
ATOM     18  C   UNL     1       7.257   6.388  17.170  0.00  0.00    +0.000 C 
BRANCH  18  19
ATOM     19  C   UNL     1       7.713   5.031  16.679  0.00  0.00    +0.000 C 
ATOM     20  O   UNL     1       8.161   4.156  17.409  0.00  0.00    +0.000 OA
BRANCH  19  21
ATOM     21  O   UNL     1       7.529   4.910  15.330  0.00  0.00    +0.000 OA
BRANCH  21  23
ATOM     22  C   UNL     1       5.297   5.732  14.723  0.00  0.00    +0.000 C 
ATOM     23  C   UNL     1       6.216   4.508  14.851  0.00  0.00    +0.000 C 
ATOM     24  C   UNL     1       5.612   3.409  15.738  0.00  0.00    +0.000 C 
ATOM     25  C   UNL     1       6.411   3.923  13.442  0.00  0.00    +0.000 C 
ENDBRANCH  21  23
ENDBRANCH  19  21
ENDBRANCH  18  19
ENDBRANCH  17  18
ENDBRANCH   1  17
TORSDOF 7
ENDMDL
MODEL 2
REMARK VINA RESULT:      -6.8      4.388      6.085
REMARK  Name = 
REMARK  10 active torsions:
REMARK  status: ('A' for Active; 'I' for Inactive)
REMARK    1  A    between atoms: C_1  and  C_2
REMARK    2  A    between atoms: C_2  and  C_3
REMARK    3  A    between atoms: C_2  and  C_4
REMARK    4  A    between atoms: C_2  and  O_5
REMARK    5  A    between atoms: O_5  and  C_6
REMARK    6  A    between atoms: C_6  and  C_8
REMARK    7  A    between atoms: C_8  and  O_9
REMARK    8  A    between atoms: O_9  and  C_10
REMARK    9  A    between atoms: C_16  and  O_17
REMARK   10  A    between atoms: C_18  and  N_19
REMARK                            x       y       z     vdW  Elec       q    Type
REMARK                         _______ _______ _______ _____ _____    ______ ____
ROOT
ATOM      1  C   UNL     1       2.686   7.639  18.552  0.00  0.00    +0.000 A 
ATOM      2  C   UNL     1       2.284   8.589  17.624  0.00  0.00    +0.000 A 
ATOM      3  C   UNL     1       1.246   9.458  17.934  0.00  0.00    +0.000 A 
ATOM      4  C   UNL     1       0.612   9.423  19.187  0.00  0.00    +0.000 A 
ATOM      5  C   UNL     1       1.032   8.487  20.152  0.00  0.00    +0.000 A 
ATOM      6  C   UNL     1       2.066   7.589  19.807  0.00  0.00    +0.000 A 
ATOM      7  C   UNL     1       0.474   8.444  21.567  0.00  0.00    +0.000 C 
ATOM      8  C   UNL     1       0.706   9.778  22.351  0.00  0.00    +0.000 C 
ATOM      9  C   UNL     1      -0.188  10.963  21.941  0.00  0.00    +0.000 C 
ATOM     10  C   UNL     1      -0.004  11.454  20.506  0.00  0.00    +0.000 C 
ATOM     11  C   UNL     1      -0.450  10.453  19.452  0.00  0.00    +0.000 C 
ENDROOT
BRANCH   8  12
ATOM     12  N   UNL     1       0.497   9.560  23.798  0.00  0.00    +0.000 NA
ATOM     13  H   UNL     1      -0.495   9.400  23.977  0.00  0.00    +0.000 HD
ATOM     14  H   UNL     1       0.762  10.394  24.320  0.00  0.00    +0.000 HD
ENDBRANCH   8  12
BRANCH   7  15
ATOM     15  O   UNL     1      -0.891   8.021  21.567  0.00  0.00    +0.000 OA
ATOM     16  H   UNL     1      -1.092   7.624  20.714  0.00  0.00    +0.000 HD
ENDBRANCH   7  15
BRANCH   1  17
ATOM     17  O   UNL     1       3.690   6.740  18.344  0.00  0.00    +0.000 OA
BRANCH  17  18
ATOM     18  C   UNL     1       3.301   5.425  17.937  0.00  0.00    +0.000 C 
BRANCH  18  19
ATOM     19  C   UNL     1       3.981   4.440  18.863  0.00  0.00    +0.000 C 
ATOM     20  O   UNL     1       4.993   3.815  18.571  0.00  0.00    +0.000 OA
BRANCH  19  21
ATOM     21  O   UNL     1       3.335   4.370  20.065  0.00  0.00    +0.000 OA
BRANCH  21  23
ATOM     22  C   UNL     1       2.407   2.291  19.148  0.00  0.00    +0.000 C 
ATOM     23  C   UNL     1       2.276   3.385  20.218  0.00  0.00    +0.000 C 
ATOM     24  C   UNL     1       0.891   4.050  20.213  0.00  0.00    +0.000 C 
ATOM     25  C   UNL     1       2.475   2.720  21.590  0.00  0.00    +0.000 C 
ENDBRANCH  21  23
ENDBRANCH  19  21
ENDBRANCH  18  19
ENDBRANCH  17  18
ENDBRANCH   1  17
TORSDOF 7
ENDMDL
MODEL 3
REMARK VINA RESULT:      -6.7      2.358      5.578
REMARK  Name = 
REMARK  10 active torsions:
REMARK  status: ('A' for Active; 'I' for Inactive)
REMARK    1  A    between atoms: C_1  and  C_2
REMARK    2  A    between atoms: C_2  and  C_3
REMARK    3  A    between atoms: C_2  and  C_4
REMARK    4  A    between atoms: C_2  and  O_5
REMARK    5  A    between atoms: O_5  and  C_6
REMARK    6  A    between atoms: C_6  and  C_8
REMARK    7  A    between atoms: C_8  and  O_9
REMARK    8  A    between atoms: O_9  and  C_10
REMARK    9  A    between atoms: C_16  and  O_17
REMARK   10  A    between atoms: C_18  and  N_19
REMARK                            x       y       z     vdW  Elec       q    Type
REMARK                         _______ _______ _______ _____ _____    ______ ____
ROOT
ATOM      1  C   UNL     1       2.964   6.063  19.548  0.00  0.00    +0.000 A 
ATOM      2  C   UNL     1       2.327   6.582  18.430  0.00  0.00    +0.000 A 
ATOM      3  C   UNL     1       3.066   6.877  17.292  0.00  0.00    +0.000 A 
ATOM      4  C   UNL     1       4.447   6.629  17.230  0.00  0.00    +0.000 A 
ATOM      5  C   UNL     1       5.103   6.070  18.346  0.00  0.00    +0.000 A 
ATOM      6  C   UNL     1       4.341   5.807  19.506  0.00  0.00    +0.000 A 
ATOM      7  C   UNL     1       6.571   5.673  18.334  0.00  0.00    +0.000 C 
ATOM      8  C   UNL     1       6.900   4.596  17.247  0.00  0.00    +0.000 C 
ATOM      9  C   UNL     1       6.935   5.098  15.792  0.00  0.00    +0.000 C 
ATOM     10  C   UNL     1       5.609   5.633  15.255  0.00  0.00    +0.000 C 
ATOM     11  C   UNL     1       5.143   6.914  15.929  0.00  0.00    +0.000 C 
ENDROOT
BRANCH   8  12
ATOM     12  N   UNL     1       8.215   3.981  17.524  0.00  0.00    +0.000 NA
ATOM     13  H   UNL     1       8.775   4.620  18.090  0.00  0.00    +0.000 HD
ATOM     14  H   UNL     1       8.723   3.833  16.653  0.00  0.00    +0.000 HD
ENDBRANCH   8  12
BRANCH   7  15
ATOM     15  O   UNL     1       7.413   6.825  18.258  0.00  0.00    +0.000 OA
ATOM     16  H   UNL     1       6.939   7.579  18.622  0.00  0.00    +0.000 HD
ENDBRANCH   7  15
BRANCH   1  17
ATOM     17  O   UNL     1       2.332   5.743  20.712  0.00  0.00    +0.000 OA
BRANCH  17  18
ATOM     18  C   UNL     1       1.406   4.655  20.663  0.00  0.00    +0.000 C 
BRANCH  18  19
ATOM     19  C   UNL     1       2.188   3.379  20.893  0.00  0.00    +0.000 C 
ATOM     20  O   UNL     1       2.020   2.639  21.853  0.00  0.00    +0.000 OA
BRANCH  19  21
ATOM     21  O   UNL     1       3.074   3.156  19.876  0.00  0.00    +0.000 OA
BRANCH  21  23
ATOM     22  C   UNL     1       2.846   3.154  17.431  0.00  0.00    +0.000 C 
ATOM     23  C   UNL     1       2.626   2.373  18.735  0.00  0.00    +0.000 C 
ATOM     24  C   UNL     1       1.169   1.918  18.910  0.00  0.00    +0.000 C 
ATOM     25  C   UNL     1       3.510   1.116  18.679  0.00  0.00    +0.000 C 
ENDBRANCH  21  23
ENDBRANCH  19  21
ENDBRANCH  18  19
ENDBRANCH  17  18
ENDBRANCH   1  17
TORSDOF 7
ENDMDL
MODEL 4
REMARK VINA RESULT:      -6.7      2.015      2.888
REMARK  Name = 
REMARK  10 active torsions:
REMARK  status: ('A' for Active; 'I' for Inactive)
REMARK    1  A    between atoms: C_1  and  C_2
REMARK    2  A    between atoms: C_2  and  C_3
REMARK    3  A    between atoms: C_2  and  C_4
REMARK    4  A    between atoms: C_2  and  O_5
REMARK    5  A    between atoms: O_5  and  C_6
REMARK    6  A    between atoms: C_6  and  C_8
REMARK    7  A    between atoms: C_8  and  O_9
REMARK    8  A    between atoms: O_9  and  C_10
REMARK    9  A    between atoms: C_16  and  O_17
REMARK   10  A    between atoms: C_18  and  N_19
REMARK                            x       y       z     vdW  Elec       q    Type
REMARK                         _______ _______ _______ _____ _____    ______ ____
ROOT
ATOM      1  C   UNL     1       5.731   4.316  17.462  0.00  0.00    +0.000 A 
ATOM      2  C   UNL     1       5.927   5.208  18.507  0.00  0.00    +0.000 A 
ATOM      3  C   UNL     1       4.843   5.619  19.273  0.00  0.00    +0.000 A 
ATOM      4  C   UNL     1       3.550   5.123  19.038  0.00  0.00    +0.000 A 
ATOM      5  C   UNL     1       3.342   4.189  18.003  0.00  0.00    +0.000 A 
ATOM      6  C   UNL     1       4.450   3.809  17.213  0.00  0.00    +0.000 A 
ATOM      7  C   UNL     1       2.000   3.523  17.743  0.00  0.00    +0.000 C 
ATOM      8  C   UNL     1       1.483   2.700  18.970  0.00  0.00    +0.000 C 
ATOM      9  C   UNL     1       0.942   3.525  20.152  0.00  0.00    +0.000 C 
ATOM     10  C   UNL     1       1.964   4.428  20.840  0.00  0.00    +0.000 C 
ATOM     11  C   UNL     1       2.459   5.572  19.968  0.00  0.00    +0.000 C 
ENDROOT
BRANCH   8  12
ATOM     12  N   UNL     1       0.400   1.786  18.548  0.00  0.00    +0.000 NA
ATOM     13  H   UNL     1      -0.034   1.372  19.375  0.00  0.00    +0.000 HD
ATOM     14  H   UNL     1       0.783   1.019  17.998  0.00  0.00    +0.000 HD
ENDBRANCH   8  12
BRANCH   7  15
ATOM     15  O   UNL     1       1.044   4.467  17.255  0.00  0.00    +0.000 OA
ATOM     16  H   UNL     1       1.142   5.288  17.746  0.00  0.00    +0.000 HD
ENDBRANCH   7  15
BRANCH   1  17
ATOM     17  O   UNL     1       6.725   3.855  16.651  0.00  0.00    +0.000 OA
BRANCH  17  18
ATOM     18  C   UNL     1       7.125   4.708  15.576  0.00  0.00    +0.000 C 
BRANCH  18  19
ATOM     19  C   UNL     1       6.087   4.580  14.481  0.00  0.00    +0.000 C 
ATOM     20  O   UNL     1       5.245   5.434  14.235  0.00  0.00    +0.000 OA
BRANCH  19  21
ATOM     21  O   UNL     1       6.240   3.407  13.795  0.00  0.00    +0.000 OA
BRANCH  21  23
ATOM     22  C   UNL     1       6.791   2.124  11.776  0.00  0.00    +0.000 C 
ATOM     23  C   UNL     1       6.305   3.466  12.343  0.00  0.00    +0.000 C 
ATOM     24  C   UNL     1       7.163   4.649  11.871  0.00  0.00    +0.000 C 
ATOM     25  C   UNL     1       4.871   3.692  11.838  0.00  0.00    +0.000 C 
ENDBRANCH  21  23
ENDBRANCH  19  21
ENDBRANCH  18  19
ENDBRANCH  17  18
ENDBRANCH   1  17
TORSDOF 7
ENDMDL
MODEL 5
REMARK VINA RESULT:      -6.7      4.247      6.038
REMARK  Name = 
REMARK  10 active torsions:
REMARK  status: ('A' for Active; 'I' for Inactive)
REMARK    1  A    between atoms: C_1  and  C_2
REMARK    2  A    between atoms: C_2  and  C_3
REMARK    3  A    between atoms: C_2  and  C_4
REMARK    4  A    between atoms: C_2  and  O_5
REMARK    5  A    between atoms: O_5  and  C_6
REMARK    6  A    between atoms: C_6  and  C_8
REMARK    7  A    between atoms: C_8  and  O_9
REMARK    8  A    between atoms: O_9  and  C_10
REMARK    9  A    between atoms: C_16  and  O_17
REMARK   10  A    between atoms: C_18  and  N_19
REMARK                            x       y       z     vdW  Elec       q    Type
REMARK                         _______ _______ _______ _____ _____    ______ ____
ROOT
ATOM      1  C   UNL     1       2.821   7.199  18.710  0.00  0.00    +0.000 A 
ATOM      2  C   UNL     1       2.568   8.128  17.710  0.00  0.00    +0.000 A 
ATOM      3  C   UNL     1       1.610   9.113  17.912  0.00  0.00    +0.000 A 
ATOM      4  C   UNL     1       0.910   9.216  19.125  0.00  0.00    +0.000 A 
ATOM      5  C   UNL     1       1.180   8.301  20.163  0.00  0.00    +0.000 A 
ATOM      6  C   UNL     1       2.133   7.285  19.927  0.00  0.00    +0.000 A 
ATOM      7  C   UNL     1       0.546   8.398  21.542  0.00  0.00    +0.000 C 
ATOM      8  C   UNL     1       0.872   9.746  22.266  0.00  0.00    +0.000 C 
ATOM      9  C   UNL     1       0.127  10.988  21.741  0.00  0.00    +0.000 C 
ATOM     10  C   UNL     1       0.437  11.372  20.295  0.00  0.00    +0.000 C 
ATOM     11  C   UNL     1      -0.053  10.360  19.272  0.00  0.00    +0.000 C 
ENDROOT
BRANCH   8  12
ATOM     12  N   UNL     1       0.565   9.636  23.708  0.00  0.00    +0.000 NA
ATOM     13  H   UNL     1       1.190   8.951  24.135  0.00  0.00    +0.000 HD
ATOM     14  H   UNL     1      -0.385   9.292  23.839  0.00  0.00    +0.000 HD
ENDBRANCH   8  12
BRANCH   7  15
ATOM     15  O   UNL     1      -0.853   8.113  21.485  0.00  0.00    +0.000 OA
ATOM     16  H   UNL     1      -0.991   7.190  21.718  0.00  0.00    +0.000 HD
ENDBRANCH   7  15
BRANCH   1  17
ATOM     17  O   UNL     1       3.736   6.194  18.610  0.00  0.00    +0.000 OA
BRANCH  17  18
ATOM     18  C   UNL     1       3.415   5.118  17.725  0.00  0.00    +0.000 C 
BRANCH  18  19
ATOM     19  C   UNL     1       3.698   3.824  18.457  0.00  0.00    +0.000 C 
ATOM     20  O   UNL     1       4.237   2.852  17.943  0.00  0.00    +0.000 OA
BRANCH  19  21
ATOM     21  O   UNL     1       3.302   3.902  19.763  0.00  0.00    +0.000 OA
BRANCH  21  23
ATOM     22  C   UNL     1       2.318   2.562  21.569  0.00  0.00    +0.000 C 
ATOM     23  C   UNL     1       2.120   3.156  20.167  0.00  0.00    +0.000 C 
ATOM     24  C   UNL     1       1.750   2.091  19.124  0.00  0.00    +0.000 C 
ATOM     25  C   UNL     1       0.960   4.162  20.248  0.00  0.00    +0.000 C 
ENDBRANCH  21  23
ENDBRANCH  19  21
ENDBRANCH  18  19
ENDBRANCH  17  18
ENDBRANCH   1  17
TORSDOF 7
ENDMDL
MODEL 6
REMARK VINA RESULT:      -6.6      1.471      1.992
REMARK  Name = 
REMARK  10 active torsions:
REMARK  status: ('A' for Active; 'I' for Inactive)
REMARK    1  A    between atoms: C_1  and  C_2
REMARK    2  A    between atoms: C_2  and  C_3
REMARK    3  A    between atoms: C_2  and  C_4
REMARK    4  A    between atoms: C_2  and  O_5
REMARK    5  A    between atoms: O_5  and  C_6
REMARK    6  A    between atoms: C_6  and  C_8
REMARK    7  A    between atoms: C_8  and  O_9
REMARK    8  A    between atoms: O_9  and  C_10
REMARK    9  A    between atoms: C_16  and  O_17
REMARK   10  A    between atoms: C_18  and  N_19
REMARK                            x       y       z     vdW  Elec       q    Type
REMARK                         _______ _______ _______ _____ _____    ______ ____
ROOT
ATOM      1  C   UNL     1       3.508   5.884  17.599  0.00  0.00    +0.000 A 
ATOM      2  C   UNL     1       2.248   6.245  18.051  0.00  0.00    +0.000 A 
ATOM      3  C   UNL     1       1.515   5.357  18.828  0.00  0.00    +0.000 A 
ATOM      4  C   UNL     1       2.036   4.107  19.201  0.00  0.00    +0.000 A 
ATOM      5  C   UNL     1       3.329   3.740  18.777  0.00  0.00    +0.000 A 
ATOM      6  C   UNL     1       4.046   4.642  17.960  0.00  0.00    +0.000 A 
ATOM      7  C   UNL     1       4.012   2.454  19.215  0.00  0.00    +0.000 C 
ATOM      8  C   UNL     1       4.188   2.358  20.767  0.00  0.00    +0.000 C 
ATOM      9  C   UNL     1       2.910   2.054  21.571  0.00  0.00    +0.000 C 
ATOM     10  C   UNL     1       1.817   3.118  21.484  0.00  0.00    +0.000 C 
ATOM     11  C   UNL     1       1.194   3.250  20.103  0.00  0.00    +0.000 C 
ENDROOT
BRANCH   8  12
ATOM     12  N   UNL     1       5.170   1.305  21.103  0.00  0.00    +0.000 NA
ATOM     13  H   UNL     1       6.115   1.665  20.958  0.00  0.00    +0.000 HD
ATOM     14  H   UNL     1       5.057   0.508  20.478  0.00  0.00    +0.000 HD
ENDBRANCH   8  12
BRANCH   7  15
ATOM     15  O   UNL     1       3.366   1.311  18.650  0.00  0.00    +0.000 OA
ATOM     16  H   UNL     1       3.088   0.728  19.363  0.00  0.00    +0.000 HD
ENDBRANCH   7  15
BRANCH   1  17
ATOM     17  O   UNL     1       4.305   6.679  16.830  0.00  0.00    +0.000 OA
BRANCH  17  18
ATOM     18  C   UNL     1       5.549   7.089  17.403  0.00  0.00    +0.000 C 
BRANCH  18  19
ATOM     19  C   UNL     1       6.638   6.790  16.395  0.00  0.00    +0.000 C 
ATOM     20  O   UNL     1       7.828   6.992  16.595  0.00  0.00    +0.000 OA
BRANCH  19  21
ATOM     21  O   UNL     1       6.115   6.242  15.257  0.00  0.00    +0.000 OA
BRANCH  21  23
ATOM     22  C   UNL     1       7.153   4.171  16.069  0.00  0.00    +0.000 C 
ATOM     23  C   UNL     1       6.573   4.920  14.860  0.00  0.00    +0.000 C 
ATOM     24  C   UNL     1       7.562   5.000  13.688  0.00  0.00    +0.000 C 
ATOM     25  C   UNL     1       5.336   4.141  14.382  0.00  0.00    +0.000 C 
ENDBRANCH  21  23
ENDBRANCH  19  21
ENDBRANCH  18  19
ENDBRANCH  17  18
ENDBRANCH   1  17
TORSDOF 7
ENDMDL
MODEL 7
REMARK VINA RESULT:      -6.6      2.013      2.782
REMARK  Name = 
REMARK  10 active torsions:
REMARK  status: ('A' for Active; 'I' for Inactive)
REMARK    1  A    between atoms: C_1  and  C_2
REMARK    2  A    between atoms: C_2  and  C_3
REMARK    3  A    between atoms: C_2  and  C_4
REMARK    4  A    between atoms: C_2  and  O_5
REMARK    5  A    between atoms: O_5  and  C_6
REMARK    6  A    between atoms: C_6  and  C_8
REMARK    7  A    between atoms: C_8  and  O_9
REMARK    8  A    between atoms: O_9  and  C_10
REMARK    9  A    between atoms: C_16  and  O_17
REMARK   10  A    between atoms: C_18  and  N_19
REMARK                            x       y       z     vdW  Elec       q    Type
REMARK                         _______ _______ _______ _____ _____    ______ ____
ROOT
ATOM      1  C   UNL     1       5.467   4.761  17.235  0.00  0.00    +0.000 A 
ATOM      2  C   UNL     1       5.729   5.432  18.422  0.00  0.00    +0.000 A 
ATOM      3  C   UNL     1       4.727   5.563  19.374  0.00  0.00    +0.000 A 
ATOM      4  C   UNL     1       3.455   4.998  19.182  0.00  0.00    +0.000 A 
ATOM      5  C   UNL     1       3.184   4.285  17.997  0.00  0.00    +0.000 A 
ATOM      6  C   UNL     1       4.204   4.190  17.025  0.00  0.00    +0.000 A 
ATOM      7  C   UNL     1       1.873   3.555  17.748  0.00  0.00    +0.000 C 
ATOM      8  C   UNL     1       1.582   2.448  18.815  0.00  0.00    +0.000 C 
ATOM      9  C   UNL     1       1.140   2.950  20.201  0.00  0.00    +0.000 C 
ATOM     10  C   UNL     1       2.173   3.788  20.952  0.00  0.00    +0.000 C 
ATOM     11  C   UNL     1       2.463   5.132  20.303  0.00  0.00    +0.000 C 
ENDROOT
BRANCH   8  12
ATOM     12  N   UNL     1       0.525   1.537  18.327  0.00  0.00    +0.000 NA
ATOM     13  H   UNL     1      -0.274   2.087  18.007  0.00  0.00    +0.000 HD
ATOM     14  H   UNL     1       0.193   0.946  19.087  0.00  0.00    +0.000 HD
ENDBRANCH   8  12
BRANCH   7  15
ATOM     15  O   UNL     1       0.794   4.479  17.587  0.00  0.00    +0.000 OA
ATOM     16  H   UNL     1       0.431   4.380  16.702  0.00  0.00    +0.000 HD
ENDBRANCH   7  15
BRANCH   1  17
ATOM     17  O   UNL     1       6.378   4.581  16.238  0.00  0.00    +0.000 OA
BRANCH  17  18
ATOM     18  C   UNL     1       6.142   5.287  15.017  0.00  0.00    +0.000 C 
BRANCH  18  19
ATOM     19  C   UNL     1       7.177   4.823  14.014  0.00  0.00    +0.000 C 
ATOM     20  O   UNL     1       8.179   5.462  13.721  0.00  0.00    +0.000 OA
BRANCH  19  21
ATOM     21  O   UNL     1       6.855   3.593  13.511  0.00  0.00    +0.000 OA
BRANCH  21  23
ATOM     22  C   UNL     1       7.076   4.623  11.293  0.00  0.00    +0.000 C 
ATOM     23  C   UNL     1       6.419   3.512  12.126  0.00  0.00    +0.000 C 
ATOM     24  C   UNL     1       4.887   3.528  12.023  0.00  0.00    +0.000 C 
ATOM     25  C   UNL     1       6.915   2.164  11.576  0.00  0.00    +0.000 C 
ENDBRANCH  21  23
ENDBRANCH  19  21
ENDBRANCH  18  19
ENDBRANCH  17  18
ENDBRANCH   1  17
TORSDOF 7
ENDMDL
MODEL 8
REMARK VINA RESULT:      -6.6      4.386      5.610
REMARK  Name = 
REMARK  10 active torsions:
REMARK  status: ('A' for Active; 'I' for Inactive)
REMARK    1  A    between atoms: C_1  and  C_2
REMARK    2  A    between atoms: C_2  and  C_3
REMARK    3  A    between atoms: C_2  and  C_4
REMARK    4  A    between atoms: C_2  and  O_5
REMARK    5  A    between atoms: O_5  and  C_6
REMARK    6  A    between atoms: C_6  and  C_8
REMARK    7  A    between atoms: C_8  and  O_9
REMARK    8  A    between atoms: O_9  and  C_10
REMARK    9  A    between atoms: C_16  and  O_17
REMARK   10  A    between atoms: C_18  and  N_19
REMARK                            x       y       z     vdW  Elec       q    Type
REMARK                         _______ _______ _______ _____ _____    ______ ____
ROOT
ATOM      1  C   UNL     1       2.688   7.555  18.536  0.00  0.00    +0.000 A 
ATOM      2  C   UNL     1       2.338   8.544  17.628  0.00  0.00    +0.000 A 
ATOM      3  C   UNL     1       1.349   9.462  17.959  0.00  0.00    +0.000 A 
ATOM      4  C   UNL     1       0.715   9.437  19.212  0.00  0.00    +0.000 A 
ATOM      5  C   UNL     1       1.085   8.459  20.157  0.00  0.00    +0.000 A 
ATOM      6  C   UNL     1       2.068   7.513  19.792  0.00  0.00    +0.000 A 
ATOM      7  C   UNL     1       0.527   8.419  21.572  0.00  0.00    +0.000 C 
ATOM      8  C   UNL     1       0.832   9.722  22.382  0.00  0.00    +0.000 C 
ATOM      9  C   UNL     1       0.004  10.962  21.998  0.00  0.00    +0.000 C 
ATOM     10  C   UNL     1       0.213  11.471  20.573  0.00  0.00    +0.000 C 
ATOM     11  C   UNL     1      -0.289  10.517  19.499  0.00  0.00    +0.000 C 
ENDROOT
BRANCH   8  12
ATOM     12  N   UNL     1       0.613   9.486  23.825  0.00  0.00    +0.000 NA
ATOM     13  H   UNL     1      -0.384   9.355  23.999  0.00  0.00    +0.000 HD
ATOM     14  H   UNL     1       0.904  10.302  24.362  0.00  0.00    +0.000 HD
ENDBRANCH   8  12
BRANCH   7  15
ATOM     15  O   UNL     1      -0.860   8.071  21.566  0.00  0.00    +0.000 OA
ATOM     16  H   UNL     1      -0.950   7.170  21.241  0.00  0.00    +0.000 HD
ENDBRANCH   7  15
BRANCH   1  17
ATOM     17  O   UNL     1       3.641   6.607  18.308  0.00  0.00    +0.000 OA
BRANCH  17  18
ATOM     18  C   UNL     1       4.150   5.919  19.454  0.00  0.00    +0.000 C 
BRANCH  18  19
ATOM     19  C   UNL     1       4.676   4.579  18.986  0.00  0.00    +0.000 C 
ATOM     20  O   UNL     1       5.700   4.061  19.411  0.00  0.00    +0.000 OA
BRANCH  19  21
ATOM     21  O   UNL     1       3.841   4.021  18.058  0.00  0.00    +0.000 OA
BRANCH  21  23
ATOM     22  C   UNL     1       1.391   3.889  18.131  0.00  0.00    +0.000 C 
ATOM     23  C   UNL     1       2.718   3.229  18.534  0.00  0.00    +0.000 C 
ATOM     24  C   UNL     1       2.814   2.978  20.046  0.00  0.00    +0.000 C 
ATOM     25  C   UNL     1       2.795   1.868  17.823  0.00  0.00    +0.000 C 
ENDBRANCH  21  23
ENDBRANCH  19  21
ENDBRANCH  18  19
ENDBRANCH  17  18
ENDBRANCH   1  17
TORSDOF 7
ENDMDL
MODEL 9
REMARK VINA RESULT:      -6.6      1.583      2.158
REMARK  Name = 
REMARK  10 active torsions:
REMARK  status: ('A' for Active; 'I' for Inactive)
REMARK    1  A    between atoms: C_1  and  C_2
REMARK    2  A    between atoms: C_2  and  C_3
REMARK    3  A    between atoms: C_2  and  C_4
REMARK    4  A    between atoms: C_2  and  O_5
REMARK    5  A    between atoms: O_5  and  C_6
REMARK    6  A    between atoms: C_6  and  C_8
REMARK    7  A    between atoms: C_8  and  O_9
REMARK    8  A    between atoms: O_9  and  C_10
REMARK    9  A    between atoms: C_16  and  O_17
REMARK   10  A    between atoms: C_18  and  N_19
REMARK                            x       y       z     vdW  Elec       q    Type
REMARK                         _______ _______ _______ _____ _____    ______ ____
ROOT
ATOM      1  C   UNL     1       4.560   5.508  16.984  0.00  0.00    +0.000 A 
ATOM      2  C   UNL     1       3.445   6.271  17.303  0.00  0.00    +0.000 A 
ATOM      3  C   UNL     1       2.484   5.757  18.164  0.00  0.00    +0.000 A 
ATOM      4  C   UNL     1       2.630   4.491  18.754  0.00  0.00    +0.000 A 
ATOM      5  C   UNL     1       3.774   3.719  18.466  0.00  0.00    +0.000 A 
ATOM      6  C   UNL     1       4.724   4.243  17.562  0.00  0.00    +0.000 A 
ATOM      7  C   UNL     1       4.065   2.384  19.135  0.00  0.00    +0.000 C 
ATOM      8  C   UNL     1       4.189   2.499  20.690  0.00  0.00    +0.000 C 
ATOM      9  C   UNL     1       2.868   2.693  21.457  0.00  0.00    +0.000 C 
ATOM     10  C   UNL     1       2.117   3.987  21.146  0.00  0.00    +0.000 C 
ATOM     11  C   UNL     1       1.572   4.056  19.728  0.00  0.00    +0.000 C 
ENDROOT
BRANCH   8  12
ATOM     12  N   UNL     1       4.833   1.287  21.240  0.00  0.00    +0.000 NA
ATOM     13  H   UNL     1       5.551   0.962  20.591  0.00  0.00    +0.000 HD
ATOM     14  H   UNL     1       4.150   0.536  21.328  0.00  0.00    +0.000 HD
ENDBRANCH   8  12
BRANCH   7  15
ATOM     15  O   UNL     1       3.131   1.386  18.716  0.00  0.00    +0.000 OA
ATOM     16  H   UNL     1       2.273   1.584  19.103  0.00  0.00    +0.000 HD
ENDBRANCH   7  15
BRANCH   1  17
ATOM     17  O   UNL     1       5.556   5.918  16.148  0.00  0.00    +0.000 OA
BRANCH  17  18
ATOM     18  C   UNL     1       5.432   5.551  14.772  0.00  0.00    +0.000 C 
BRANCH  18  19
ATOM     19  C   UNL     1       6.682   4.788  14.388  0.00  0.00    +0.000 C 
ATOM     20  O   UNL     1       7.818   5.195  14.589  0.00  0.00    +0.000 OA
BRANCH  19  21
ATOM     21  O   UNL     1       6.367   3.584  13.821  0.00  0.00    +0.000 OA
BRANCH  21  23
ATOM     22  C   UNL     1       4.845   3.723  11.901  0.00  0.00    +0.000 C 
ATOM     23  C   UNL     1       6.291   3.509  12.371  0.00  0.00    +0.000 C 
ATOM     24  C   UNL     1       6.890   2.194  11.849  0.00  0.00    +0.000 C 
ATOM     25  C   UNL     1       7.137   4.666  11.815  0.00  0.00    +0.000 C 
ENDBRANCH  21  23
ENDBRANCH  19  21
ENDBRANCH  18  19
ENDBRANCH  17  18
ENDBRANCH   1  17
TORSDOF 7
ENDMDL
