MODEL 1
REMARK VINA RESULT:      -7.7      0.000      0.000
REMARK  Name = 
REMARK  8 active torsions:
REMARK  status: ('A' for Active; 'I' for Inactive)
REMARK    1  A    between atoms: C_1  and  N_2
REMARK    2  A    between atoms: N_2  and  C_3
REMARK    3  A    between atoms: N_2  and  C_4
REMARK    4  A    between atoms: C_4  and  C_5
REMARK    5  A    between atoms: C_5  and  N_6
REMARK    6  A    between atoms: N_6  and  C_7
REMARK    7  A    between atoms: C_7  and  C_8
REMARK    8  A    between atoms: C_8  and  C_9
REMARK                            x       y       z     vdW  Elec       q    Type
REMARK                         _______ _______ _______ _____ _____    ______ ____
ROOT
ATOM      1  C   UNL     1       6.158   5.747  17.171  0.00  0.00    +0.000 C 
ATOM      2  C   UNL     1       7.461   5.160  16.557  0.00  0.00    +0.000 C 
ATOM      3  O   UNL     1       7.697   5.582  15.210  0.00  0.00    +0.000 OA
ATOM      4  C   UNL     1       7.024   4.886  14.244  0.00  0.00    +0.000 A 
ATOM      5  C   UNL     1       7.665   4.863  13.002  0.00  0.00    +0.000 A 
ATOM      6  C   UNL     1       7.113   4.164  11.931  0.00  0.00    +0.000 A 
ATOM      7  C   UNL     1       5.908   3.484  12.096  0.00  0.00    +0.000 A 
ATOM      8  C   UNL     1       5.253   3.520  13.326  0.00  0.00    +0.000 A 
ATOM      9  C   UNL     1       5.792   4.241  14.393  0.00  0.00    +0.000 A 
ATOM     10  O   UNL     1       5.030   4.247  15.532  0.00  0.00    +0.000 OA
ATOM     11  C   UNL     1       4.988   5.533  16.164  0.00  0.00    +0.000 C 
ENDROOT
BRANCH   1  13
ATOM     12  C   UNL     1       6.799   5.356  19.569  0.00  0.00    +0.000 C 
ATOM     13  N   UNL     1       5.802   5.129  18.516  0.00  0.00    +0.000 NA
ATOM     14  C   UNL     1       4.479   5.496  19.031  0.00  0.00    +0.000 C 
ENDBRANCH   1  13
BRANCH   1  15
ATOM     15  C   UNL     1       6.316   7.309  17.372  0.00  0.00    +0.000 C 
BRANCH  15  16
ATOM     16  N   UNL     1       7.623   7.899  17.059  0.00  0.00    +0.000 NA
ATOM     17  H   UNL     1       7.541   8.667  16.398  0.00  0.00    +0.000 HD
BRANCH  16  18
ATOM     18  C   UNL     1       8.309   8.357  18.264  0.00  0.00    +0.000 C 
BRANCH  18  19
ATOM     19  C   UNL     1       8.447   9.879  18.210  0.00  0.00    +0.000 C 
BRANCH  19  20
ATOM     20  C   UNL     1       9.783  10.395  18.780  0.00  0.00    +0.000 C 
ATOM     21  C   UNL     1      10.448  11.371  17.796  0.00  0.00    +0.000 C 
ATOM     22  C   UNL     1       9.720  12.712  17.716  0.00  0.00    +0.000 C 
ATOM     23  C   UNL     1       9.577  13.357  19.091  0.00  0.00    +0.000 C 
ATOM     24  C   UNL     1       8.967  12.415  20.126  0.00  0.00    +0.000 C 
ATOM     25  C   UNL     1       9.667  11.059  20.161  0.00  0.00    +0.000 C 
ENDBRANCH  19  20
ENDBRANCH  18  19
ENDBRANCH  16  18
ENDBRANCH  15  16
ENDBRANCH   1  15
TORSDOF 6
ENDMDL
MODEL 2
REMARK VINA RESULT:      -7.6      2.940      6.659
REMARK  Name = 
REMARK  8 active torsions:
REMARK  status: ('A' for Active; 'I' for Inactive)
REMARK    1  A    between atoms: C_1  and  N_2
REMARK    2  A    between atoms: N_2  and  C_3
REMARK    3  A    between atoms: N_2  and  C_4
REMARK    4  A    between atoms: C_4  and  C_5
REMARK    5  A    between atoms: C_5  and  N_6
REMARK    6  A    between atoms: N_6  and  C_7
REMARK    7  A    between atoms: C_7  and  C_8
REMARK    8  A    between atoms: C_8  and  C_9
REMARK                            x       y       z     vdW  Elec       q    Type
REMARK                         _______ _______ _______ _____ _____    ______ ____
ROOT
ATOM      1  C   UNL     1       6.082   5.237  17.362  0.00  0.00    +0.000 C 
ATOM      2  C   UNL     1       5.071   5.702  16.276  0.00  0.00    +0.000 C 
ATOM      3  O   UNL     1       4.669   4.656  15.386  0.00  0.00    +0.000 OA
ATOM      4  C   UNL     1       5.529   4.392  14.356  0.00  0.00    +0.000 A 
ATOM      5  C   UNL     1       4.915   3.863  13.217  0.00  0.00    +0.000 A 
ATOM      6  C   UNL     1       5.661   3.575  12.076  0.00  0.00    +0.000 A 
ATOM      7  C   UNL     1       7.034   3.812  12.070  0.00  0.00    +0.000 A 
ATOM      8  C   UNL     1       7.657   4.320  13.209  0.00  0.00    +0.000 A 
ATOM      9  C   UNL     1       6.915   4.586  14.361  0.00  0.00    +0.000 A 
ATOM     10  O   UNL     1       7.645   5.029  15.432  0.00  0.00    +0.000 OA
ATOM     11  C   UNL     1       7.229   4.439  16.671  0.00  0.00    +0.000 C 
ENDROOT
BRANCH   1  13
ATOM     12  C   UNL     1       7.772   6.008  19.054  0.00  0.00    +0.000 C 
ATOM     13  N   UNL     1       6.668   6.390  18.165  0.00  0.00    +0.000 NA
ATOM     14  C   UNL     1       7.083   7.548  17.366  0.00  0.00    +0.000 C 
ENDBRANCH   1  13
BRANCH   1  15
ATOM     15  C   UNL     1       5.370   4.244  18.369  0.00  0.00    +0.000 C 
BRANCH  15  16
ATOM     16  N   UNL     1       5.101   2.882  17.894  0.00  0.00    +0.000 NA
ATOM     17  H   UNL     1       5.525   2.182  18.497  0.00  0.00    +0.000 HD
BRANCH  16  18
ATOM     18  C   UNL     1       3.668   2.628  17.775  0.00  0.00    +0.000 C 
BRANCH  18  19
ATOM     19  C   UNL     1       3.145   2.094  19.109  0.00  0.00    +0.000 C 
BRANCH  19  20
ATOM     20  C   UNL     1       1.688   2.503  19.406  0.00  0.00    +0.000 C 
ATOM     21  C   UNL     1       1.475   2.677  20.919  0.00  0.00    +0.000 C 
ATOM     22  C   UNL     1       2.162   3.925  21.469  0.00  0.00    +0.000 C 
ATOM     23  C   UNL     1       1.728   5.182  20.722  0.00  0.00    +0.000 C 
ATOM     24  C   UNL     1       1.870   5.050  19.209  0.00  0.00    +0.000 C 
ATOM     25  C   UNL     1       1.227   3.773  18.674  0.00  0.00    +0.000 C 
ENDBRANCH  19  20
ENDBRANCH  18  19
ENDBRANCH  16  18
ENDBRANCH  15  16
ENDBRANCH   1  15
TORSDOF 6
ENDMDL
MODEL 3
REMARK VINA RESULT:      -7.6      0.662      1.292
REMARK  Name = 
REMARK  8 active torsions:
REMARK  status: ('A' for Active; 'I' for Inactive)
REMARK    1  A    between atoms: C_1  and  N_2
REMARK    2  A    between atoms: N_2  and  C_3
REMARK    3  A    between atoms: N_2  and  C_4
REMARK    4  A    between atoms: C_4  and  C_5
REMARK    5  A    between atoms: C_5  and  N_6
REMARK    6  A    between atoms: N_6  and  C_7
REMARK    7  A    between atoms: C_7  and  C_8
REMARK    8  A    between atoms: C_8  and  C_9
REMARK                            x       y       z     vdW  Elec       q    Type
REMARK                         _______ _______ _______ _____ _____    ______ ____
ROOT
ATOM      1  C   UNL     1       6.231   5.750  17.195  0.00  0.00    +0.000 C 
ATOM      2  C   UNL     1       7.511   5.146  16.551  0.00  0.00    +0.000 C 
ATOM      3  O   UNL     1       7.723   5.568  15.200  0.00  0.00    +0.000 OA
ATOM      4  C   UNL     1       7.019   4.883  14.248  0.00  0.00    +0.000 A 
ATOM      5  C   UNL     1       7.631   4.853  12.992  0.00  0.00    +0.000 A 
ATOM      6  C   UNL     1       7.046   4.164  11.932  0.00  0.00    +0.000 A 
ATOM      7  C   UNL     1       5.835   3.501  12.123  0.00  0.00    +0.000 A 
ATOM      8  C   UNL     1       5.208   3.544  13.367  0.00  0.00    +0.000 A 
ATOM      9  C   UNL     1       5.781   4.254  14.424  0.00  0.00    +0.000 A 
ATOM     10  O   UNL     1       5.045   4.269  15.578  0.00  0.00    +0.000 OA
ATOM     11  C   UNL     1       5.036   5.555  16.214  0.00  0.00    +0.000 C 
ENDROOT
BRANCH   1  13
ATOM     12  C   UNL     1       6.894   5.390  19.591  0.00  0.00    +0.000 C 
ATOM     13  N   UNL     1       5.895   5.134  18.547  0.00  0.00    +0.000 NA
ATOM     14  C   UNL     1       4.568   5.478  19.067  0.00  0.00    +0.000 C 
ENDBRANCH   1  13
BRANCH   1  15
ATOM     15  C   UNL     1       6.415   7.309  17.395  0.00  0.00    +0.000 C 
BRANCH  15  16
ATOM     16  N   UNL     1       7.787   7.831  17.390  0.00  0.00    +0.000 NA
ATOM     17  H   UNL     1       8.273   7.602  16.527  0.00  0.00    +0.000 HD
BRANCH  16  18
ATOM     18  C   UNL     1       7.814   9.275  17.604  0.00  0.00    +0.000 C 
BRANCH  18  19
ATOM     19  C   UNL     1       8.898   9.605  18.631  0.00  0.00    +0.000 C 
BRANCH  19  20
ATOM     20  C   UNL     1       8.891  11.081  19.078  0.00  0.00    +0.000 C 
ATOM     21  C   UNL     1       9.939  11.316  20.179  0.00  0.00    +0.000 C 
ATOM     22  C   UNL     1      11.370  11.262  19.649  0.00  0.00    +0.000 C 
ATOM     23  C   UNL     1      11.581  12.239  18.496  0.00  0.00    +0.000 C 
ATOM     24  C   UNL     1      10.538  12.086  17.393  0.00  0.00    +0.000 C 
ATOM     25  C   UNL     1       9.111  12.088  17.937  0.00  0.00    +0.000 C 
ENDBRANCH  19  20
ENDBRANCH  18  19
ENDBRANCH  16  18
ENDBRANCH  15  16
ENDBRANCH   1  15
TORSDOF 6
ENDMDL
MODEL 4
REMARK VINA RESULT:      -7.5      0.870      1.563
REMARK  Name = 
REMARK  8 active torsions:
REMARK  status: ('A' for Active; 'I' for Inactive)
REMARK    1  A    between atoms: C_1  and  N_2
REMARK    2  A    between atoms: N_2  and  C_3
REMARK    3  A    between atoms: N_2  and  C_4
REMARK    4  A    between atoms: C_4  and  C_5
REMARK    5  A    between atoms: C_5  and  N_6
REMARK    6  A    between atoms: N_6  and  C_7
REMARK    7  A    between atoms: C_7  and  C_8
REMARK    8  A    between atoms: C_8  and  C_9
REMARK                            x       y       z     vdW  Elec       q    Type
REMARK                         _______ _______ _______ _____ _____    ______ ____
ROOT
ATOM      1  C   UNL     1       5.983   5.904  17.460  0.00  0.00    +0.000 C 
ATOM      2  C   UNL     1       7.243   5.142  16.958  0.00  0.00    +0.000 C 
ATOM      3  O   UNL     1       7.645   5.513  15.636  0.00  0.00    +0.000 OA
ATOM      4  C   UNL     1       6.969   4.900  14.618  0.00  0.00    +0.000 A 
ATOM      5  C   UNL     1       7.703   4.777  13.434  0.00  0.00    +0.000 A 
ATOM      6  C   UNL     1       7.155   4.144  12.321  0.00  0.00    +0.000 A 
ATOM      7  C   UNL     1       5.860   3.633  12.383  0.00  0.00    +0.000 A 
ATOM      8  C   UNL     1       5.115   3.770  13.553  0.00  0.00    +0.000 A 
ATOM      9  C   UNL     1       5.654   4.426  14.662  0.00  0.00    +0.000 A 
ATOM     10  O   UNL     1       4.807   4.547  15.732  0.00  0.00    +0.000 OA
ATOM     11  C   UNL     1       4.884   5.835  16.358  0.00  0.00    +0.000 C 
ENDROOT
BRANCH   1  13
ATOM     12  C   UNL     1       4.097   5.846  19.118  0.00  0.00    +0.000 C 
ATOM     13  N   UNL     1       5.436   5.355  18.770  0.00  0.00    +0.000 NA
ATOM     14  C   UNL     1       5.444   3.892  18.875  0.00  0.00    +0.000 C 
ENDBRANCH   1  13
BRANCH   1  15
ATOM     15  C   UNL     1       6.331   7.434  17.672  0.00  0.00    +0.000 C 
BRANCH  15  16
ATOM     16  N   UNL     1       7.734   7.775  17.934  0.00  0.00    +0.000 NA
ATOM     17  H   UNL     1       8.371   7.159  17.436  0.00  0.00    +0.000 HD
BRANCH  16  18
ATOM     18  C   UNL     1       8.023   9.164  17.591  0.00  0.00    +0.000 C 
BRANCH  18  19
ATOM     19  C   UNL     1       8.941   9.760  18.659  0.00  0.00    +0.000 C 
BRANCH  19  20
ATOM     20  C   UNL     1       9.204  11.268  18.471  0.00  0.00    +0.000 C 
ATOM     21  C   UNL     1       9.137  11.999  19.822  0.00  0.00    +0.000 C 
ATOM     22  C   UNL     1      10.333  11.686  20.719  0.00  0.00    +0.000 C 
ATOM     23  C   UNL     1      11.655  11.982  20.018  0.00  0.00    +0.000 C 
ATOM     24  C   UNL     1      11.758  11.322  18.646  0.00  0.00    +0.000 C 
ATOM     25  C   UNL     1      10.534  11.596  17.775  0.00  0.00    +0.000 C 
ENDBRANCH  19  20
ENDBRANCH  18  19
ENDBRANCH  16  18
ENDBRANCH  15  16
ENDBRANCH   1  15
TORSDOF 6
ENDMDL
MODEL 5
REMARK VINA RESULT:      -7.5      3.231      8.019
REMARK  Name = 
REMARK  8 active torsions:
REMARK  status: ('A' for Active; 'I' for Inactive)
REMARK    1  A    between atoms: C_1  and  N_2
REMARK    2  A    between atoms: N_2  and  C_3
REMARK    3  A    between atoms: N_2  and  C_4
REMARK    4  A    between atoms: C_4  and  C_5
REMARK    5  A    between atoms: C_5  and  N_6
REMARK    6  A    between atoms: N_6  and  C_7
REMARK    7  A    between atoms: C_7  and  C_8
REMARK    8  A    between atoms: C_8  and  C_9
REMARK                            x       y       z     vdW  Elec       q    Type
REMARK                         _______ _______ _______ _____ _____    ______ ____
ROOT
ATOM      1  C   UNL     1       5.554   5.550  17.909  0.00  0.00    +0.000 C 
ATOM      2  C   UNL     1       5.532   4.135  18.553  0.00  0.00    +0.000 C 
ATOM      3  O   UNL     1       4.375   3.368  18.205  0.00  0.00    +0.000 OA
ATOM      4  C   UNL     1       3.249   3.629  18.935  0.00  0.00    +0.000 A 
ATOM      5  C   UNL     1       2.366   2.549  19.034  0.00  0.00    +0.000 A 
ATOM      6  C   UNL     1       1.192   2.658  19.776  0.00  0.00    +0.000 A 
ATOM      7  C   UNL     1       0.890   3.855  20.421  0.00  0.00    +0.000 A 
ATOM      8  C   UNL     1       1.755   4.943  20.310  0.00  0.00    +0.000 A 
ATOM      9  C   UNL     1       2.920   4.843  19.547  0.00  0.00    +0.000 A 
ATOM     10  O   UNL     1       3.660   5.993  19.467  0.00  0.00    +0.000 OA
ATOM     11  C   UNL     1       4.174   6.232  18.150  0.00  0.00    +0.000 C 
ENDROOT
BRANCH   1  13
ATOM     12  C   UNL     1       7.736   5.704  19.145  0.00  0.00    +0.000 C 
ATOM     13  N   UNL     1       6.669   6.435  18.451  0.00  0.00    +0.000 NA
ATOM     14  C   UNL     1       7.276   7.333  17.463  0.00  0.00    +0.000 C 
ENDBRANCH   1  13
BRANCH   1  15
ATOM     15  C   UNL     1       5.741   5.424  16.342  0.00  0.00    +0.000 C 
BRANCH  15  16
ATOM     16  N   UNL     1       6.614   4.350  15.853  0.00  0.00    +0.000 NA
ATOM     17  H   UNL     1       6.252   3.431  16.096  0.00  0.00    +0.000 HD
BRANCH  16  18
ATOM     18  C   UNL     1       6.813   4.435  14.409  0.00  0.00    +0.000 C 
BRANCH  18  19
ATOM     19  C   UNL     1       5.731   3.612  13.708  0.00  0.00    +0.000 C 
BRANCH  19  20
ATOM     20  C   UNL     1       5.648   3.873  12.190  0.00  0.00    +0.000 C 
ATOM     21  C   UNL     1       7.057   3.934  11.576  0.00  0.00    +0.000 C 
ATOM     22  C   UNL     1       7.732   2.565  11.520  0.00  0.00    +0.000 C 
ATOM     23  C   UNL     1       6.873   1.544  10.781  0.00  0.00    +0.000 C 
ATOM     24  C   UNL     1       5.445   1.474  11.316  0.00  0.00    +0.000 C 
ATOM     25  C   UNL     1       4.796   2.853  11.419  0.00  0.00    +0.000 C 
ENDBRANCH  19  20
ENDBRANCH  18  19
ENDBRANCH  16  18
ENDBRANCH  15  16
ENDBRANCH   1  15
TORSDOF 6
ENDMDL
MODEL 6
REMARK VINA RESULT:      -7.4      2.922      6.742
REMARK  Name = 
REMARK  8 active torsions:
REMARK  status: ('A' for Active; 'I' for Inactive)
REMARK    1  A    between atoms: C_1  and  N_2
REMARK    2  A    between atoms: N_2  and  C_3
REMARK    3  A    between atoms: N_2  and  C_4
REMARK    4  A    between atoms: C_4  and  C_5
REMARK    5  A    between atoms: C_5  and  N_6
REMARK    6  A    between atoms: N_6  and  C_7
REMARK    7  A    between atoms: C_7  and  C_8
REMARK    8  A    between atoms: C_8  and  C_9
REMARK                            x       y       z     vdW  Elec       q    Type
REMARK                         _______ _______ _______ _____ _____    ______ ____
ROOT
ATOM      1  C   UNL     1       6.118   5.277  17.297  0.00  0.00    +0.000 C 
ATOM      2  C   UNL     1       5.123   5.758  16.202  0.00  0.00    +0.000 C 
ATOM      3  O   UNL     1       4.704   4.717  15.315  0.00  0.00    +0.000 OA
ATOM      4  C   UNL     1       5.564   4.428  14.292  0.00  0.00    +0.000 A 
ATOM      5  C   UNL     1       4.945   3.906  13.153  0.00  0.00    +0.000 A 
ATOM      6  C   UNL     1       5.691   3.595  12.018  0.00  0.00    +0.000 A 
ATOM      7  C   UNL     1       7.070   3.801  12.019  0.00  0.00    +0.000 A 
ATOM      8  C   UNL     1       7.697   4.301  13.159  0.00  0.00    +0.000 A 
ATOM      9  C   UNL     1       6.954   4.591  14.306  0.00  0.00    +0.000 A 
ATOM     10  O   UNL     1       7.688   5.023  15.378  0.00  0.00    +0.000 OA
ATOM     11  C   UNL     1       7.250   4.450  16.617  0.00  0.00    +0.000 C 
ENDROOT
BRANCH   1  13
ATOM     12  C   UNL     1       7.795   6.016  19.015  0.00  0.00    +0.000 C 
ATOM     13  N   UNL     1       6.724   6.422  18.098  0.00  0.00    +0.000 NA
ATOM     14  C   UNL     1       7.196   7.553  17.292  0.00  0.00    +0.000 C 
ENDBRANCH   1  13
BRANCH   1  15
ATOM     15  C   UNL     1       5.377   4.307  18.305  0.00  0.00    +0.000 C 
BRANCH  15  16
ATOM     16  N   UNL     1       4.845   3.052  17.762  0.00  0.00    +0.000 NA
ATOM     17  H   UNL     1       5.302   2.241  18.172  0.00  0.00    +0.000 HD
BRANCH  16  18
ATOM     18  C   UNL     1       3.400   2.953  17.955  0.00  0.00    +0.000 C 
BRANCH  18  19
ATOM     19  C   UNL     1       2.859   4.321  18.371  0.00  0.00    +0.000 C 
BRANCH  19  20
ATOM     20  C   UNL     1       1.475   4.253  19.047  0.00  0.00    +0.000 C 
ATOM     21  C   UNL     1       0.992   2.797  19.143  0.00  0.00    +0.000 C 
ATOM     22  C   UNL     1       1.773   1.986  20.176  0.00  0.00    +0.000 C 
ATOM     23  C   UNL     1       1.743   2.648  21.550  0.00  0.00    +0.000 C 
ATOM     24  C   UNL     1       2.165   4.114  21.510  0.00  0.00    +0.000 C 
ATOM     25  C   UNL     1       1.418   4.905  20.438  0.00  0.00    +0.000 C 
ENDBRANCH  19  20
ENDBRANCH  18  19
ENDBRANCH  16  18
ENDBRANCH  15  16
ENDBRANCH   1  15
TORSDOF 6
ENDMDL
MODEL 7
REMARK VINA RESULT:      -7.4      1.987      4.301
REMARK  Name = 
REMARK  8 active torsions:
REMARK  status: ('A' for Active; 'I' for Inactive)
REMARK    1  A    between atoms: C_1  and  N_2
REMARK    2  A    between atoms: N_2  and  C_3
REMARK    3  A    between atoms: N_2  and  C_4
REMARK    4  A    between atoms: C_4  and  C_5
REMARK    5  A    between atoms: C_5  and  N_6
REMARK    6  A    between atoms: N_6  and  C_7
REMARK    7  A    between atoms: C_7  and  C_8
REMARK    8  A    between atoms: C_8  and  C_9
REMARK                            x       y       z     vdW  Elec       q    Type
REMARK                         _______ _______ _______ _____ _____    ______ ____
ROOT
ATOM      1  C   UNL     1       5.976   5.709  17.571  0.00  0.00    +0.000 C 
ATOM      2  C   UNL     1       4.667   5.307  16.832  0.00  0.00    +0.000 C 
ATOM      3  O   UNL     1       3.479   5.642  17.555  0.00  0.00    +0.000 OA
ATOM      4  C   UNL     1       3.106   4.755  18.526  0.00  0.00    +0.000 A 
ATOM      5  C   UNL     1       1.733   4.734  18.788  0.00  0.00    +0.000 A 
ATOM      6  C   UNL     1       1.203   3.855  19.731  0.00  0.00    +0.000 A 
ATOM      7  C   UNL     1       2.049   2.992  20.424  0.00  0.00    +0.000 A 
ATOM      8  C   UNL     1       3.422   3.022  20.184  0.00  0.00    +0.000 A 
ATOM      9  C   UNL     1       3.957   3.919  19.257  0.00  0.00    +0.000 A 
ATOM     10  O   UNL     1       5.322   3.893  19.149  0.00  0.00    +0.000 OA
ATOM     11  C   UNL     1       5.896   5.203  19.043  0.00  0.00    +0.000 C 
ENDROOT
BRANCH   1  13
ATOM     12  C   UNL     1       8.118   4.417  17.808  0.00  0.00    +0.000 C 
ATOM     13  N   UNL     1       7.230   5.160  16.905  0.00  0.00    +0.000 NA
ATOM     14  C   UNL     1       6.986   4.347  15.709  0.00  0.00    +0.000 C 
ENDBRANCH   1  13
BRANCH   1  15
ATOM     15  C   UNL     1       6.097   7.286  17.629  0.00  0.00    +0.000 C 
BRANCH  15  16
ATOM     16  N   UNL     1       7.340   7.884  17.129  0.00  0.00    +0.000 NA
ATOM     17  H   UNL     1       7.157   8.667  16.507  0.00  0.00    +0.000 HD
BRANCH  16  18
ATOM     18  C   UNL     1       8.207   8.315  18.222  0.00  0.00    +0.000 C 
BRANCH  18  19
ATOM     19  C   UNL     1       8.381   9.832  18.151  0.00  0.00    +0.000 C 
BRANCH  19  20
ATOM     20  C   UNL     1       9.717  10.325  18.742  0.00  0.00    +0.000 C 
ATOM     21  C   UNL     1      10.349  11.392  17.831  0.00  0.00    +0.000 C 
ATOM     22  C   UNL     1       9.595  12.720  17.872  0.00  0.00    +0.000 C 
ATOM     23  C   UNL     1       9.463  13.248  19.298  0.00  0.00    +0.000 C 
ATOM     24  C   UNL     1       8.887  12.213  20.261  0.00  0.00    +0.000 C 
ATOM     25  C   UNL     1       9.611  10.872  20.174  0.00  0.00    +0.000 C 
ENDBRANCH  19  20
ENDBRANCH  18  19
ENDBRANCH  16  18
ENDBRANCH  15  16
ENDBRANCH   1  15
TORSDOF 6
ENDMDL
MODEL 8
REMARK VINA RESULT:      -7.2      2.094      4.600
REMARK  Name = 
REMARK  8 active torsions:
REMARK  status: ('A' for Active; 'I' for Inactive)
REMARK    1  A    between atoms: C_1  and  N_2
REMARK    2  A    between atoms: N_2  and  C_3
REMARK    3  A    between atoms: N_2  and  C_4
REMARK    4  A    between atoms: C_4  and  C_5
REMARK    5  A    between atoms: C_5  and  N_6
REMARK    6  A    between atoms: N_6  and  C_7
REMARK    7  A    between atoms: C_7  and  C_8
REMARK    8  A    between atoms: C_8  and  C_9
REMARK                            x       y       z     vdW  Elec       q    Type
REMARK                         _______ _______ _______ _____ _____    ______ ____
ROOT
ATOM      1  C   UNL     1       5.864   5.890  17.534  0.00  0.00    +0.000 C 
ATOM      2  C   UNL     1       4.482   6.602  17.573  0.00  0.00    +0.000 C 
ATOM      3  O   UNL     1       3.868   6.585  18.865  0.00  0.00    +0.000 OA
ATOM      4  C   UNL     1       3.196   5.438  19.187  0.00  0.00    +0.000 A 
ATOM      5  C   UNL     1       2.150   5.622  20.097  0.00  0.00    +0.000 A 
ATOM      6  C   UNL     1       1.355   4.548  20.492  0.00  0.00    +0.000 A 
ATOM      7  C   UNL     1       1.607   3.277  19.981  0.00  0.00    +0.000 A 
ATOM      8  C   UNL     1       2.661   3.082  19.089  0.00  0.00    +0.000 A 
ATOM      9  C   UNL     1       3.474   4.152  18.711  0.00  0.00    +0.000 A 
ATOM     10  O   UNL     1       4.509   3.826  17.875  0.00  0.00    +0.000 OA
ATOM     11  C   UNL     1       5.730   4.496  18.217  0.00  0.00    +0.000 C 
ENDROOT
BRANCH   1  13
ATOM     12  C   UNL     1       7.175   4.487  15.913  0.00  0.00    +0.000 C 
ATOM     13  N   UNL     1       6.409   5.722  16.122  0.00  0.00    +0.000 NA
ATOM     14  C   UNL     1       5.408   5.843  15.057  0.00  0.00    +0.000 C 
ENDBRANCH   1  13
BRANCH   1  15
ATOM     15  C   UNL     1       6.918   6.718  18.375  0.00  0.00    +0.000 C 
BRANCH  15  16
ATOM     16  N   UNL     1       7.888   7.528  17.629  0.00  0.00    +0.000 NA
ATOM     17  H   UNL     1       7.836   7.351  16.629  0.00  0.00    +0.000 HD
BRANCH  16  18
ATOM     18  C   UNL     1       7.708   8.955  17.885  0.00  0.00    +0.000 C 
BRANCH  18  19
ATOM     19  C   UNL     1       8.996   9.518  18.488  0.00  0.00    +0.000 C 
BRANCH  19  20
ATOM     20  C   UNL     1       9.106  11.052  18.376  0.00  0.00    +0.000 C 
ATOM     21  C   UNL     1       8.967  11.705  19.761  0.00  0.00    +0.000 C 
ATOM     22  C   UNL     1      10.189  11.469  20.647  0.00  0.00    +0.000 C 
ATOM     23  C   UNL     1      11.474  11.930  19.967  0.00  0.00    +0.000 C 
ATOM     24  C   UNL     1      11.643  11.351  18.565  0.00  0.00    +0.000 C 
ATOM     25  C   UNL     1      10.397  11.545  17.703  0.00  0.00    +0.000 C 
ENDBRANCH  19  20
ENDBRANCH  18  19
ENDBRANCH  16  18
ENDBRANCH  15  16
ENDBRANCH   1  15
TORSDOF 6
ENDMDL
MODEL 9
REMARK VINA RESULT:      -7.2      4.534      7.127
REMARK  Name = 
REMARK  8 active torsions:
REMARK  status: ('A' for Active; 'I' for Inactive)
REMARK    1  A    between atoms: C_1  and  N_2
REMARK    2  A    between atoms: N_2  and  C_3
REMARK    3  A    between atoms: N_2  and  C_4
REMARK    4  A    between atoms: C_4  and  C_5
REMARK    5  A    between atoms: C_5  and  N_6
REMARK    6  A    between atoms: N_6  and  C_7
REMARK    7  A    between atoms: C_7  and  C_8
REMARK    8  A    between atoms: C_8  and  C_9
REMARK                            x       y       z     vdW  Elec       q    Type
REMARK                         _______ _______ _______ _____ _____    ______ ____
ROOT
ATOM      1  C   UNL     1       4.705   4.944  17.385  0.00  0.00    +0.000 C 
ATOM      2  C   UNL     1       3.380   4.187  17.082  0.00  0.00    +0.000 C 
ATOM      3  O   UNL     1       2.318   4.513  17.984  0.00  0.00    +0.000 OA
ATOM      4  C   UNL     1       2.331   3.847  19.179  0.00  0.00    +0.000 A 
ATOM      5  C   UNL     1       1.070   3.692  19.762  0.00  0.00    +0.000 A 
ATOM      6  C   UNL     1       0.923   3.004  20.965  0.00  0.00    +0.000 A 
ATOM      7  C   UNL     1       2.045   2.471  21.598  0.00  0.00    +0.000 A 
ATOM      8  C   UNL     1       3.308   2.640  21.033  0.00  0.00    +0.000 A 
ATOM      9  C   UNL     1       3.459   3.350  19.840  0.00  0.00    +0.000 A 
ATOM     10  O   UNL     1       4.752   3.497  19.414  0.00  0.00    +0.000 OA
ATOM     11  C   UNL     1       5.023   4.810  18.904  0.00  0.00    +0.000 C 
ENDROOT
BRANCH   1  13
ATOM     12  C   UNL     1       5.787   4.726  15.128  0.00  0.00    +0.000 C 
ATOM     13  N   UNL     1       5.883   4.437  16.564  0.00  0.00    +0.000 NA
ATOM     14  C   UNL     1       7.199   4.867  17.046  0.00  0.00    +0.000 C 
ENDBRANCH   1  13
BRANCH   1  15
ATOM     15  C   UNL     1       4.521   6.487  17.085  0.00  0.00    +0.000 C 
BRANCH  15  16
ATOM     16  N   UNL     1       3.771   7.279  18.067  0.00  0.00    +0.000 NA
ATOM     17  H   UNL     1       4.352   7.994  18.496  0.00  0.00    +0.000 HD
BRANCH  16  18
ATOM     18  C   UNL     1       2.590   7.897  17.470  0.00  0.00    +0.000 C 
BRANCH  18  19
ATOM     19  C   UNL     1       1.898   8.765  18.521  0.00  0.00    +0.000 C 
BRANCH  19  20
ATOM     20  C   UNL     1       1.250  10.036  17.937  0.00  0.00    +0.000 C 
ATOM     21  C   UNL     1      -0.281   9.969  18.066  0.00  0.00    +0.000 C 
ATOM     22  C   UNL     1      -0.757  10.132  19.509  0.00  0.00    +0.000 C 
ATOM     23  C   UNL     1      -0.226  11.418  20.135  0.00  0.00    +0.000 C 
ATOM     24  C   UNL     1       1.286  11.564  19.993  0.00  0.00    +0.000 C 
ATOM     25  C   UNL     1       1.759  11.347  18.557  0.00  0.00    +0.000 C 
ENDBRANCH  19  20
ENDBRANCH  18  19
ENDBRANCH  16  18
ENDBRANCH  15  16
ENDBRANCH   1  15
TORSDOF 6
ENDMDL
