MODEL 1
REMARK VINA RESULT:      -8.0      0.000      0.000
REMARK  Name = 
REMARK  6 active torsions:
REMARK  status: ('A' for Active; 'I' for Inactive)
REMARK    1  A    between atoms: C_2  and  O_3
REMARK    2  A    between atoms: C_2  and  C_4
REMARK    3  A    between atoms: C_4  and  C_5
REMARK    4  A    between atoms: C_5  and  C_6
REMARK    5  A    between atoms: C_5  and  N_15
REMARK    6  A    between atoms: C_9  and  N_10
REMARK                            x       y       z     vdW  Elec       q    Type
REMARK                         _______ _______ _______ _____ _____    ______ ____
ROOT
ATOM      1  C   UNL     1       2.438   5.090  19.551  0.00  0.00    +0.000 C 
ENDROOT
BRANCH   1   2
ATOM      2  N   UNL     1       3.551   4.863  18.624  0.00  0.00    +0.000 N 
ATOM      3  C   UNL     1       3.339   4.267  17.410  0.00  0.00    +0.000 C 
ATOM      4  O   UNL     1       2.328   3.759  16.964  0.00  0.00    +0.000 OA
ATOM      5  C   UNL     1       4.612   4.261  16.709  0.00  0.00    +0.000 A 
ATOM      6  C   UNL     1       4.899   3.828  15.428  0.00  0.00    +0.000 A 
ATOM      7  C   UNL     1       6.234   3.865  15.026  0.00  0.00    +0.000 A 
ATOM      8  C   UNL     1       7.233   4.314  15.915  0.00  0.00    +0.000 A 
ATOM      9  C   UNL     1       6.906   4.771  17.202  0.00  0.00    +0.000 A 
ATOM     10  C   UNL     1       5.574   4.752  17.571  0.00  0.00    +0.000 A 
ATOM     11  C   UNL     1       4.875   5.162  18.802  0.00  0.00    +0.000 C 
ATOM     12  O   UNL     1       5.423   5.655  19.772  0.00  0.00    +0.000 OA
ENDBRANCH   1   2
BRANCH   1  13
ATOM     13  C   UNL     1       2.088   6.576  19.670  0.00  0.00    +0.000 A 
ATOM     14  C   UNL     1       1.569   7.133  20.851  0.00  0.00    +0.000 A 
ATOM     15  C   UNL     1       1.139   8.465  20.883  0.00  0.00    +0.000 A 
ATOM     16  C   UNL     1       1.251   9.262  19.738  0.00  0.00    +0.000 A 
ATOM     17  C   UNL     1       1.811   8.742  18.568  0.00  0.00    +0.000 A 
ATOM     18  C   UNL     1       2.226   7.405  18.541  0.00  0.00    +0.000 A 
BRANCH  16  19
ATOM     19  N   UNL     1       0.763  10.648  19.759  0.00  0.00    +0.000 N 
ATOM     20  O   UNL     1       1.272  11.448  18.961  0.00  0.00    +0.000 OA
ATOM     21  O   UNL     1      -0.125  10.938  20.573  0.00  0.00    +0.000 OA
ENDBRANCH  16  19
ENDBRANCH   1  13
BRANCH   1  22
ATOM     22  C   UNL     1       2.618   4.409  20.916  0.00  0.00    +0.000 C 
BRANCH  22  24
ATOM     23  O   UNL     1       1.532   2.542  22.028  0.00  0.00    +0.000 OA
ATOM     24  C   UNL     1       1.535   3.374  21.131  0.00  0.00    +0.000 C 
BRANCH  24  25
ATOM     25  O   UNL     1       0.511   3.486  20.257  0.00  0.00    +0.000 OA
ATOM     26  H   UNL     1      -0.321   3.824  20.639  0.00  0.00    +0.000 HD
ENDBRANCH  24  25
ENDBRANCH  22  24
ENDBRANCH   1  22
TORSDOF 6
ENDMDL
MODEL 2
REMARK VINA RESULT:      -8.0      0.419      1.053
REMARK  Name = 
REMARK  6 active torsions:
REMARK  status: ('A' for Active; 'I' for Inactive)
REMARK    1  A    between atoms: C_2  and  O_3
REMARK    2  A    between atoms: C_2  and  C_4
REMARK    3  A    between atoms: C_4  and  C_5
REMARK    4  A    between atoms: C_5  and  C_6
REMARK    5  A    between atoms: C_5  and  N_15
REMARK    6  A    between atoms: C_9  and  N_10
REMARK                            x       y       z     vdW  Elec       q    Type
REMARK                         _______ _______ _______ _____ _____    ______ ____
ROOT
ATOM      1  C   UNL     1       2.422   4.870  19.555  0.00  0.00    +0.000 C 
ENDROOT
BRANCH   1   2
ATOM      2  N   UNL     1       3.539   4.724  18.617  0.00  0.00    +0.000 N 
ATOM      3  C   UNL     1       3.350   4.146  17.391  0.00  0.00    +0.000 C 
ATOM      4  O   UNL     1       2.364   3.596  16.939  0.00  0.00    +0.000 OA
ATOM      5  C   UNL     1       4.616   4.223  16.682  0.00  0.00    +0.000 A 
ATOM      6  C   UNL     1       4.916   3.836  15.390  0.00  0.00    +0.000 A 
ATOM      7  C   UNL     1       6.246   3.953  14.981  0.00  0.00    +0.000 A 
ATOM      8  C   UNL     1       7.226   4.432  15.874  0.00  0.00    +0.000 A 
ATOM      9  C   UNL     1       6.884   4.842  17.174  0.00  0.00    +0.000 A 
ATOM     10  C   UNL     1       5.557   4.744  17.550  0.00  0.00    +0.000 A 
ATOM     11  C   UNL     1       4.846   5.088  18.794  0.00  0.00    +0.000 C 
ATOM     12  O   UNL     1       5.375   5.587  19.772  0.00  0.00    +0.000 OA
ENDBRANCH   1   2
BRANCH   1  13
ATOM     13  C   UNL     1       1.967   6.328  19.679  0.00  0.00    +0.000 A 
ATOM     14  C   UNL     1       2.133   7.258  18.640  0.00  0.00    +0.000 A 
ATOM     15  C   UNL     1       1.825   8.609  18.835  0.00  0.00    +0.000 A 
ATOM     16  C   UNL     1       1.321   9.039  20.068  0.00  0.00    +0.000 A 
ATOM     17  C   UNL     1       1.101   8.121  21.099  0.00  0.00    +0.000 A 
ATOM     18  C   UNL     1       1.424   6.774  20.899  0.00  0.00    +0.000 A 
BRANCH  16  19
ATOM     19  N   UNL     1       1.036  10.464  20.286  0.00  0.00    +0.000 N 
ATOM     20  O   UNL     1       0.701  11.140  19.303  0.00  0.00    +0.000 OA
ATOM     21  O   UNL     1       1.148  10.908  21.438  0.00  0.00    +0.000 OA
ENDBRANCH  16  19
ENDBRANCH   1  13
BRANCH   1  22
ATOM     22  C   UNL     1       2.665   4.204  20.918  0.00  0.00    +0.000 C 
BRANCH  22  24
ATOM     23  O   UNL     1       1.584   2.416  22.156  0.00  0.00    +0.000 OA
ATOM     24  C   UNL     1       1.600   3.163  21.189  0.00  0.00    +0.000 C 
BRANCH  24  25
ATOM     25  O   UNL     1       0.608   3.167  20.272  0.00  0.00    +0.000 OA
ATOM     26  H   UNL     1      -0.292   3.076  20.640  0.00  0.00    +0.000 HD
ENDBRANCH  24  25
ENDBRANCH  22  24
ENDBRANCH   1  22
TORSDOF 6
ENDMDL
MODEL 3
REMARK VINA RESULT:      -7.9      3.185      7.141
REMARK  Name = 
REMARK  6 active torsions:
REMARK  status: ('A' for Active; 'I' for Inactive)
REMARK    1  A    between atoms: C_2  and  O_3
REMARK    2  A    between atoms: C_2  and  C_4
REMARK    3  A    between atoms: C_4  and  C_5
REMARK    4  A    between atoms: C_5  and  C_6
REMARK    5  A    between atoms: C_5  and  N_15
REMARK    6  A    between atoms: C_9  and  N_10
REMARK                            x       y       z     vdW  Elec       q    Type
REMARK                         _______ _______ _______ _____ _____    ______ ____
ROOT
ATOM      1  C   UNL     1       6.131   5.249  17.721  0.00  0.00    +0.000 C 
ENDROOT
BRANCH   1   2
ATOM      2  N   UNL     1       4.958   4.846  18.502  0.00  0.00    +0.000 N 
ATOM      3  C   UNL     1       3.876   5.677  18.617  0.00  0.00    +0.000 C 
ATOM      4  O   UNL     1       3.741   6.826  18.241  0.00  0.00    +0.000 OA
ATOM      5  C   UNL     1       2.865   4.961  19.377  0.00  0.00    +0.000 A 
ATOM      6  C   UNL     1       1.579   5.351  19.700  0.00  0.00    +0.000 A 
ATOM      7  C   UNL     1       0.839   4.493  20.514  0.00  0.00    +0.000 A 
ATOM      8  C   UNL     1       1.407   3.293  20.988  0.00  0.00    +0.000 A 
ATOM      9  C   UNL     1       2.708   2.912  20.621  0.00  0.00    +0.000 A 
ATOM     10  C   UNL     1       3.416   3.763  19.791  0.00  0.00    +0.000 A 
ATOM     11  C   UNL     1       4.763   3.685  19.200  0.00  0.00    +0.000 C 
ATOM     12  O   UNL     1       5.527   2.747  19.350  0.00  0.00    +0.000 OA
ENDBRANCH   1   2
BRANCH   1  13
ATOM     13  C   UNL     1       6.009   4.836  16.251  0.00  0.00    +0.000 A 
ATOM     14  C   UNL     1       4.917   4.098  15.766  0.00  0.00    +0.000 A 
ATOM     15  C   UNL     1       4.902   3.627  14.447  0.00  0.00    +0.000 A 
ATOM     16  C   UNL     1       5.972   3.915  13.593  0.00  0.00    +0.000 A 
ATOM     17  C   UNL     1       7.046   4.689  14.041  0.00  0.00    +0.000 A 
ATOM     18  C   UNL     1       7.058   5.145  15.364  0.00  0.00    +0.000 A 
BRANCH  16  19
ATOM     19  N   UNL     1       5.976   3.387  12.221  0.00  0.00    +0.000 N 
ATOM     20  O   UNL     1       7.072   3.088  11.724  0.00  0.00    +0.000 OA
ATOM     21  O   UNL     1       4.887   3.272  11.640  0.00  0.00    +0.000 OA
ENDBRANCH  16  19
ENDBRANCH   1  13
BRANCH   1  22
ATOM     22  C   UNL     1       7.468   4.828  18.349  0.00  0.00    +0.000 C 
BRANCH  22  24
ATOM     23  O   UNL     1       8.290   7.050  18.887  0.00  0.00    +0.000 OA
ATOM     24  C   UNL     1       7.988   5.923  19.255  0.00  0.00    +0.000 C 
BRANCH  24  25
ATOM     25  O   UNL     1       8.040   5.558  20.555  0.00  0.00    +0.000 OA
ATOM     26  H   UNL     1       7.174   5.511  21.003  0.00  0.00    +0.000 HD
ENDBRANCH  24  25
ENDBRANCH  22  24
ENDBRANCH   1  22
TORSDOF 6
ENDMDL
MODEL 4
REMARK VINA RESULT:      -7.9      3.104      7.298
REMARK  Name = 
REMARK  6 active torsions:
REMARK  status: ('A' for Active; 'I' for Inactive)
REMARK    1  A    between atoms: C_2  and  O_3
REMARK    2  A    between atoms: C_2  and  C_4
REMARK    3  A    between atoms: C_4  and  C_5
REMARK    4  A    between atoms: C_5  and  C_6
REMARK    5  A    between atoms: C_5  and  N_15
REMARK    6  A    between atoms: C_9  and  N_10
REMARK                            x       y       z     vdW  Elec       q    Type
REMARK                         _______ _______ _______ _____ _____    ______ ____
ROOT
ATOM      1  C   UNL     1       5.907   5.862  17.524  0.00  0.00    +0.000 C 
ENDROOT
BRANCH   1   2
ATOM      2  N   UNL     1       4.846   5.302  18.366  0.00  0.00    +0.000 N 
ATOM      3  C   UNL     1       3.672   5.981  18.554  0.00  0.00    +0.000 C 
ATOM      4  O   UNL     1       3.363   7.103  18.201  0.00  0.00    +0.000 OA
ATOM      5  C   UNL     1       2.812   5.133  19.362  0.00  0.00    +0.000 A 
ATOM      6  C   UNL     1       1.507   5.346  19.763  0.00  0.00    +0.000 A 
ATOM      7  C   UNL     1       0.936   4.393  20.608  0.00  0.00    +0.000 A 
ATOM      8  C   UNL     1       1.686   3.277  21.033  0.00  0.00    +0.000 A 
ATOM      9  C   UNL     1       3.003   3.076  20.587  0.00  0.00    +0.000 A 
ATOM     10  C   UNL     1       3.541   4.018  19.729  0.00  0.00    +0.000 A 
ATOM     11  C   UNL     1       4.849   4.123  19.060  0.00  0.00    +0.000 C 
ATOM     12  O   UNL     1       5.738   3.295  19.154  0.00  0.00    +0.000 OA
ENDBRANCH   1   2
BRANCH   1  13
ATOM     13  C   UNL     1       6.023   5.127  16.185  0.00  0.00    +0.000 A 
ATOM     14  C   UNL     1       7.195   5.155  15.411  0.00  0.00    +0.000 A 
ATOM     15  C   UNL     1       7.221   4.581  14.134  0.00  0.00    +0.000 A 
ATOM     16  C   UNL     1       6.079   3.948  13.631  0.00  0.00    +0.000 A 
ATOM     17  C   UNL     1       4.918   3.865  14.404  0.00  0.00    +0.000 A 
ATOM     18  C   UNL     1       4.897   4.453  15.674  0.00  0.00    +0.000 A 
BRANCH  16  19
ATOM     19  N   UNL     1       6.094   3.381  12.275  0.00  0.00    +0.000 N 
ATOM     20  O   UNL     1       7.198   3.153  11.759  0.00  0.00    +0.000 OA
ATOM     21  O   UNL     1       5.005   3.166  11.724  0.00  0.00    +0.000 OA
ENDBRANCH  16  19
ENDBRANCH   1  13
BRANCH   1  22
ATOM     22  C   UNL     1       7.257   6.007  18.242  0.00  0.00    +0.000 C 
BRANCH  22  24
ATOM     23  O   UNL     1       7.448   8.185  17.184  0.00  0.00    +0.000 OA
ATOM     24  C   UNL     1       7.799   7.408  18.061  0.00  0.00    +0.000 C 
BRANCH  24  25
ATOM     25  O   UNL     1       8.689   7.761  19.014  0.00  0.00    +0.000 OA
ATOM     26  H   UNL     1       8.386   8.463  19.620  0.00  0.00    +0.000 HD
ENDBRANCH  24  25
ENDBRANCH  22  24
ENDBRANCH   1  22
TORSDOF 6
ENDMDL
MODEL 5
REMARK VINA RESULT:      -7.8      3.172      7.173
REMARK  Name = 
REMARK  6 active torsions:
REMARK  status: ('A' for Active; 'I' for Inactive)
REMARK    1  A    between atoms: C_2  and  O_3
REMARK    2  A    between atoms: C_2  and  C_4
REMARK    3  A    between atoms: C_4  and  C_5
REMARK    4  A    between atoms: C_5  and  C_6
REMARK    5  A    between atoms: C_5  and  N_15
REMARK    6  A    between atoms: C_9  and  N_10
REMARK                            x       y       z     vdW  Elec       q    Type
REMARK                         _______ _______ _______ _____ _____    ______ ____
ROOT
ATOM      1  C   UNL     1       6.087   5.291  17.799  0.00  0.00    +0.000 C 
ENDROOT
BRANCH   1   2
ATOM      2  N   UNL     1       4.847   4.958  18.506  0.00  0.00    +0.000 N 
ATOM      3  C   UNL     1       4.727   3.777  19.189  0.00  0.00    +0.000 C 
ATOM      4  O   UNL     1       5.491   2.832  19.236  0.00  0.00    +0.000 OA
ATOM      5  C   UNL     1       3.426   3.787  19.836  0.00  0.00    +0.000 A 
ATOM      6  C   UNL     1       2.870   2.851  20.687  0.00  0.00    +0.000 A 
ATOM      7  C   UNL     1       1.559   3.073  21.110  0.00  0.00    +0.000 A 
ATOM      8  C   UNL     1       0.847   4.203  20.658  0.00  0.00    +0.000 A 
ATOM      9  C   UNL     1       1.449   5.150  19.813  0.00  0.00    +0.000 A 
ATOM     10  C   UNL     1       2.758   4.925  19.428  0.00  0.00    +0.000 A 
ATOM     11  C   UNL     1       3.694   5.691  18.586  0.00  0.00    +0.000 C 
ATOM     12  O   UNL     1       3.434   6.763  18.068  0.00  0.00    +0.000 OA
ENDBRANCH   1   2
BRANCH   1  13
ATOM     13  C   UNL     1       6.025   4.898  16.320  0.00  0.00    +0.000 A 
ATOM     14  C   UNL     1       4.946   4.181  15.778  0.00  0.00    +0.000 A 
ATOM     15  C   UNL     1       4.983   3.726  14.454  0.00  0.00    +0.000 A 
ATOM     16  C   UNL     1       6.093   4.011  13.650  0.00  0.00    +0.000 A 
ATOM     17  C   UNL     1       7.155   4.766  14.155  0.00  0.00    +0.000 A 
ATOM     18  C   UNL     1       7.115   5.205  15.483  0.00  0.00    +0.000 A 
BRANCH  16  19
ATOM     19  N   UNL     1       6.151   3.500  12.274  0.00  0.00    +0.000 N 
ATOM     20  O   UNL     1       5.108   3.040  11.787  0.00  0.00    +0.000 OA
ATOM     21  O   UNL     1       7.237   3.556  11.679  0.00  0.00    +0.000 OA
ENDBRANCH  16  19
ENDBRANCH   1  13
BRANCH   1  22
ATOM     22  C   UNL     1       7.356   4.781  18.498  0.00  0.00    +0.000 C 
BRANCH  22  24
ATOM     23  O   UNL     1       8.278   6.992  18.899  0.00  0.00    +0.000 OA
ATOM     24  C   UNL     1       7.977   5.886  19.325  0.00  0.00    +0.000 C 
BRANCH  24  25
ATOM     25  O   UNL     1       8.126   5.557  20.627  0.00  0.00    +0.000 OA
ATOM     26  H   UNL     1       7.852   6.248  21.259  0.00  0.00    +0.000 HD
ENDBRANCH  24  25
ENDBRANCH  22  24
ENDBRANCH   1  22
TORSDOF 6
ENDMDL
MODEL 6
REMARK VINA RESULT:      -7.8      3.122      7.328
REMARK  Name = 
REMARK  6 active torsions:
REMARK  status: ('A' for Active; 'I' for Inactive)
REMARK    1  A    between atoms: C_2  and  O_3
REMARK    2  A    between atoms: C_2  and  C_4
REMARK    3  A    between atoms: C_4  and  C_5
REMARK    4  A    between atoms: C_5  and  C_6
REMARK    5  A    between atoms: C_5  and  N_15
REMARK    6  A    between atoms: C_9  and  N_10
REMARK                            x       y       z     vdW  Elec       q    Type
REMARK                         _______ _______ _______ _____ _____    ______ ____
ROOT
ATOM      1  C   UNL     1       5.881   5.892  17.517  0.00  0.00    +0.000 C 
ENDROOT
BRANCH   1   2
ATOM      2  N   UNL     1       4.774   5.374  18.326  0.00  0.00    +0.000 N 
ATOM      3  C   UNL     1       4.898   4.193  19.007  0.00  0.00    +0.000 C 
ATOM      4  O   UNL     1       5.801   3.378  18.980  0.00  0.00    +0.000 OA
ATOM      5  C   UNL     1       3.673   4.004  19.763  0.00  0.00    +0.000 A 
ATOM      6  C   UNL     1       3.344   2.998  20.652  0.00  0.00    +0.000 A 
ATOM      7  C   UNL     1       2.056   3.016  21.188  0.00  0.00    +0.000 A 
ATOM      8  C   UNL     1       1.141   4.020  20.809  0.00  0.00    +0.000 A 
ATOM      9  C   UNL     1       1.513   5.044  19.922  0.00  0.00    +0.000 A 
ATOM     10  C   UNL     1       2.803   5.023  19.424  0.00  0.00    +0.000 A 
ATOM     11  C   UNL     1       3.532   5.920  18.510  0.00  0.00    +0.000 C 
ATOM     12  O   UNL     1       3.065   6.936  18.026  0.00  0.00    +0.000 OA
ENDBRANCH   1   2
BRANCH   1  13
ATOM     13  C   UNL     1       6.007   5.154  16.180  0.00  0.00    +0.000 A 
ATOM     14  C   UNL     1       7.161   5.236  15.384  0.00  0.00    +0.000 A 
ATOM     15  C   UNL     1       7.192   4.654  14.110  0.00  0.00    +0.000 A 
ATOM     16  C   UNL     1       6.074   3.961  13.633  0.00  0.00    +0.000 A 
ATOM     17  C   UNL     1       4.934   3.825  14.430  0.00  0.00    +0.000 A 
ATOM     18  C   UNL     1       4.908   4.420  15.697  0.00  0.00    +0.000 A 
BRANCH  16  19
ATOM     19  N   UNL     1       6.091   3.385  12.281  0.00  0.00    +0.000 N 
ATOM     20  O   UNL     1       7.196   3.157  11.768  0.00  0.00    +0.000 OA
ATOM     21  O   UNL     1       5.003   3.164  11.731  0.00  0.00    +0.000 OA
ENDBRANCH  16  19
ENDBRANCH   1  13
BRANCH   1  22
ATOM     22  C   UNL     1       7.213   5.983  18.275  0.00  0.00    +0.000 C 
BRANCH  22  24
ATOM     23  O   UNL     1       7.509   8.158  17.234  0.00  0.00    +0.000 OA
ATOM     24  C   UNL     1       7.816   7.362  18.110  0.00  0.00    +0.000 C 
BRANCH  24  25
ATOM     25  O   UNL     1       8.710   7.671  19.075  0.00  0.00    +0.000 OA
ATOM     26  H   UNL     1       9.526   7.136  19.065  0.00  0.00    +0.000 HD
ENDBRANCH  24  25
ENDBRANCH  22  24
ENDBRANCH   1  22
TORSDOF 6
ENDMDL
MODEL 7
REMARK VINA RESULT:      -7.7      0.428      1.844
REMARK  Name = 
REMARK  6 active torsions:
REMARK  status: ('A' for Active; 'I' for Inactive)
REMARK    1  A    between atoms: C_2  and  O_3
REMARK    2  A    between atoms: C_2  and  C_4
REMARK    3  A    between atoms: C_4  and  C_5
REMARK    4  A    between atoms: C_5  and  C_6
REMARK    5  A    between atoms: C_5  and  N_15
REMARK    6  A    between atoms: C_9  and  N_10
REMARK                            x       y       z     vdW  Elec       q    Type
REMARK                         _______ _______ _______ _____ _____    ______ ____
ROOT
ATOM      1  C   UNL     1       2.328   4.926  19.610  0.00  0.00    +0.000 C 
ENDROOT
BRANCH   1   2
ATOM      2  N   UNL     1       3.356   4.714  18.587  0.00  0.00    +0.000 N 
ATOM      3  C   UNL     1       4.653   5.089  18.811  0.00  0.00    +0.000 C 
ATOM      4  O   UNL     1       5.128   5.710  19.744  0.00  0.00    +0.000 OA
ATOM      5  C   UNL     1       5.425   4.676  17.652  0.00  0.00    +0.000 A 
ATOM      6  C   UNL     1       6.786   4.773  17.431  0.00  0.00    +0.000 A 
ATOM      7  C   UNL     1       7.260   4.363  16.185  0.00  0.00    +0.000 A 
ATOM      8  C   UNL     1       6.366   3.890  15.202  0.00  0.00    +0.000 A 
ATOM      9  C   UNL     1       4.991   3.779  15.466  0.00  0.00    +0.000 A 
ATOM     10  C   UNL     1       4.545   4.165  16.717  0.00  0.00    +0.000 A 
ATOM     11  C   UNL     1       3.209   4.171  17.339  0.00  0.00    +0.000 C 
ATOM     12  O   UNL     1       2.195   3.771  16.795  0.00  0.00    +0.000 OA
ENDBRANCH   1   2
BRANCH   1  13
ATOM     13  C   UNL     1       2.028   6.414  19.821  0.00  0.00    +0.000 A 
ATOM     14  C   UNL     1       1.565   6.921  21.046  0.00  0.00    +0.000 A 
ATOM     15  C   UNL     1       1.179   8.261  21.164  0.00  0.00    +0.000 A 
ATOM     16  C   UNL     1       1.278   9.115  20.059  0.00  0.00    +0.000 A 
ATOM     17  C   UNL     1       1.784   8.643  18.845  0.00  0.00    +0.000 A 
ATOM     18  C   UNL     1       2.156   7.298  18.733  0.00  0.00    +0.000 A 
BRANCH  16  19
ATOM     19  N   UNL     1       0.835  10.511  20.171  0.00  0.00    +0.000 N 
ATOM     20  O   UNL     1       1.044  11.097  21.243  0.00  0.00    +0.000 OA
ATOM     21  O   UNL     1       0.275  11.023  19.190  0.00  0.00    +0.000 OA
ENDBRANCH  16  19
ENDBRANCH   1  13
BRANCH   1  22
ATOM     22  C   UNL     1       2.600   4.182  20.926  0.00  0.00    +0.000 C 
BRANCH  22  24
ATOM     23  O   UNL     1       1.455   2.436  22.167  0.00  0.00    +0.000 OA
ATOM     24  C   UNL     1       1.501   3.177  21.196  0.00  0.00    +0.000 C 
BRANCH  24  25
ATOM     25  O   UNL     1       0.515   3.206  20.272  0.00  0.00    +0.000 OA
ATOM     26  H   UNL     1       0.213   4.100  20.022  0.00  0.00    +0.000 HD
ENDBRANCH  24  25
ENDBRANCH  22  24
ENDBRANCH   1  22
TORSDOF 6
ENDMDL
MODEL 8
REMARK VINA RESULT:      -7.6      2.838      6.537
REMARK  Name = 
REMARK  6 active torsions:
REMARK  status: ('A' for Active; 'I' for Inactive)
REMARK    1  A    between atoms: C_2  and  O_3
REMARK    2  A    between atoms: C_2  and  C_4
REMARK    3  A    between atoms: C_4  and  C_5
REMARK    4  A    between atoms: C_5  and  C_6
REMARK    5  A    between atoms: C_5  and  N_15
REMARK    6  A    between atoms: C_9  and  N_10
REMARK                            x       y       z     vdW  Elec       q    Type
REMARK                         _______ _______ _______ _____ _____    ______ ____
ROOT
ATOM      1  C   UNL     1       4.396   4.356  18.434  0.00  0.00    +0.000 C 
ENDROOT
BRANCH   1   2
ATOM      2  N   UNL     1       3.614   5.579  18.639  0.00  0.00    +0.000 N 
ATOM      3  C   UNL     1       2.869   5.749  19.775  0.00  0.00    +0.000 C 
ATOM      4  O   UNL     1       2.638   4.961  20.673  0.00  0.00    +0.000 OA
ATOM      5  C   UNL     1       2.286   7.078  19.709  0.00  0.00    +0.000 A 
ATOM      6  C   UNL     1       1.510   7.736  20.645  0.00  0.00    +0.000 A 
ATOM      7  C   UNL     1       1.014   8.992  20.291  0.00  0.00    +0.000 A 
ATOM      8  C   UNL     1       1.292   9.536  19.021  0.00  0.00    +0.000 A 
ATOM      9  C   UNL     1       2.106   8.853  18.101  0.00  0.00    +0.000 A 
ATOM     10  C   UNL     1       2.610   7.623  18.482  0.00  0.00    +0.000 A 
ATOM     11  C   UNL     1       3.490   6.655  17.803  0.00  0.00    +0.000 C 
ATOM     12  O   UNL     1       3.977   6.824  16.699  0.00  0.00    +0.000 OA
ENDBRANCH   1   2
BRANCH   1  13
ATOM     13  C   UNL     1       5.294   4.453  17.196  0.00  0.00    +0.000 A 
ATOM     14  C   UNL     1       6.562   5.056  17.233  0.00  0.00    +0.000 A 
ATOM     15  C   UNL     1       7.298   5.242  16.057  0.00  0.00    +0.000 A 
ATOM     16  C   UNL     1       6.782   4.800  14.833  0.00  0.00    +0.000 A 
ATOM     17  C   UNL     1       5.544   4.153  14.782  0.00  0.00    +0.000 A 
ATOM     18  C   UNL     1       4.809   3.983  15.960  0.00  0.00    +0.000 A 
BRANCH  16  19
ATOM     19  N   UNL     1       7.536   5.032  13.593  0.00  0.00    +0.000 N 
ATOM     20  O   UNL     1       7.179   4.414  12.580  0.00  0.00    +0.000 OA
ATOM     21  O   UNL     1       8.484   5.828  13.632  0.00  0.00    +0.000 OA
ENDBRANCH  16  19
ENDBRANCH   1  13
BRANCH   1  22
ATOM     22  C   UNL     1       3.556   3.070  18.461  0.00  0.00    +0.000 C 
BRANCH  22  24
ATOM     23  O   UNL     1       4.859   2.129  20.283  0.00  0.00    +0.000 OA
ATOM     24  C   UNL     1       4.292   1.980  19.209  0.00  0.00    +0.000 C 
BRANCH  24  25
ATOM     25  O   UNL     1       4.222   0.776  18.600  0.00  0.00    +0.000 OA
ATOM     26  H   UNL     1       3.785   0.782  17.728  0.00  0.00    +0.000 HD
ENDBRANCH  24  25
ENDBRANCH  22  24
ENDBRANCH   1  22
TORSDOF 6
ENDMDL
MODEL 9
REMARK VINA RESULT:      -7.6      3.088      7.142
REMARK  Name = 
REMARK  6 active torsions:
REMARK  status: ('A' for Active; 'I' for Inactive)
REMARK    1  A    between atoms: C_2  and  O_3
REMARK    2  A    between atoms: C_2  and  C_4
REMARK    3  A    between atoms: C_4  and  C_5
REMARK    4  A    between atoms: C_5  and  C_6
REMARK    5  A    between atoms: C_5  and  N_15
REMARK    6  A    between atoms: C_9  and  N_10
REMARK                            x       y       z     vdW  Elec       q    Type
REMARK                         _______ _______ _______ _____ _____    ______ ____
ROOT
ATOM      1  C   UNL     1       5.744   5.960  17.841  0.00  0.00    +0.000 C 
ENDROOT
BRANCH   1   2
ATOM      2  N   UNL     1       4.695   5.293  18.618  0.00  0.00    +0.000 N 
ATOM      3  C   UNL     1       3.463   5.870  18.771  0.00  0.00    +0.000 C 
ATOM      4  O   UNL     1       3.081   6.975  18.435  0.00  0.00    +0.000 OA
ATOM      5  C   UNL     1       2.641   4.932  19.515  0.00  0.00    +0.000 A 
ATOM      6  C   UNL     1       1.306   5.029  19.863  0.00  0.00    +0.000 A 
ATOM      7  C   UNL     1       0.778   4.009  20.654  0.00  0.00    +0.000 A 
ATOM      8  C   UNL     1       1.596   2.943  21.082  0.00  0.00    +0.000 A 
ATOM      9  C   UNL     1       2.942   2.859  20.691  0.00  0.00    +0.000 A 
ATOM     10  C   UNL     1       3.439   3.867  19.884  0.00  0.00    +0.000 A 
ATOM     11  C   UNL     1       4.763   4.096  19.279  0.00  0.00    +0.000 C 
ATOM     12  O   UNL     1       5.711   3.338  19.391  0.00  0.00    +0.000 OA
ENDBRANCH   1   2
BRANCH   1  13
ATOM     13  C   UNL     1       5.838   5.408  16.415  0.00  0.00    +0.000 A 
ATOM     14  C   UNL     1       5.230   6.046  15.321  0.00  0.00    +0.000 A 
ATOM     15  C   UNL     1       5.227   5.445  14.056  0.00  0.00    +0.000 A 
ATOM     16  C   UNL     1       5.858   4.210  13.869  0.00  0.00    +0.000 A 
ATOM     17  C   UNL     1       6.512   3.583  14.933  0.00  0.00    +0.000 A 
ATOM     18  C   UNL     1       6.499   4.185  16.197  0.00  0.00    +0.000 A 
BRANCH  16  19
ATOM     19  N   UNL     1       5.820   3.561  12.552  0.00  0.00    +0.000 N 
ATOM     20  O   UNL     1       4.710   3.383  12.031  0.00  0.00    +0.000 OA
ATOM     21  O   UNL     1       6.897   3.226  12.038  0.00  0.00    +0.000 OA
ENDBRANCH  16  19
ENDBRANCH   1  13
BRANCH   1  22
ATOM     22  C   UNL     1       7.105   6.011  18.551  0.00  0.00    +0.000 C 
BRANCH  22  24
ATOM     23  O   UNL     1       7.663   7.898  17.128  0.00  0.00    +0.000 OA
ATOM     24  C   UNL     1       7.854   7.265  18.156  0.00  0.00    +0.000 C 
BRANCH  24  25
ATOM     25  O   UNL     1       8.742   7.671  19.091  0.00  0.00    +0.000 OA
ATOM     26  H   UNL     1       8.378   8.268  19.771  0.00  0.00    +0.000 HD
ENDBRANCH  24  25
ENDBRANCH  22  24
ENDBRANCH   1  22
TORSDOF 6
ENDMDL
