MODEL 1
REMARK VINA RESULT:      -7.3      0.000      0.000
REMARK  Name = 
REMARK  6 active torsions:
REMARK  status: ('A' for Active; 'I' for Inactive)
REMARK    1  A    between atoms: C_2  and  O_3
REMARK    2  A    between atoms: C_2  and  C_4
REMARK    3  A    between atoms: C_7  and  C_8
REMARK    4  A    between atoms: C_8  and  N_9
REMARK    5  A    between atoms: C_10  and  C_11
REMARK    6  A    between atoms: N_20  and  C_21
REMARK                            x       y       z     vdW  Elec       q    Type
REMARK                         _______ _______ _______ _____ _____    ______ ____
ROOT
ATOM      1  N   UNL     1      -0.319  11.563  21.441  0.00  0.00    +0.000 N 
ATOM      2  C   UNL     1      -1.026  11.505  22.660  0.00  0.00    +0.000 A 
ATOM      3  C   UNL     1      -0.717  10.358  23.367  0.00  0.00    +0.000 A 
ATOM      4  S   UNL     1       0.411   9.372  22.556  0.00  0.00    +0.000 S 
ATOM      5  C   UNL     1       0.430  10.466  21.205  0.00  0.00    +0.000 A 
ATOM      6  N   UNL     1       1.182  10.289  20.112  0.00  0.00    +0.000 N 
ATOM      7  H   UNL     1       1.591  11.142  19.754  0.00  0.00    +0.000 HD
ENDROOT
BRANCH   2   8
ATOM      8  C   UNL     1      -1.975  12.484  23.221  0.00  0.00    +0.000 A 
ATOM      9  C   UNL     1      -3.316  12.127  23.452  0.00  0.00    +0.000 A 
ATOM     10  C   UNL     1      -4.219  13.035  24.018  0.00  0.00    +0.000 A 
ATOM     11  C   UNL     1      -3.810  14.325  24.336  0.00  0.00    +0.000 A 
ATOM     12  C   UNL     1      -2.490  14.697  24.125  0.00  0.00    +0.000 A 
ATOM     13  C   UNL     1      -1.583  13.772  23.604  0.00  0.00    +0.000 A 
ENDBRANCH   2   8
BRANCH   6  14
ATOM     14  C   UNL     1       1.580   9.098  19.566  0.00  0.00    +0.000 A 
ATOM     15  C   UNL     1       1.773   7.942  20.340  0.00  0.00    +0.000 A 
ATOM     16  C   UNL     1       2.197   6.744  19.760  0.00  0.00    +0.000 A 
ATOM     17  C   UNL     1       2.412   6.675  18.389  0.00  0.00    +0.000 A 
ATOM     18  C   UNL     1       2.184   7.799  17.597  0.00  0.00    +0.000 A 
ATOM     19  C   UNL     1       1.757   8.999  18.180  0.00  0.00    +0.000 A 
ENDBRANCH   6  14
BRANCH   1  20
ATOM     20  C   UNL     1      -0.491  12.665  20.487  0.00  0.00    +0.000 C 
BRANCH  20  24
ATOM     21  C   UNL     1      -3.396  11.491  17.475  0.00  0.00    +0.000 A 
ATOM     22  C   UNL     1      -3.832  11.894  18.740  0.00  0.00    +0.000 A 
ATOM     23  C   UNL     1      -2.913  12.314  19.702  0.00  0.00    +0.000 A 
ATOM     24  C   UNL     1      -1.531  12.319  19.434  0.00  0.00    +0.000 A 
ATOM     25  C   UNL     1      -1.104  11.903  18.160  0.00  0.00    +0.000 A 
ATOM     26  C   UNL     1      -2.027  11.502  17.183  0.00  0.00    +0.000 A 
BRANCH  21  28
ATOM     27  O   UNL     1      -4.161  10.554  15.445  0.00  0.00    +0.000 OA
ATOM     28  C   UNL     1      -4.438  11.130  16.478  0.00  0.00    +0.000 C 
BRANCH  28  29
ATOM     29  O   UNL     1      -5.684  11.515  16.817  0.00  0.00    +0.000 OA
ATOM     30  H   UNL     1      -6.329  11.591  16.094  0.00  0.00    +0.000 HD
ENDBRANCH  28  29
ENDBRANCH  21  28
ENDBRANCH  20  24
ENDBRANCH   1  20
TORSDOF 6
ENDMDL
MODEL 2
REMARK VINA RESULT:      -7.2      3.403      4.875
REMARK  Name = 
REMARK  6 active torsions:
REMARK  status: ('A' for Active; 'I' for Inactive)
REMARK    1  A    between atoms: C_2  and  O_3
REMARK    2  A    between atoms: C_2  and  C_4
REMARK    3  A    between atoms: C_7  and  C_8
REMARK    4  A    between atoms: C_8  and  N_9
REMARK    5  A    between atoms: C_10  and  C_11
REMARK    6  A    between atoms: N_20  and  C_21
REMARK                            x       y       z     vdW  Elec       q    Type
REMARK                         _______ _______ _______ _____ _____    ______ ____
ROOT
ATOM      1  N   UNL     1      -0.349  13.002  18.955  0.00  0.00    +0.000 N 
ATOM      2  C   UNL     1       0.255  14.246  19.235  0.00  0.00    +0.000 A 
ATOM      3  C   UNL     1       1.633  14.156  19.200  0.00  0.00    +0.000 A 
ATOM      4  S   UNL     1       2.179  12.584  18.835  0.00  0.00    +0.000 S 
ATOM      5  C   UNL     1       0.540  12.001  18.794  0.00  0.00    +0.000 A 
ATOM      6  N   UNL     1       0.207  10.733  18.527  0.00  0.00    +0.000 N 
ATOM      7  H   UNL     1      -0.615  10.640  17.945  0.00  0.00    +0.000 HD
ENDROOT
BRANCH   2   8
ATOM      8  C   UNL     1      -0.394  15.539  19.521  0.00  0.00    +0.000 A 
ATOM      9  C   UNL     1      -0.715  15.900  20.843  0.00  0.00    +0.000 A 
ATOM     10  C   UNL     1      -1.297  17.141  21.132  0.00  0.00    +0.000 A 
ATOM     11  C   UNL     1      -1.597  18.032  20.108  0.00  0.00    +0.000 A 
ATOM     12  C   UNL     1      -1.280  17.700  18.798  0.00  0.00    +0.000 A 
ATOM     13  C   UNL     1      -0.658  16.482  18.520  0.00  0.00    +0.000 A 
ENDBRANCH   2   8
BRANCH   6  14
ATOM     14  C   UNL     1       0.941   9.610  18.800  0.00  0.00    +0.000 A 
ATOM     15  C   UNL     1       1.713   8.959  17.825  0.00  0.00    +0.000 A 
ATOM     16  C   UNL     1       2.437   7.804  18.127  0.00  0.00    +0.000 A 
ATOM     17  C   UNL     1       2.421   7.292  19.419  0.00  0.00    +0.000 A 
ATOM     18  C   UNL     1       1.697   7.949  20.412  0.00  0.00    +0.000 A 
ATOM     19  C   UNL     1       0.972   9.108  20.108  0.00  0.00    +0.000 A 
ENDBRANCH   6  14
BRANCH   1  20
ATOM     20  C   UNL     1      -1.805  12.819  18.960  0.00  0.00    +0.000 C 
BRANCH  20  24
ATOM     21  C   UNL     1      -3.529  12.802  22.949  0.00  0.00    +0.000 A 
ATOM     22  C   UNL     1      -2.320  12.144  22.713  0.00  0.00    +0.000 A 
ATOM     23  C   UNL     1      -1.733  12.177  21.447  0.00  0.00    +0.000 A 
ATOM     24  C   UNL     1      -2.354  12.849  20.377  0.00  0.00    +0.000 A 
ATOM     25  C   UNL     1      -3.576  13.500  20.625  0.00  0.00    +0.000 A 
ATOM     26  C   UNL     1      -4.156  13.488  21.902  0.00  0.00    +0.000 A 
BRANCH  21  28
ATOM     27  O   UNL     1      -4.787  11.903  24.737  0.00  0.00    +0.000 OA
ATOM     28  C   UNL     1      -4.053  12.787  24.341  0.00  0.00    +0.000 C 
BRANCH  28  29
ATOM     29  O   UNL     1      -3.658  13.833  25.092  0.00  0.00    +0.000 OA
ATOM     30  H   UNL     1      -3.649  14.703  24.660  0.00  0.00    +0.000 HD
ENDBRANCH  28  29
ENDBRANCH  21  28
ENDBRANCH  20  24
ENDBRANCH   1  20
TORSDOF 6
ENDMDL
MODEL 3
REMARK VINA RESULT:      -7.1      3.360      4.792
REMARK  Name = 
REMARK  6 active torsions:
REMARK  status: ('A' for Active; 'I' for Inactive)
REMARK    1  A    between atoms: C_2  and  O_3
REMARK    2  A    between atoms: C_2  and  C_4
REMARK    3  A    between atoms: C_7  and  C_8
REMARK    4  A    between atoms: C_8  and  N_9
REMARK    5  A    between atoms: C_10  and  C_11
REMARK    6  A    between atoms: N_20  and  C_21
REMARK                            x       y       z     vdW  Elec       q    Type
REMARK                         _______ _______ _______ _____ _____    ______ ____
ROOT
ATOM      1  N   UNL     1      -0.413  13.007  19.015  0.00  0.00    +0.000 N 
ATOM      2  C   UNL     1       0.163  14.247  19.363  0.00  0.00    +0.000 A 
ATOM      3  C   UNL     1       1.543  14.172  19.384  0.00  0.00    +0.000 A 
ATOM      4  S   UNL     1       2.121  12.619  18.988  0.00  0.00    +0.000 S 
ATOM      5  C   UNL     1       0.493  12.021  18.857  0.00  0.00    +0.000 A 
ATOM      6  N   UNL     1       0.186  10.760  18.533  0.00  0.00    +0.000 N 
ATOM      7  H   UNL     1      -0.609  10.678  17.914  0.00  0.00    +0.000 HD
ENDROOT
BRANCH   2   8
ATOM      8  C   UNL     1      -0.512  15.522  19.665  0.00  0.00    +0.000 A 
ATOM      9  C   UNL     1      -0.739  16.469  18.649  0.00  0.00    +0.000 A 
ATOM     10  C   UNL     1      -1.412  17.667  18.915  0.00  0.00    +0.000 A 
ATOM     11  C   UNL     1      -1.843  17.960  20.204  0.00  0.00    +0.000 A 
ATOM     12  C   UNL     1      -1.638  17.037  21.220  0.00  0.00    +0.000 A 
ATOM     13  C   UNL     1      -1.008  15.823  20.940  0.00  0.00    +0.000 A 
ENDBRANCH   2   8
BRANCH   6  14
ATOM     14  C   UNL     1       0.921   9.635  18.800  0.00  0.00    +0.000 A 
ATOM     15  C   UNL     1       1.695   8.993  17.821  0.00  0.00    +0.000 A 
ATOM     16  C   UNL     1       2.421   7.836  18.115  0.00  0.00    +0.000 A 
ATOM     17  C   UNL     1       2.403   7.315  19.403  0.00  0.00    +0.000 A 
ATOM     18  C   UNL     1       1.676   7.963  20.399  0.00  0.00    +0.000 A 
ATOM     19  C   UNL     1       0.951   9.123  20.103  0.00  0.00    +0.000 A 
ENDBRANCH   6  14
BRANCH   1  20
ATOM     20  C   UNL     1      -1.866  12.809  18.951  0.00  0.00    +0.000 C 
BRANCH  20  24
ATOM     21  C   UNL     1      -3.448  12.776  22.998  0.00  0.00    +0.000 A 
ATOM     22  C   UNL     1      -4.177  13.385  21.974  0.00  0.00    +0.000 A 
ATOM     23  C   UNL     1      -3.701  13.366  20.662  0.00  0.00    +0.000 A 
ATOM     24  C   UNL     1      -2.472  12.758  20.344  0.00  0.00    +0.000 A 
ATOM     25  C   UNL     1      -1.744  12.156  21.387  0.00  0.00    +0.000 A 
ATOM     26  C   UNL     1      -2.230  12.154  22.702  0.00  0.00    +0.000 A 
BRANCH  21  28
ATOM     27  O   UNL     1      -4.830  11.901  24.706  0.00  0.00    +0.000 OA
ATOM     28  C   UNL     1      -4.056  12.770  24.356  0.00  0.00    +0.000 C 
BRANCH  28  29
ATOM     29  O   UNL     1      -3.687  13.809  25.131  0.00  0.00    +0.000 OA
ATOM     30  H   UNL     1      -3.453  13.605  26.052  0.00  0.00    +0.000 HD
ENDBRANCH  28  29
ENDBRANCH  21  28
ENDBRANCH  20  24
ENDBRANCH   1  20
TORSDOF 6
ENDMDL
MODEL 4
REMARK VINA RESULT:      -7.1      1.722      2.883
REMARK  Name = 
REMARK  6 active torsions:
REMARK  status: ('A' for Active; 'I' for Inactive)
REMARK    1  A    between atoms: C_2  and  O_3
REMARK    2  A    between atoms: C_2  and  C_4
REMARK    3  A    between atoms: C_7  and  C_8
REMARK    4  A    between atoms: C_8  and  N_9
REMARK    5  A    between atoms: C_10  and  C_11
REMARK    6  A    between atoms: N_20  and  C_21
REMARK                            x       y       z     vdW  Elec       q    Type
REMARK                         _______ _______ _______ _____ _____    ______ ____
ROOT
ATOM      1  N   UNL     1       1.302   9.535  19.626  0.00  0.00    +0.000 N 
ATOM      2  C   UNL     1       0.797   9.813  20.914  0.00  0.00    +0.000 A 
ATOM      3  C   UNL     1       1.061   8.780  21.792  0.00  0.00    +0.000 A 
ATOM      4  S   UNL     1       1.906   7.495  21.058  0.00  0.00    +0.000 S 
ATOM      5  C   UNL     1       1.853   8.308  19.522  0.00  0.00    +0.000 A 
ATOM      6  N   UNL     1       2.392   7.817  18.400  0.00  0.00    +0.000 N 
ATOM      7  H   UNL     1       2.847   8.514  17.826  0.00  0.00    +0.000 HD
ENDROOT
BRANCH   2   8
ATOM      8  C   UNL     1       0.086  11.017  21.382  0.00  0.00    +0.000 A 
ATOM      9  C   UNL     1      -1.211  10.918  21.917  0.00  0.00    +0.000 A 
ATOM     10  C   UNL     1      -1.882  12.048  22.400  0.00  0.00    +0.000 A 
ATOM     11  C   UNL     1      -1.287  13.302  22.330  0.00  0.00    +0.000 A 
ATOM     12  C   UNL     1      -0.004  13.422  21.814  0.00  0.00    +0.000 A 
ATOM     13  C   UNL     1       0.679  12.286  21.377  0.00  0.00    +0.000 A 
ENDBRANCH   2   8
BRANCH   6  14
ATOM     14  C   UNL     1       2.537   6.498  18.061  0.00  0.00    +0.000 A 
ATOM     15  C   UNL     1       1.456   5.603  18.040  0.00  0.00    +0.000 A 
ATOM     16  C   UNL     1       1.635   4.258  17.708  0.00  0.00    +0.000 A 
ATOM     17  C   UNL     1       2.899   3.790  17.366  0.00  0.00    +0.000 A 
ATOM     18  C   UNL     1       3.976   4.672  17.337  0.00  0.00    +0.000 A 
ATOM     19  C   UNL     1       3.794   6.021  17.669  0.00  0.00    +0.000 A 
ENDBRANCH   6  14
BRANCH   1  20
ATOM     20  C   UNL     1       1.128  10.458  18.499  0.00  0.00    +0.000 C 
BRANCH  20  24
ATOM     21  C   UNL     1      -3.129  11.048  17.850  0.00  0.00    +0.000 A 
ATOM     22  C   UNL     1      -2.330  12.127  18.236  0.00  0.00    +0.000 A 
ATOM     23  C   UNL     1      -0.955  11.961  18.406  0.00  0.00    +0.000 A 
ATOM     24  C   UNL     1      -0.346  10.706  18.219  0.00  0.00    +0.000 A 
ATOM     25  C   UNL     1      -1.163   9.625  17.839  0.00  0.00    +0.000 A 
ATOM     26  C   UNL     1      -2.541   9.794  17.645  0.00  0.00    +0.000 A 
BRANCH  21  28
ATOM     27  O   UNL     1      -5.441  10.667  18.158  0.00  0.00    +0.000 OA
ATOM     28  C   UNL     1      -4.572  11.318  17.614  0.00  0.00    +0.000 C 
BRANCH  28  29
ATOM     29  O   UNL     1      -4.813  12.318  16.744  0.00  0.00    +0.000 OA
ATOM     30  H   UNL     1      -4.691  12.116  15.801  0.00  0.00    +0.000 HD
ENDBRANCH  28  29
ENDBRANCH  21  28
ENDBRANCH  20  24
ENDBRANCH   1  20
TORSDOF 6
ENDMDL
MODEL 5
REMARK VINA RESULT:      -7.1      0.836      1.863
REMARK  Name = 
REMARK  6 active torsions:
REMARK  status: ('A' for Active; 'I' for Inactive)
REMARK    1  A    between atoms: C_2  and  O_3
REMARK    2  A    between atoms: C_2  and  C_4
REMARK    3  A    between atoms: C_7  and  C_8
REMARK    4  A    between atoms: C_8  and  N_9
REMARK    5  A    between atoms: C_10  and  C_11
REMARK    6  A    between atoms: N_20  and  C_21
REMARK                            x       y       z     vdW  Elec       q    Type
REMARK                         _______ _______ _______ _____ _____    ______ ____
ROOT
ATOM      1  N   UNL     1      -0.331  11.342  21.289  0.00  0.00    +0.000 N 
ATOM      2  C   UNL     1      -0.882  11.307  22.588  0.00  0.00    +0.000 A 
ATOM      3  C   UNL     1      -0.386  10.242  23.315  0.00  0.00    +0.000 A 
ATOM      4  S   UNL     1       0.728   9.304  22.430  0.00  0.00    +0.000 S 
ATOM      5  C   UNL     1       0.485  10.302  21.026  0.00  0.00    +0.000 A 
ATOM      6  N   UNL     1       1.119  10.116  19.862  0.00  0.00    +0.000 N 
ATOM      7  H   UNL     1       1.401  10.975  19.408  0.00  0.00    +0.000 HD
ENDROOT
BRANCH   2   8
ATOM      8  C   UNL     1      -1.848  12.236  23.203  0.00  0.00    +0.000 A 
ATOM      9  C   UNL     1      -1.504  13.583  23.420  0.00  0.00    +0.000 A 
ATOM     10  C   UNL     1      -2.425  14.484  23.969  0.00  0.00    +0.000 A 
ATOM     11  C   UNL     1      -3.693  14.053  24.340  0.00  0.00    +0.000 A 
ATOM     12  C   UNL     1      -4.057  12.731  24.127  0.00  0.00    +0.000 A 
ATOM     13  C   UNL     1      -3.151  11.848  23.537  0.00  0.00    +0.000 A 
ENDBRANCH   2   8
BRANCH   6  14
ATOM     14  C   UNL     1       1.560   8.930  19.341  0.00  0.00    +0.000 A 
ATOM     15  C   UNL     1       1.804   8.755  17.969  0.00  0.00    +0.000 A 
ATOM     16  C   UNL     1       2.237   7.528  17.461  0.00  0.00    +0.000 A 
ATOM     17  C   UNL     1       2.457   6.459  18.322  0.00  0.00    +0.000 A 
ATOM     18  C   UNL     1       2.264   6.626  19.692  0.00  0.00    +0.000 A 
ATOM     19  C   UNL     1       1.831   7.857  20.199  0.00  0.00    +0.000 A 
ENDBRANCH   6  14
BRANCH   1  20
ATOM     20  C   UNL     1      -0.716  12.359  20.302  0.00  0.00    +0.000 C 
BRANCH  20  24
ATOM     21  C   UNL     1      -4.619  11.656  18.525  0.00  0.00    +0.000 A 
ATOM     22  C   UNL     1      -3.502  10.975  18.036  0.00  0.00    +0.000 A 
ATOM     23  C   UNL     1      -2.250  11.159  18.625  0.00  0.00    +0.000 A 
ATOM     24  C   UNL     1      -2.078  12.048  19.703  0.00  0.00    +0.000 A 
ATOM     25  C   UNL     1      -3.210  12.734  20.180  0.00  0.00    +0.000 A 
ATOM     26  C   UNL     1      -4.473  12.534  19.605  0.00  0.00    +0.000 A 
BRANCH  21  28
ATOM     27  O   UNL     1      -6.724  10.587  18.411  0.00  0.00    +0.000 OA
ATOM     28  C   UNL     1      -5.931  11.351  17.896  0.00  0.00    +0.000 C 
BRANCH  28  29
ATOM     29  O   UNL     1      -6.140  11.974  16.720  0.00  0.00    +0.000 OA
ATOM     30  H   UNL     1      -6.234  12.940  16.748  0.00  0.00    +0.000 HD
ENDBRANCH  28  29
ENDBRANCH  21  28
ENDBRANCH  20  24
ENDBRANCH   1  20
TORSDOF 6
ENDMDL
MODEL 6
REMARK VINA RESULT:      -7.0      0.856      1.275
REMARK  Name = 
REMARK  6 active torsions:
REMARK  status: ('A' for Active; 'I' for Inactive)
REMARK    1  A    between atoms: C_2  and  O_3
REMARK    2  A    between atoms: C_2  and  C_4
REMARK    3  A    between atoms: C_7  and  C_8
REMARK    4  A    between atoms: C_8  and  N_9
REMARK    5  A    between atoms: C_10  and  C_11
REMARK    6  A    between atoms: N_20  and  C_21
REMARK                            x       y       z     vdW  Elec       q    Type
REMARK                         _______ _______ _______ _____ _____    ______ ____
ROOT
ATOM      1  N   UNL     1       0.140  10.882  21.206  0.00  0.00    +0.000 N 
ATOM      2  C   UNL     1      -0.606  11.081  22.386  0.00  0.00    +0.000 A 
ATOM      3  C   UNL     1      -0.442  10.031  23.269  0.00  0.00    +0.000 A 
ATOM      4  S   UNL     1       0.601   8.826  22.666  0.00  0.00    +0.000 S 
ATOM      5  C   UNL     1       0.777   9.694  21.170  0.00  0.00    +0.000 A 
ATOM      6  N   UNL     1       1.540   9.279  20.153  0.00  0.00    +0.000 N 
ATOM      7  H   UNL     1       2.048  10.022  19.691  0.00  0.00    +0.000 HD
ENDROOT
BRANCH   2   8
ATOM      8  C   UNL     1      -1.465  12.224  22.750  0.00  0.00    +0.000 A 
ATOM      9  C   UNL     1      -2.822  12.026  23.062  0.00  0.00    +0.000 A 
ATOM     10  C   UNL     1      -3.639  13.097  23.446  0.00  0.00    +0.000 A 
ATOM     11  C   UNL     1      -3.127  14.389  23.495  0.00  0.00    +0.000 A 
ATOM     12  C   UNL     1      -1.788  14.606  23.200  0.00  0.00    +0.000 A 
ATOM     13  C   UNL     1      -0.968  13.528  22.863  0.00  0.00    +0.000 A 
ENDBRANCH   2   8
BRANCH   6  14
ATOM     14  C   UNL     1       1.827   7.985  19.809  0.00  0.00    +0.000 A 
ATOM     15  C   UNL     1       1.608   6.908  20.682  0.00  0.00    +0.000 A 
ATOM     16  C   UNL     1       1.928   5.599  20.313  0.00  0.00    +0.000 A 
ATOM     17  C   UNL     1       2.450   5.342  19.050  0.00  0.00    +0.000 A 
ATOM     18  C   UNL     1       2.633   6.392  18.153  0.00  0.00    +0.000 A 
ATOM     19  C   UNL     1       2.311   7.703  18.525  0.00  0.00    +0.000 A 
ENDBRANCH   6  14
BRANCH   1  20
ATOM     20  C   UNL     1       0.115  11.838  20.092  0.00  0.00    +0.000 C 
BRANCH  20  24
ATOM     21  C   UNL     1      -3.189  11.202  17.341  0.00  0.00    +0.000 A 
ATOM     22  C   UNL     1      -2.002  10.483  17.178  0.00  0.00    +0.000 A 
ATOM     23  C   UNL     1      -0.949  10.646  18.079  0.00  0.00    +0.000 A 
ATOM     24  C   UNL     1      -1.045  11.551  19.153  0.00  0.00    +0.000 A 
ATOM     25  C   UNL     1      -2.242  12.275  19.301  0.00  0.00    +0.000 A 
ATOM     26  C   UNL     1      -3.311  12.096  18.410  0.00  0.00    +0.000 A 
BRANCH  21  28
ATOM     27  O   UNL     1      -4.084  10.431  15.294  0.00  0.00    +0.000 OA
ATOM     28  C   UNL     1      -4.293  10.918  16.387  0.00  0.00    +0.000 C 
BRANCH  28  29
ATOM     29  O   UNL     1      -5.515  11.265  16.836  0.00  0.00    +0.000 OA
ATOM     30  H   UNL     1      -5.987  10.607  17.371  0.00  0.00    +0.000 HD
ENDBRANCH  28  29
ENDBRANCH  21  28
ENDBRANCH  20  24
ENDBRANCH   1  20
TORSDOF 6
ENDMDL
MODEL 7
REMARK VINA RESULT:      -7.0      1.589      2.647
REMARK  Name = 
REMARK  6 active torsions:
REMARK  status: ('A' for Active; 'I' for Inactive)
REMARK    1  A    between atoms: C_2  and  O_3
REMARK    2  A    between atoms: C_2  and  C_4
REMARK    3  A    between atoms: C_7  and  C_8
REMARK    4  A    between atoms: C_8  and  N_9
REMARK    5  A    between atoms: C_10  and  C_11
REMARK    6  A    between atoms: N_20  and  C_21
REMARK                            x       y       z     vdW  Elec       q    Type
REMARK                         _______ _______ _______ _____ _____    ______ ____
ROOT
ATOM      1  N   UNL     1       1.103   9.761  19.878  0.00  0.00    +0.000 N 
ATOM      2  C   UNL     1       0.664   9.973  21.202  0.00  0.00    +0.000 A 
ATOM      3  C   UNL     1       1.071   8.949  22.037  0.00  0.00    +0.000 A 
ATOM      4  S   UNL     1       1.968   7.754  21.220  0.00  0.00    +0.000 S 
ATOM      5  C   UNL     1       1.746   8.588  19.710  0.00  0.00    +0.000 A 
ATOM      6  N   UNL     1       2.248   8.164  18.544  0.00  0.00    +0.000 N 
ATOM      7  H   UNL     1       2.605   8.907  17.958  0.00  0.00    +0.000 HD
ENDROOT
BRANCH   2   8
ATOM      8  C   UNL     1      -0.112  11.104  21.744  0.00  0.00    +0.000 A 
ATOM      9  C   UNL     1      -1.300  10.876  22.462  0.00  0.00    +0.000 A 
ATOM     10  C   UNL     1      -2.026  11.938  23.014  0.00  0.00    +0.000 A 
ATOM     11  C   UNL     1      -1.598  13.249  22.835  0.00  0.00    +0.000 A 
ATOM     12  C   UNL     1      -0.424  13.497  22.139  0.00  0.00    +0.000 A 
ATOM     13  C   UNL     1       0.320  12.431  21.630  0.00  0.00    +0.000 A 
ENDBRANCH   2   8
BRANCH   6  14
ATOM     14  C   UNL     1       2.479   6.869  18.164  0.00  0.00    +0.000 A 
ATOM     15  C   UNL     1       1.466   5.897  18.149  0.00  0.00    +0.000 A 
ATOM     16  C   UNL     1       1.733   4.578  17.775  0.00  0.00    +0.000 A 
ATOM     17  C   UNL     1       3.017   4.214  17.386  0.00  0.00    +0.000 A 
ATOM     18  C   UNL     1       4.026   5.174  17.351  0.00  0.00    +0.000 A 
ATOM     19  C   UNL     1       3.756   6.496  17.725  0.00  0.00    +0.000 A 
ENDBRANCH   6  14
BRANCH   1  20
ATOM     20  C   UNL     1       0.778  10.688  18.787  0.00  0.00    +0.000 C 
BRANCH  20  24
ATOM     21  C   UNL     1      -3.475  10.937  17.927  0.00  0.00    +0.000 A 
ATOM     22  C   UNL     1      -2.766   9.781  17.592  0.00  0.00    +0.000 A 
ATOM     23  C   UNL     1      -1.409   9.671  17.900  0.00  0.00    +0.000 A 
ATOM     24  C   UNL     1      -0.720  10.724  18.531  0.00  0.00    +0.000 A 
ATOM     25  C   UNL     1      -1.443  11.886  18.856  0.00  0.00    +0.000 A 
ATOM     26  C   UNL     1      -2.812  11.990  18.567  0.00  0.00    +0.000 A 
BRANCH  21  28
ATOM     27  O   UNL     1      -5.752  10.588  18.457  0.00  0.00    +0.000 OA
ATOM     28  C   UNL     1      -4.933  10.950  17.635  0.00  0.00    +0.000 C 
BRANCH  28  29
ATOM     29  O   UNL     1      -5.245  11.375  16.395  0.00  0.00    +0.000 OA
ATOM     30  H   UNL     1      -6.186  11.364  16.154  0.00  0.00    +0.000 HD
ENDBRANCH  28  29
ENDBRANCH  21  28
ENDBRANCH  20  24
ENDBRANCH   1  20
TORSDOF 6
ENDMDL
MODEL 8
REMARK VINA RESULT:      -7.0      0.862      1.392
REMARK  Name = 
REMARK  6 active torsions:
REMARK  status: ('A' for Active; 'I' for Inactive)
REMARK    1  A    between atoms: C_2  and  O_3
REMARK    2  A    between atoms: C_2  and  C_4
REMARK    3  A    between atoms: C_7  and  C_8
REMARK    4  A    between atoms: C_8  and  N_9
REMARK    5  A    between atoms: C_10  and  C_11
REMARK    6  A    between atoms: N_20  and  C_21
REMARK                            x       y       z     vdW  Elec       q    Type
REMARK                         _______ _______ _______ _____ _____    ______ ____
ROOT
ATOM      1  N   UNL     1      -0.038  11.040  21.262  0.00  0.00    +0.000 N 
ATOM      2  C   UNL     1      -0.672  11.113  22.520  0.00  0.00    +0.000 A 
ATOM      3  C   UNL     1      -0.332  10.039  23.319  0.00  0.00    +0.000 A 
ATOM      4  S   UNL     1       0.739   8.961  22.548  0.00  0.00    +0.000 S 
ATOM      5  C   UNL     1       0.688   9.915  21.095  0.00  0.00    +0.000 A 
ATOM      6  N   UNL     1       1.374   9.619  19.984  0.00  0.00    +0.000 N 
ATOM      7  H   UNL     1       1.768  10.427  19.519  0.00  0.00    +0.000 HD
ENDROOT
BRANCH   2   8
ATOM      8  C   UNL     1      -1.580  12.157  23.032  0.00  0.00    +0.000 A 
ATOM      9  C   UNL     1      -2.881  11.827  23.453  0.00  0.00    +0.000 A 
ATOM     10  C   UNL     1      -3.740  12.802  23.977  0.00  0.00    +0.000 A 
ATOM     11  C   UNL     1      -3.329  14.127  24.062  0.00  0.00    +0.000 A 
ATOM     12  C   UNL     1      -2.046  14.473  23.661  0.00  0.00    +0.000 A 
ATOM     13  C   UNL     1      -1.179  13.490  23.183  0.00  0.00    +0.000 A 
ENDBRANCH   2   8
BRANCH   6  14
ATOM     14  C   UNL     1       1.729   8.374  19.539  0.00  0.00    +0.000 A 
ATOM     15  C   UNL     1       2.181   8.144  18.230  0.00  0.00    +0.000 A 
ATOM     16  C   UNL     1       2.520   6.861  17.796  0.00  0.00    +0.000 A 
ATOM     17  C   UNL     1       2.436   5.786  18.674  0.00  0.00    +0.000 A 
ATOM     18  C   UNL     1       2.033   6.001  19.990  0.00  0.00    +0.000 A 
ATOM     19  C   UNL     1       1.695   7.289  20.423  0.00  0.00    +0.000 A 
ENDBRANCH   6  14
BRANCH   1  20
ATOM     20  C   UNL     1      -0.256  12.044  20.214  0.00  0.00    +0.000 C 
BRANCH  20  24
ATOM     21  C   UNL     1      -4.110  11.285  18.354  0.00  0.00    +0.000 A 
ATOM     22  C   UNL     1      -3.991  12.287  19.320  0.00  0.00    +0.000 A 
ATOM     23  C   UNL     1      -2.751  12.570  19.895  0.00  0.00    +0.000 A 
ATOM     24  C   UNL     1      -1.602  11.841  19.536  0.00  0.00    +0.000 A 
ATOM     25  C   UNL     1      -1.736  10.829  18.568  0.00  0.00    +0.000 A 
ATOM     26  C   UNL     1      -2.977  10.558  17.973  0.00  0.00    +0.000 A 
BRANCH  21  28
ATOM     27  O   UNL     1      -6.386  10.647  18.362  0.00  0.00    +0.000 OA
ATOM     28  C   UNL     1      -5.447  11.093  17.733  0.00  0.00    +0.000 C 
BRANCH  28  29
ATOM     29  O   UNL     1      -5.507  11.436  16.431  0.00  0.00    +0.000 OA
ATOM     30  H   UNL     1      -5.425  12.381  16.224  0.00  0.00    +0.000 HD
ENDBRANCH  28  29
ENDBRANCH  21  28
ENDBRANCH  20  24
ENDBRANCH   1  20
TORSDOF 6
ENDMDL
MODEL 9
REMARK VINA RESULT:      -6.9      0.840      1.790
REMARK  Name = 
REMARK  6 active torsions:
REMARK  status: ('A' for Active; 'I' for Inactive)
REMARK    1  A    between atoms: C_2  and  O_3
REMARK    2  A    between atoms: C_2  and  C_4
REMARK    3  A    between atoms: C_7  and  C_8
REMARK    4  A    between atoms: C_8  and  N_9
REMARK    5  A    between atoms: C_10  and  C_11
REMARK    6  A    between atoms: N_20  and  C_21
REMARK                            x       y       z     vdW  Elec       q    Type
REMARK                         _______ _______ _______ _____ _____    ______ ____
ROOT
ATOM      1  N   UNL     1       0.139  10.879  21.204  0.00  0.00    +0.000 N 
ATOM      2  C   UNL     1      -0.584  11.050  22.403  0.00  0.00    +0.000 A 
ATOM      3  C   UNL     1      -0.395   9.984  23.261  0.00  0.00    +0.000 A 
ATOM      4  S   UNL     1       0.643   8.797  22.615  0.00  0.00    +0.000 S 
ATOM      5  C   UNL     1       0.782   9.696  21.132  0.00  0.00    +0.000 A 
ATOM      6  N   UNL     1       1.527   9.305  20.092  0.00  0.00    +0.000 N 
ATOM      7  H   UNL     1       2.020  10.061  19.635  0.00  0.00    +0.000 HD
ENDROOT
BRANCH   2   8
ATOM      8  C   UNL     1      -1.442  12.180  22.807  0.00  0.00    +0.000 A 
ATOM      9  C   UNL     1      -0.886  13.450  23.045  0.00  0.00    +0.000 A 
ATOM     10  C   UNL     1      -1.693  14.540  23.392  0.00  0.00    +0.000 A 
ATOM     11  C   UNL     1      -3.066  14.377  23.539  0.00  0.00    +0.000 A 
ATOM     12  C   UNL     1      -3.638  13.135  23.300  0.00  0.00    +0.000 A 
ATOM     13  C   UNL     1      -2.834  12.064  22.909  0.00  0.00    +0.000 A 
ENDBRANCH   2   8
BRANCH   6  14
ATOM     14  C   UNL     1       1.815   8.020  19.717  0.00  0.00    +0.000 A 
ATOM     15  C   UNL     1       2.301   7.700  18.439  0.00  0.00    +0.000 A 
ATOM     16  C   UNL     1       2.569   6.378  18.076  0.00  0.00    +0.000 A 
ATOM     17  C   UNL     1       2.379   5.354  18.996  0.00  0.00    +0.000 A 
ATOM     18  C   UNL     1       1.939   5.656  20.283  0.00  0.00    +0.000 A 
ATOM     19  C   UNL     1       1.672   6.982  20.646  0.00  0.00    +0.000 A 
ENDBRANCH   6  14
BRANCH   1  20
ATOM     20  C   UNL     1       0.086  11.857  20.110  0.00  0.00    +0.000 C 
BRANCH  20  24
ATOM     21  C   UNL     1      -3.213  11.195  17.360  0.00  0.00    +0.000 A 
ATOM     22  C   UNL     1      -2.018  10.492  17.191  0.00  0.00    +0.000 A 
ATOM     23  C   UNL     1      -0.966  10.663  18.092  0.00  0.00    +0.000 A 
ATOM     24  C   UNL     1      -1.072  11.561  19.171  0.00  0.00    +0.000 A 
ATOM     25  C   UNL     1      -2.278  12.269  19.325  0.00  0.00    +0.000 A 
ATOM     26  C   UNL     1      -3.345  12.082  18.434  0.00  0.00    +0.000 A 
BRANCH  21  28
ATOM     27  O   UNL     1      -4.103  10.404  15.318  0.00  0.00    +0.000 OA
ATOM     28  C   UNL     1      -4.315  10.903  16.405  0.00  0.00    +0.000 C 
BRANCH  28  29
ATOM     29  O   UNL     1      -5.538  11.256  16.847  0.00  0.00    +0.000 OA
ATOM     30  H   UNL     1      -5.679  12.199  17.037  0.00  0.00    +0.000 HD
ENDBRANCH  28  29
ENDBRANCH  21  28
ENDBRANCH  20  24
ENDBRANCH   1  20
TORSDOF 6
ENDMDL
