MODEL 1
REMARK VINA RESULT:      -8.5      0.000      0.000
REMARK  Name = 
REMARK  5 active torsions:
REMARK  status: ('A' for Active; 'I' for Inactive)
REMARK    1  A    between atoms: C_2  and  C_25
REMARK    2  A    between atoms: N_3  and  C_4
REMARK    3  A    between atoms: N_15  and  C_16
REMARK    4  A    between atoms: C_16  and  C_17
REMARK    5  A    between atoms: C_21  and  O_22
REMARK                            x       y       z     vdW  Elec       q    Type
REMARK                         _______ _______ _______ _____ _____    ______ ____
ROOT
ATOM      1  C   UNL     1       0.948  10.586  20.184  0.00  0.00    +0.000 A 
ATOM      2  C   UNL     1       0.039  10.503  21.222  0.00  0.00    +0.000 A 
ATOM      3  C   UNL     1      -0.193   9.259  21.776  0.00  0.00    +0.000 A 
ATOM      4  N   UNL     1       0.422   8.126  21.373  0.00  0.00    +0.000 NA
ATOM      5  C   UNL     1       1.306   8.198  20.355  0.00  0.00    +0.000 A 
ATOM      6  N   UNL     1       1.953   7.062  19.985  0.00  0.00    +0.000 N 
ATOM      7  C   UNL     1       1.763   5.779  20.681  0.00  0.00    +0.000 C 
ATOM      8  C   UNL     1       2.442   4.788  19.672  0.00  0.00    +0.000 C 
ATOM      9  C   UNL     1       1.978   5.405  18.354  0.00  0.00    +0.000 C 
ATOM     10  C   UNL     1       2.585   6.765  18.694  0.00  0.00    +0.000 C 
ATOM     11  C   UNL     1       4.050   6.350  18.975  0.00  0.00    +0.000 C 
ATOM     12  N   UNL     1       3.922   5.029  19.671  0.00  0.00    +0.000 NA
ATOM     13  C   UNL     1       1.570   9.419  19.738  0.00  0.00    +0.000 A 
ENDROOT
BRANCH   1  16
ATOM     14  O   UNL     1       2.281  12.969  21.295  0.00  0.00    +0.000 OA
ATOM     15  C   UNL     1       1.902  12.883  20.132  0.00  0.00    +0.000 C 
ATOM     16  N   UNL     1       1.301  11.794  19.538  0.00  0.00    +0.000 N 
ATOM     17  H   UNL     1       1.227  11.800  18.533  0.00  0.00    +0.000 HD
BRANCH  15  18
ATOM     18  C   UNL     1       2.152  14.041  19.234  0.00  0.00    +0.000 A 
ATOM     19  C   UNL     1       3.305  14.026  18.436  0.00  0.00    +0.000 A 
ATOM     20  C   UNL     1       3.611  15.122  17.630  0.00  0.00    +0.000 A 
ATOM     21  C   UNL     1       2.768  16.226  17.630  0.00  0.00    +0.000 A 
ATOM     22  F   UNL     1       3.075  17.290  16.877  0.00  0.00    +0.000 F 
ATOM     23  C   UNL     1       1.617  16.254  18.415  0.00  0.00    +0.000 A 
ATOM     24  C   UNL     1       1.303  15.157  19.221  0.00  0.00    +0.000 A 
ENDBRANCH  15  18
ENDBRANCH   1  16
BRANCH  12  25
ATOM     25  C   UNL     1       4.697   3.993  18.983  0.00  0.00    +0.000 C 
BRANCH  25  26
ATOM     26  C   UNL     1       5.270   4.435  17.654  0.00  0.00    +0.000 A 
ATOM     27  C   UNL     1       4.820   3.867  16.453  0.00  0.00    +0.000 A 
ATOM     28  C   UNL     1       5.406   4.224  15.235  0.00  0.00    +0.000 A 
ATOM     29  C   UNL     1       6.433   5.167  15.201  0.00  0.00    +0.000 A 
ATOM     30  C   UNL     1       6.856   5.757  16.388  0.00  0.00    +0.000 A 
ATOM     31  C   UNL     1       6.291   5.395  17.608  0.00  0.00    +0.000 A 
BRANCH  30  32
ATOM     32  O   UNL     1       7.837   6.703  16.400  0.00  0.00    +0.000 OA
ATOM     33  H   UNL     1       7.887   7.080  17.293  0.00  0.00    +0.000 HD
ENDBRANCH  30  32
ENDBRANCH  25  26
ENDBRANCH  12  25
TORSDOF 5
ENDMDL
MODEL 2
REMARK VINA RESULT:      -8.5      4.155      9.439
REMARK  Name = 
REMARK  5 active torsions:
REMARK  status: ('A' for Active; 'I' for Inactive)
REMARK    1  A    between atoms: C_2  and  C_25
REMARK    2  A    between atoms: N_3  and  C_4
REMARK    3  A    between atoms: N_15  and  C_16
REMARK    4  A    between atoms: C_16  and  C_17
REMARK    5  A    between atoms: C_21  and  O_22
REMARK                            x       y       z     vdW  Elec       q    Type
REMARK                         _______ _______ _______ _____ _____    ______ ____
ROOT
ATOM      1  C   UNL     1       3.210   5.718  18.638  0.00  0.00    +0.000 A 
ATOM      2  C   UNL     1       3.140   4.874  19.731  0.00  0.00    +0.000 A 
ATOM      3  C   UNL     1       2.403   5.295  20.822  0.00  0.00    +0.000 A 
ATOM      4  N   UNL     1       1.743   6.472  20.879  0.00  0.00    +0.000 NA
ATOM      5  C   UNL     1       1.814   7.304  19.819  0.00  0.00    +0.000 A 
ATOM      6  N   UNL     1       1.111   8.467  19.866  0.00  0.00    +0.000 N 
ATOM      7  C   UNL     1       0.245   8.822  21.001  0.00  0.00    +0.000 C 
ATOM      8  C   UNL     1      -0.026  10.339  20.707  0.00  0.00    +0.000 C 
ATOM      9  C   UNL     1       1.355  10.754  20.203  0.00  0.00    +0.000 C 
ATOM     10  C   UNL     1       1.350   9.696  19.102  0.00  0.00    +0.000 C 
ATOM     11  C   UNL     1       0.032  10.060  18.376  0.00  0.00    +0.000 C 
ATOM     12  N   UNL     1      -0.893  10.454  19.488  0.00  0.00    +0.000 NA
ATOM     13  C   UNL     1       2.556   6.950  18.694  0.00  0.00    +0.000 A 
ENDROOT
BRANCH   1  16
ATOM     14  O   UNL     1       6.115   5.670  18.140  0.00  0.00    +0.000 OA
ATOM     15  C   UNL     1       5.275   5.434  17.280  0.00  0.00    +0.000 C 
ATOM     16  N   UNL     1       3.906   5.409  17.446  0.00  0.00    +0.000 N 
ATOM     17  H   UNL     1       3.359   5.008  16.701  0.00  0.00    +0.000 HD
BRANCH  15  18
ATOM     18  C   UNL     1       5.757   5.084  15.918  0.00  0.00    +0.000 A 
ATOM     19  C   UNL     1       4.915   4.328  15.089  0.00  0.00    +0.000 A 
ATOM     20  C   UNL     1       5.356   3.922  13.830  0.00  0.00    +0.000 A 
ATOM     21  C   UNL     1       6.634   4.270  13.409  0.00  0.00    +0.000 A 
ATOM     22  F   UNL     1       7.068   3.858  12.211  0.00  0.00    +0.000 F 
ATOM     23  C   UNL     1       7.479   5.025  14.220  0.00  0.00    +0.000 A 
ATOM     24  C   UNL     1       7.042   5.437  15.481  0.00  0.00    +0.000 A 
ENDBRANCH  15  18
ENDBRANCH   1  16
BRANCH  12  25
ATOM     25  C   UNL     1      -1.442  11.794  19.268  0.00  0.00    +0.000 C 
BRANCH  25  26
ATOM     26  C   UNL     1      -2.828  11.798  18.661  0.00  0.00    +0.000 A 
ATOM     27  C   UNL     1      -3.931  12.266  19.391  0.00  0.00    +0.000 A 
ATOM     28  C   UNL     1      -5.219  12.197  18.853  0.00  0.00    +0.000 A 
ATOM     29  C   UNL     1      -5.418  11.678  17.574  0.00  0.00    +0.000 A 
ATOM     30  C   UNL     1      -4.321  11.246  16.836  0.00  0.00    +0.000 A 
ATOM     31  C   UNL     1      -3.036  11.294  17.369  0.00  0.00    +0.000 A 
BRANCH  30  32
ATOM     32  O   UNL     1      -4.464  10.758  15.571  0.00  0.00    +0.000 OA
ATOM     33  H   UNL     1      -4.847  11.457  15.015  0.00  0.00    +0.000 HD
ENDBRANCH  30  32
ENDBRANCH  25  26
ENDBRANCH  12  25
TORSDOF 5
ENDMDL
MODEL 3
REMARK VINA RESULT:      -8.3      4.254      9.404
REMARK  Name = 
REMARK  5 active torsions:
REMARK  status: ('A' for Active; 'I' for Inactive)
REMARK    1  A    between atoms: C_2  and  C_25
REMARK    2  A    between atoms: N_3  and  C_4
REMARK    3  A    between atoms: N_15  and  C_16
REMARK    4  A    between atoms: C_16  and  C_17
REMARK    5  A    between atoms: C_21  and  O_22
REMARK                            x       y       z     vdW  Elec       q    Type
REMARK                         _______ _______ _______ _____ _____    ______ ____
ROOT
ATOM      1  C   UNL     1       3.807   5.298  18.016  0.00  0.00    +0.000 A 
ATOM      2  C   UNL     1       3.775   4.518  19.158  0.00  0.00    +0.000 A 
ATOM      3  C   UNL     1       3.081   5.004  20.250  0.00  0.00    +0.000 A 
ATOM      4  N   UNL     1       2.427   6.185  20.264  0.00  0.00    +0.000 NA
ATOM      5  C   UNL     1       2.460   6.955  19.157  0.00  0.00    +0.000 A 
ATOM      6  N   UNL     1       1.762   8.122  19.164  0.00  0.00    +0.000 N 
ATOM      7  C   UNL     1       0.939   8.545  20.309  0.00  0.00    +0.000 C 
ATOM      8  C   UNL     1       0.661  10.044  19.939  0.00  0.00    +0.000 C 
ATOM      9  C   UNL     1       2.024  10.423  19.362  0.00  0.00    +0.000 C 
ATOM     10  C   UNL     1       1.975   9.305  18.323  0.00  0.00    +0.000 C 
ATOM     11  C   UNL     1       0.631   9.633  17.628  0.00  0.00    +0.000 C 
ATOM     12  N   UNL     1      -0.250  10.093  18.749  0.00  0.00    +0.000 NA
ATOM     13  C   UNL     1       3.159   6.534  18.027  0.00  0.00    +0.000 A 
ENDROOT
BRANCH   1  16
ATOM     14  O   UNL     1       5.877   6.737  16.490  0.00  0.00    +0.000 OA
ATOM     15  C   UNL     1       5.403   5.662  16.144  0.00  0.00    +0.000 C 
ATOM     16  N   UNL     1       4.457   4.920  16.819  0.00  0.00    +0.000 N 
ATOM     17  H   UNL     1       4.312   3.970  16.514  0.00  0.00    +0.000 HD
BRANCH  15  18
ATOM     18  C   UNL     1       5.922   5.046  14.894  0.00  0.00    +0.000 A 
ATOM     19  C   UNL     1       7.182   5.448  14.428  0.00  0.00    +0.000 A 
ATOM     20  C   UNL     1       7.675   4.945  13.225  0.00  0.00    +0.000 A 
ATOM     21  C   UNL     1       6.906   4.049  12.493  0.00  0.00    +0.000 A 
ATOM     22  F   UNL     1       7.368   3.585  11.325  0.00  0.00    +0.000 F 
ATOM     23  C   UNL     1       5.655   3.636  12.946  0.00  0.00    +0.000 A 
ATOM     24  C   UNL     1       5.157   4.133  14.153  0.00  0.00    +0.000 A 
ENDBRANCH  15  18
ENDBRANCH   1  16
BRANCH  12  25
ATOM     25  C   UNL     1      -0.804  11.422  18.473  0.00  0.00    +0.000 C 
BRANCH  25  26
ATOM     26  C   UNL     1      -2.241  11.402  18.000  0.00  0.00    +0.000 A 
ATOM     27  C   UNL     1      -3.280  11.840  18.835  0.00  0.00    +0.000 A 
ATOM     28  C   UNL     1      -4.611  11.749  18.420  0.00  0.00    +0.000 A 
ATOM     29  C   UNL     1      -4.919  11.237  17.160  0.00  0.00    +0.000 A 
ATOM     30  C   UNL     1      -3.888  10.835  16.317  0.00  0.00    +0.000 A 
ATOM     31  C   UNL     1      -2.560  10.905  16.728  0.00  0.00    +0.000 A 
BRANCH  30  32
ATOM     32  O   UNL     1      -4.140  10.355  15.066  0.00  0.00    +0.000 OA
ATOM     33  H   UNL     1      -3.650  10.897  14.426  0.00  0.00    +0.000 HD
ENDBRANCH  30  32
ENDBRANCH  25  26
ENDBRANCH  12  25
TORSDOF 5
ENDMDL
MODEL 4
REMARK VINA RESULT:      -8.3      4.254      9.608
REMARK  Name = 
REMARK  5 active torsions:
REMARK  status: ('A' for Active; 'I' for Inactive)
REMARK    1  A    between atoms: C_2  and  C_25
REMARK    2  A    between atoms: N_3  and  C_4
REMARK    3  A    between atoms: N_15  and  C_16
REMARK    4  A    between atoms: C_16  and  C_17
REMARK    5  A    between atoms: C_21  and  O_22
REMARK                            x       y       z     vdW  Elec       q    Type
REMARK                         _______ _______ _______ _____ _____    ______ ____
ROOT
ATOM      1  C   UNL     1       3.895   5.468  17.757  0.00  0.00    +0.000 A 
ATOM      2  C   UNL     1       3.929   4.677  18.891  0.00  0.00    +0.000 A 
ATOM      3  C   UNL     1       3.260   5.131  20.012  0.00  0.00    +0.000 A 
ATOM      4  N   UNL     1       2.570   6.291  20.062  0.00  0.00    +0.000 NA
ATOM      5  C   UNL     1       2.540   7.072  18.961  0.00  0.00    +0.000 A 
ATOM      6  N   UNL     1       1.807   8.216  19.005  0.00  0.00    +0.000 N 
ATOM      7  C   UNL     1       1.014   8.604  20.183  0.00  0.00    +0.000 C 
ATOM      8  C   UNL     1       0.676  10.097  19.838  0.00  0.00    +0.000 C 
ATOM      9  C   UNL     1       2.005  10.523  19.217  0.00  0.00    +0.000 C 
ATOM     10  C   UNL     1       1.953   9.413  18.169  0.00  0.00    +0.000 C 
ATOM     11  C   UNL     1       0.576   9.705  17.526  0.00  0.00    +0.000 C 
ATOM     12  N   UNL     1      -0.279  10.128  18.683  0.00  0.00    +0.000 NA
ATOM     13  C   UNL     1       3.210   6.683  17.804  0.00  0.00    +0.000 A 
ENDROOT
BRANCH   1  16
ATOM     14  O   UNL     1       6.597   6.131  16.785  0.00  0.00    +0.000 OA
ATOM     15  C   UNL     1       5.779   5.492  16.134  0.00  0.00    +0.000 C 
ATOM     16  N   UNL     1       4.513   5.121  16.534  0.00  0.00    +0.000 N 
ATOM     17  H   UNL     1       4.035   4.433  15.972  0.00  0.00    +0.000 HD
BRANCH  15  18
ATOM     18  C   UNL     1       6.189   5.010  14.788  0.00  0.00    +0.000 A 
ATOM     19  C   UNL     1       5.389   4.046  14.156  0.00  0.00    +0.000 A 
ATOM     20  C   UNL     1       5.774   3.519  12.924  0.00  0.00    +0.000 A 
ATOM     21  C   UNL     1       6.955   3.953  12.334  0.00  0.00    +0.000 A 
ATOM     22  F   UNL     1       7.339   3.428  11.163  0.00  0.00    +0.000 F 
ATOM     23  C   UNL     1       7.756   4.913  12.948  0.00  0.00    +0.000 A 
ATOM     24  C   UNL     1       7.374   5.448  14.181  0.00  0.00    +0.000 A 
ENDBRANCH  15  18
ENDBRANCH   1  16
BRANCH  12  25
ATOM     25  C   UNL     1      -0.883  11.441  18.440  0.00  0.00    +0.000 C 
BRANCH  25  26
ATOM     26  C   UNL     1      -2.310  11.378  17.942  0.00  0.00    +0.000 A 
ATOM     27  C   UNL     1      -2.595  10.987  16.625  0.00  0.00    +0.000 A 
ATOM     28  C   UNL     1      -3.908  11.004  16.148  0.00  0.00    +0.000 A 
ATOM     29  C   UNL     1      -4.953  11.393  16.985  0.00  0.00    +0.000 A 
ATOM     30  C   UNL     1      -4.676  11.747  18.301  0.00  0.00    +0.000 A 
ATOM     31  C   UNL     1      -3.369  11.751  18.781  0.00  0.00    +0.000 A 
BRANCH  30  32
ATOM     32  O   UNL     1      -5.668  12.107  19.164  0.00  0.00    +0.000 OA
ATOM     33  H   UNL     1      -6.007  11.304  19.593  0.00  0.00    +0.000 HD
ENDBRANCH  30  32
ENDBRANCH  25  26
ENDBRANCH  12  25
TORSDOF 5
ENDMDL
MODEL 5
REMARK VINA RESULT:      -8.3      4.173      9.584
REMARK  Name = 
REMARK  5 active torsions:
REMARK  status: ('A' for Active; 'I' for Inactive)
REMARK    1  A    between atoms: C_2  and  C_25
REMARK    2  A    between atoms: N_3  and  C_4
REMARK    3  A    between atoms: N_15  and  C_16
REMARK    4  A    between atoms: C_16  and  C_17
REMARK    5  A    between atoms: C_21  and  O_22
REMARK                            x       y       z     vdW  Elec       q    Type
REMARK                         _______ _______ _______ _____ _____    ______ ____
ROOT
ATOM      1  C   UNL     1       3.540   5.588  18.181  0.00  0.00    +0.000 A 
ATOM      2  C   UNL     1       3.520   4.810  19.324  0.00  0.00    +0.000 A 
ATOM      3  C   UNL     1       2.814   5.286  20.413  0.00  0.00    +0.000 A 
ATOM      4  N   UNL     1       2.138   6.455  20.423  0.00  0.00    +0.000 NA
ATOM      5  C   UNL     1       2.159   7.222  19.313  0.00  0.00    +0.000 A 
ATOM      6  N   UNL     1       1.439   8.376  19.316  0.00  0.00    +0.000 N 
ATOM      7  C   UNL     1       0.606   8.786  20.458  0.00  0.00    +0.000 C 
ATOM      8  C   UNL     1       0.301  10.279  20.083  0.00  0.00    +0.000 C 
ATOM      9  C   UNL     1       1.658  10.682  19.509  0.00  0.00    +0.000 C 
ATOM     10  C   UNL     1       1.633   9.560  18.472  0.00  0.00    +0.000 C 
ATOM     11  C   UNL     1       0.285   9.862  17.773  0.00  0.00    +0.000 C 
ATOM     12  N   UNL     1      -0.608  10.308  18.891  0.00  0.00    +0.000 NA
ATOM     13  C   UNL     1       2.869   6.812  18.187  0.00  0.00    +0.000 A 
ENDROOT
BRANCH   1  16
ATOM     14  O   UNL     1       6.411   5.716  17.527  0.00  0.00    +0.000 OA
ATOM     15  C   UNL     1       5.552   5.332  16.742  0.00  0.00    +0.000 C 
ATOM     16  N   UNL     1       4.200   5.219  16.986  0.00  0.00    +0.000 N 
ATOM     17  H   UNL     1       3.652   4.706  16.313  0.00  0.00    +0.000 HD
BRANCH  15  18
ATOM     18  C   UNL     1       5.995   4.889  15.393  0.00  0.00    +0.000 A 
ATOM     19  C   UNL     1       7.233   5.346  14.917  0.00  0.00    +0.000 A 
ATOM     20  C   UNL     1       7.654   5.008  13.631  0.00  0.00    +0.000 A 
ATOM     21  C   UNL     1       6.836   4.222  12.829  0.00  0.00    +0.000 A 
ATOM     22  F   UNL     1       7.228   3.920  11.585  0.00  0.00    +0.000 F 
ATOM     23  C   UNL     1       5.606   3.758  13.290  0.00  0.00    +0.000 A 
ATOM     24  C   UNL     1       5.181   4.089  14.579  0.00  0.00    +0.000 A 
ENDBRANCH  15  18
ENDBRANCH   1  16
BRANCH  12  25
ATOM     25  C   UNL     1      -1.186  11.626  18.611  0.00  0.00    +0.000 C 
BRANCH  25  26
ATOM     26  C   UNL     1      -2.643  11.584  18.205  0.00  0.00    +0.000 A 
ATOM     27  C   UNL     1      -3.021  11.162  16.922  0.00  0.00    +0.000 A 
ATOM     28  C   UNL     1      -4.361  11.198  16.528  0.00  0.00    +0.000 A 
ATOM     29  C   UNL     1      -5.341  11.636  17.418  0.00  0.00    +0.000 A 
ATOM     30  C   UNL     1      -4.972  12.022  18.702  0.00  0.00    +0.000 A 
ATOM     31  C   UNL     1      -3.638  12.007  19.098  0.00  0.00    +0.000 A 
BRANCH  30  32
ATOM     32  O   UNL     1      -5.899  12.430  19.615  0.00  0.00    +0.000 OA
ATOM     33  H   UNL     1      -5.432  12.789  20.386  0.00  0.00    +0.000 HD
ENDBRANCH  30  32
ENDBRANCH  25  26
ENDBRANCH  12  25
TORSDOF 5
ENDMDL
MODEL 6
REMARK VINA RESULT:      -8.3      0.783      1.158
REMARK  Name = 
REMARK  5 active torsions:
REMARK  status: ('A' for Active; 'I' for Inactive)
REMARK    1  A    between atoms: C_2  and  C_25
REMARK    2  A    between atoms: N_3  and  C_4
REMARK    3  A    between atoms: N_15  and  C_16
REMARK    4  A    between atoms: C_16  and  C_17
REMARK    5  A    between atoms: C_21  and  O_22
REMARK                            x       y       z     vdW  Elec       q    Type
REMARK                         _______ _______ _______ _____ _____    ______ ____
ROOT
ATOM      1  C   UNL     1       0.956  10.509  20.210  0.00  0.00    +0.000 A 
ATOM      2  C   UNL     1       0.045  10.434  21.248  0.00  0.00    +0.000 A 
ATOM      3  C   UNL     1      -0.196   9.192  21.803  0.00  0.00    +0.000 A 
ATOM      4  N   UNL     1       0.409   8.054  21.400  0.00  0.00    +0.000 NA
ATOM      5  C   UNL     1       1.294   8.118  20.383  0.00  0.00    +0.000 A 
ATOM      6  N   UNL     1       1.932   6.976  20.013  0.00  0.00    +0.000 N 
ATOM      7  C   UNL     1       1.731   5.696  20.709  0.00  0.00    +0.000 C 
ATOM      8  C   UNL     1       2.403   4.699  19.701  0.00  0.00    +0.000 C 
ATOM      9  C   UNL     1       1.944   5.319  18.383  0.00  0.00    +0.000 C 
ATOM     10  C   UNL     1       2.562   6.674  18.723  0.00  0.00    +0.000 C 
ATOM     11  C   UNL     1       4.023   6.247  19.004  0.00  0.00    +0.000 C 
ATOM     12  N   UNL     1       3.885   4.928  19.701  0.00  0.00    +0.000 NA
ATOM     13  C   UNL     1       1.568   9.336  19.765  0.00  0.00    +0.000 A 
ENDROOT
BRANCH   1  16
ATOM     14  O   UNL     1       2.237  12.912  21.337  0.00  0.00    +0.000 OA
ATOM     15  C   UNL     1       1.894  12.812  20.166  0.00  0.00    +0.000 C 
ATOM     16  N   UNL     1       1.318  11.713  19.564  0.00  0.00    +0.000 N 
ATOM     17  H   UNL     1       1.274  11.710  18.556  0.00  0.00    +0.000 HD
BRANCH  15  18
ATOM     18  C   UNL     1       2.162  13.964  19.264  0.00  0.00    +0.000 A 
ATOM     19  C   UNL     1       3.288  13.907  18.430  0.00  0.00    +0.000 A 
ATOM     20  C   UNL     1       3.612  14.994  17.619  0.00  0.00    +0.000 A 
ATOM     21  C   UNL     1       2.814  16.131  17.651  0.00  0.00    +0.000 A 
ATOM     22  F   UNL     1       3.139  17.186  16.892  0.00  0.00    +0.000 F 
ATOM     23  C   UNL     1       1.690  16.201  18.471  0.00  0.00    +0.000 A 
ATOM     24  C   UNL     1       1.358  15.113  19.282  0.00  0.00    +0.000 A 
ENDBRANCH  15  18
ENDBRANCH   1  16
BRANCH  12  25
ATOM     25  C   UNL     1       4.652   3.885  19.014  0.00  0.00    +0.000 C 
BRANCH  25  26
ATOM     26  C   UNL     1       5.453   4.389  17.833  0.00  0.00    +0.000 A 
ATOM     27  C   UNL     1       6.601   5.172  18.025  0.00  0.00    +0.000 A 
ATOM     28  C   UNL     1       7.293   5.697  16.931  0.00  0.00    +0.000 A 
ATOM     29  C   UNL     1       6.858   5.432  15.633  0.00  0.00    +0.000 A 
ATOM     30  C   UNL     1       5.740   4.628  15.441  0.00  0.00    +0.000 A 
ATOM     31  C   UNL     1       5.033   4.114  16.524  0.00  0.00    +0.000 A 
BRANCH  30  32
ATOM     32  O   UNL     1       5.295   4.319  14.190  0.00  0.00    +0.000 OA
ATOM     33  H   UNL     1       4.860   5.103  13.817  0.00  0.00    +0.000 HD
ENDBRANCH  30  32
ENDBRANCH  25  26
ENDBRANCH  12  25
TORSDOF 5
ENDMDL
MODEL 7
REMARK VINA RESULT:      -8.2      4.176      9.612
REMARK  Name = 
REMARK  5 active torsions:
REMARK  status: ('A' for Active; 'I' for Inactive)
REMARK    1  A    between atoms: C_2  and  C_25
REMARK    2  A    between atoms: N_3  and  C_4
REMARK    3  A    between atoms: N_15  and  C_16
REMARK    4  A    between atoms: C_16  and  C_17
REMARK    5  A    between atoms: C_21  and  O_22
REMARK                            x       y       z     vdW  Elec       q    Type
REMARK                         _______ _______ _______ _____ _____    ______ ____
ROOT
ATOM      1  C   UNL     1       3.339   5.991  18.807  0.00  0.00    +0.000 A 
ATOM      2  C   UNL     1       3.201   5.105  19.860  0.00  0.00    +0.000 A 
ATOM      3  C   UNL     1       2.339   5.452  20.883  0.00  0.00    +0.000 A 
ATOM      4  N   UNL     1       1.621   6.595  20.911  0.00  0.00    +0.000 NA
ATOM      5  C   UNL     1       1.757   7.468  19.891  0.00  0.00    +0.000 A 
ATOM      6  N   UNL     1       0.997   8.595  19.904  0.00  0.00    +0.000 N 
ATOM      7  C   UNL     1       0.005   8.869  20.957  0.00  0.00    +0.000 C 
ATOM      8  C   UNL     1      -0.309  10.382  20.685  0.00  0.00    +0.000 C 
ATOM      9  C   UNL     1       1.094  10.877  20.339  0.00  0.00    +0.000 C 
ATOM     10  C   UNL     1       1.251   9.862  19.208  0.00  0.00    +0.000 C 
ATOM     11  C   UNL     1      -0.005  10.193  18.365  0.00  0.00    +0.000 C 
ATOM     12  N   UNL     1      -1.054  10.503  19.390  0.00  0.00    +0.000 NA
ATOM     13  C   UNL     1       2.624   7.189  18.837  0.00  0.00    +0.000 A 
ENDROOT
BRANCH   1  16
ATOM     14  O   UNL     1       3.790   3.488  17.317  0.00  0.00    +0.000 OA
ATOM     15  C   UNL     1       4.348   4.547  17.051  0.00  0.00    +0.000 C 
ATOM     16  N   UNL     1       4.165   5.759  17.683  0.00  0.00    +0.000 N 
ATOM     17  H   UNL     1       4.541   6.576  17.229  0.00  0.00    +0.000 HD
BRANCH  15  18
ATOM     18  C   UNL     1       5.286   4.565  15.898  0.00  0.00    +0.000 A 
ATOM     19  C   UNL     1       6.466   5.315  16.014  0.00  0.00    +0.000 A 
ATOM     20  C   UNL     1       7.341   5.413  14.932  0.00  0.00    +0.000 A 
ATOM     21  C   UNL     1       7.029   4.767  13.742  0.00  0.00    +0.000 A 
ATOM     22  F   UNL     1       7.855   4.882  12.694  0.00  0.00    +0.000 F 
ATOM     23  C   UNL     1       5.863   4.015  13.614  0.00  0.00    +0.000 A 
ATOM     24  C   UNL     1       4.985   3.910  14.696  0.00  0.00    +0.000 A 
ENDBRANCH  15  18
ENDBRANCH   1  16
BRANCH  12  25
ATOM     25  C   UNL     1      -1.642  11.825  19.158  0.00  0.00    +0.000 C 
BRANCH  25  26
ATOM     26  C   UNL     1      -3.048  11.782  18.600  0.00  0.00    +0.000 A 
ATOM     27  C   UNL     1      -3.289  11.339  17.291  0.00  0.00    +0.000 A 
ATOM     28  C   UNL     1      -4.580  11.373  16.756  0.00  0.00    +0.000 A 
ATOM     29  C   UNL     1      -5.646  11.832  17.528  0.00  0.00    +0.000 A 
ATOM     30  C   UNL     1      -5.414  12.239  18.838  0.00  0.00    +0.000 A 
ATOM     31  C   UNL     1      -4.130  12.225  19.374  0.00  0.00    +0.000 A 
BRANCH  30  32
ATOM     32  O   UNL     1      -6.431  12.668  19.638  0.00  0.00    +0.000 OA
ATOM     33  H   UNL     1      -6.063  13.272  20.303  0.00  0.00    +0.000 HD
ENDBRANCH  30  32
ENDBRANCH  25  26
ENDBRANCH  12  25
TORSDOF 5
ENDMDL
MODEL 8
REMARK VINA RESULT:      -8.2      4.125      9.679
REMARK  Name = 
REMARK  5 active torsions:
REMARK  status: ('A' for Active; 'I' for Inactive)
REMARK    1  A    between atoms: C_2  and  C_25
REMARK    2  A    between atoms: N_3  and  C_4
REMARK    3  A    between atoms: N_15  and  C_16
REMARK    4  A    between atoms: C_16  and  C_17
REMARK    5  A    between atoms: C_21  and  O_22
REMARK                            x       y       z     vdW  Elec       q    Type
REMARK                         _______ _______ _______ _____ _____    ______ ____
ROOT
ATOM      1  C   UNL     1       3.042   5.896  18.796  0.00  0.00    +0.000 A 
ATOM      2  C   UNL     1       2.929   5.019  19.859  0.00  0.00    +0.000 A 
ATOM      3  C   UNL     1       2.140   5.402  20.928  0.00  0.00    +0.000 A 
ATOM      4  N   UNL     1       1.469   6.572  20.990  0.00  0.00    +0.000 NA
ATOM      5  C   UNL     1       1.582   7.437  19.960  0.00  0.00    +0.000 A 
ATOM      6  N   UNL     1       0.868   8.593  20.010  0.00  0.00    +0.000 N 
ATOM      7  C   UNL     1      -0.051   8.908  21.115  0.00  0.00    +0.000 C 
ATOM      8  C   UNL     1      -0.320  10.432  20.854  0.00  0.00    +0.000 C 
ATOM      9  C   UNL     1       1.079  10.870  20.428  0.00  0.00    +0.000 C 
ATOM     10  C   UNL     1       1.133   9.847  19.295  0.00  0.00    +0.000 C 
ATOM     11  C   UNL     1      -0.154  10.224  18.522  0.00  0.00    +0.000 C 
ATOM     12  N   UNL     1      -1.132  10.578  19.602  0.00  0.00    +0.000 NA
ATOM     13  C   UNL     1       2.377   7.121  18.860  0.00  0.00    +0.000 A 
ENDROOT
BRANCH   1  16
ATOM     14  O   UNL     1       5.720   4.690  18.545  0.00  0.00    +0.000 OA
ATOM     15  C   UNL     1       5.060   5.083  17.590  0.00  0.00    +0.000 C 
ATOM     16  N   UNL     1       3.794   5.629  17.629  0.00  0.00    +0.000 N 
ATOM     17  H   UNL     1       3.305   5.721  16.752  0.00  0.00    +0.000 HD
BRANCH  15  18
ATOM     18  C   UNL     1       5.641   4.920  16.231  0.00  0.00    +0.000 A 
ATOM     19  C   UNL     1       4.887   4.240  15.263  0.00  0.00    +0.000 A 
ATOM     20  C   UNL     1       5.423   4.006  13.998  0.00  0.00    +0.000 A 
ATOM     21  C   UNL     1       6.708   4.449  13.708  0.00  0.00    +0.000 A 
ATOM     22  F   UNL     1       7.234   4.202  12.501  0.00  0.00    +0.000 F 
ATOM     23  C   UNL     1       7.467   5.130  14.658  0.00  0.00    +0.000 A 
ATOM     24  C   UNL     1       6.934   5.370  15.927  0.00  0.00    +0.000 A 
ENDBRANCH  15  18
ENDBRANCH   1  16
BRANCH  12  25
ATOM     25  C   UNL     1      -1.680  11.921  19.397  0.00  0.00    +0.000 C 
BRANCH  25  26
ATOM     26  C   UNL     1      -3.132  11.933  18.970  0.00  0.00    +0.000 A 
ATOM     27  C   UNL     1      -3.519  11.415  17.726  0.00  0.00    +0.000 A 
ATOM     28  C   UNL     1      -4.850  11.497  17.305  0.00  0.00    +0.000 A 
ATOM     29  C   UNL     1      -5.810  12.081  18.129  0.00  0.00    +0.000 A 
ATOM     30  C   UNL     1      -5.434  12.565  19.378  0.00  0.00    +0.000 A 
ATOM     31  C   UNL     1      -4.108  12.503  19.799  0.00  0.00    +0.000 A 
BRANCH  30  32
ATOM     32  O   UNL     1      -6.344  13.118  20.229  0.00  0.00    +0.000 OA
ATOM     33  H   UNL     1      -5.876  13.416  21.026  0.00  0.00    +0.000 HD
ENDBRANCH  30  32
ENDBRANCH  25  26
ENDBRANCH  12  25
TORSDOF 5
ENDMDL
MODEL 9
REMARK VINA RESULT:      -8.2      0.880      1.239
REMARK  Name = 
REMARK  5 active torsions:
REMARK  status: ('A' for Active; 'I' for Inactive)
REMARK    1  A    between atoms: C_2  and  C_25
REMARK    2  A    between atoms: N_3  and  C_4
REMARK    3  A    between atoms: N_15  and  C_16
REMARK    4  A    between atoms: C_16  and  C_17
REMARK    5  A    between atoms: C_21  and  O_22
REMARK                            x       y       z     vdW  Elec       q    Type
REMARK                         _______ _______ _______ _____ _____    ______ ____
ROOT
ATOM      1  C   UNL     1       0.935  10.306  20.644  0.00  0.00    +0.000 A 
ATOM      2  C   UNL     1      -0.037  10.130  21.612  0.00  0.00    +0.000 A 
ATOM      3  C   UNL     1      -0.317   8.839  22.016  0.00  0.00    +0.000 A 
ATOM      4  N   UNL     1       0.308   7.744  21.532  0.00  0.00    +0.000 NA
ATOM      5  C   UNL     1       1.253   7.907  20.582  0.00  0.00    +0.000 A 
ATOM      6  N   UNL     1       1.909   6.804  20.132  0.00  0.00    +0.000 N 
ATOM      7  C   UNL     1       1.661   5.459  20.675  0.00  0.00    +0.000 C 
ATOM      8  C   UNL     1       2.389   4.567  19.609  0.00  0.00    +0.000 C 
ATOM      9  C   UNL     1       2.014   5.328  18.339  0.00  0.00    +0.000 C 
ATOM     10  C   UNL     1       2.615   6.633  18.857  0.00  0.00    +0.000 C 
ATOM     11  C   UNL     1       4.055   6.165  19.180  0.00  0.00    +0.000 C 
ATOM     12  N   UNL     1       3.869   4.780  19.723  0.00  0.00    +0.000 NA
ATOM     13  C   UNL     1       1.569   9.181  20.115  0.00  0.00    +0.000 A 
ENDROOT
BRANCH   1  16
ATOM     14  O   UNL     1      -0.386  12.041  18.662  0.00  0.00    +0.000 OA
ATOM     15  C   UNL     1       0.681  12.314  19.199  0.00  0.00    +0.000 C 
ATOM     16  N   UNL     1       1.341  11.568  20.153  0.00  0.00    +0.000 N 
ATOM     17  H   UNL     1       2.102  12.014  20.641  0.00  0.00    +0.000 HD
BRANCH  15  18
ATOM     18  C   UNL     1       1.327  13.604  18.840  0.00  0.00    +0.000 A 
ATOM     19  C   UNL     1       0.591  14.786  19.011  0.00  0.00    +0.000 A 
ATOM     20  C   UNL     1       1.136  16.010  18.624  0.00  0.00    +0.000 A 
ATOM     21  C   UNL     1       2.407  16.045  18.065  0.00  0.00    +0.000 A 
ATOM     22  F   UNL     1       2.921  17.217  17.669  0.00  0.00    +0.000 F 
ATOM     23  C   UNL     1       3.152  14.880  17.894  0.00  0.00    +0.000 A 
ATOM     24  C   UNL     1       2.613  13.651  18.283  0.00  0.00    +0.000 A 
ENDBRANCH  15  18
ENDBRANCH   1  16
BRANCH  12  25
ATOM     25  C   UNL     1       4.673   3.809  18.976  0.00  0.00    +0.000 C 
BRANCH  25  26
ATOM     26  C   UNL     1       5.243   4.348  17.682  0.00  0.00    +0.000 A 
ATOM     27  C   UNL     1       4.810   3.851  16.444  0.00  0.00    +0.000 A 
ATOM     28  C   UNL     1       5.394   4.299  15.256  0.00  0.00    +0.000 A 
ATOM     29  C   UNL     1       6.403   5.261  15.290  0.00  0.00    +0.000 A 
ATOM     30  C   UNL     1       6.809   5.779  16.515  0.00  0.00    +0.000 A 
ATOM     31  C   UNL     1       6.246   5.327  17.705  0.00  0.00    +0.000 A 
BRANCH  30  32
ATOM     32  O   UNL     1       7.772   6.741  16.595  0.00  0.00    +0.000 OA
ATOM     33  H   UNL     1       8.378   6.631  15.845  0.00  0.00    +0.000 HD
ENDBRANCH  30  32
ENDBRANCH  25  26
ENDBRANCH  12  25
TORSDOF 5
ENDMDL
