MODEL 1
REMARK VINA RESULT:      -8.2      0.000      0.000
REMARK  Name = 
REMARK  10 active torsions:
REMARK  status: ('A' for Active; 'I' for Inactive)
REMARK    1  A    between atoms: C_1  and  C_2
REMARK    2  A    between atoms: C_2  and  O_3
REMARK    3  A    between atoms: O_3  and  C_4
REMARK    4  A    between atoms: C_7  and  C_8
REMARK    5  A    between atoms: C_8  and  C_9
REMARK    6  A    between atoms: C_13  and  S_14
REMARK    7  A    between atoms: S_14  and  C_16
REMARK    8  A    between atoms: C_16  and  C_17
REMARK    9  A    between atoms: N_22  and  C_23
REMARK   10  A    between atoms: C_23  and  C_24
REMARK                            x       y       z     vdW  Elec       q    Type
REMARK                         _______ _______ _______ _____ _____    ______ ____
ROOT
ATOM      1  C   UNL     1       4.919   6.093  17.719  0.00  0.00    +0.000 A 
ATOM      2  N   UNL     1       4.357   7.145  17.154  0.00  0.00    +0.000 NA
ATOM      3  C   UNL     1       3.349   7.523  17.987  0.00  0.00    +0.000 A 
ATOM      4  C   UNL     1       2.462   8.604  17.833  0.00  0.00    +0.000 A 
ATOM      5  C   UNL     1       1.503   8.887  18.822  0.00  0.00    +0.000 A 
ATOM      6  C   UNL     1       1.469   8.070  19.967  0.00  0.00    +0.000 A 
ATOM      7 CL   UNL     1       0.387   8.364  21.288  0.00  0.00    +0.000 Cl
ATOM      8  C   UNL     1       2.329   6.946  20.113  0.00  0.00    +0.000 A 
ATOM      9  C   UNL     1       3.255   6.679  19.090  0.00  0.00    +0.000 A 
ATOM     10  N   UNL     1       4.185   5.678  18.830  0.00  0.00    +0.000 N 
ENDROOT
BRANCH   5  11
ATOM     11  S   UNL     1       0.312  10.173  18.374  0.00  0.00    +0.000 S 
ATOM     12  O   UNL     1      -0.980   9.926  19.228  0.00  0.00    +0.000 OA
BRANCH  11  13
ATOM     13  C   UNL     1       1.078  11.706  18.946  0.00  0.00    +0.000 C 
ATOM     14  C   UNL     1       1.076  11.866  20.451  0.00  0.00    +0.000 C 
ENDBRANCH  11  13
ENDBRANCH   5  11
BRANCH   1  15
ATOM     15  C   UNL     1       6.242   5.543  17.257  0.00  0.00    +0.000 C 
BRANCH  15  19
ATOM     16  C   UNL     1       6.434   4.043  13.187  0.00  0.00    +0.000 A 
ATOM     17  C   UNL     1       7.441   4.879  13.670  0.00  0.00    +0.000 A 
ATOM     18  C   UNL     1       7.396   5.370  14.981  0.00  0.00    +0.000 A 
ATOM     19  C   UNL     1       6.334   5.044  15.832  0.00  0.00    +0.000 A 
ATOM     20  C   UNL     1       5.381   4.122  15.371  0.00  0.00    +0.000 A 
ATOM     21  C   UNL     1       5.424   3.636  14.057  0.00  0.00    +0.000 A 
BRANCH  16  22
ATOM     22  O   UNL     1       6.336   3.571  11.902  0.00  0.00    +0.000 OA
BRANCH  22  24
ATOM     23  C   UNL     1       6.114   1.269  11.215  0.00  0.00    +0.000 C 
ATOM     24  C   UNL     1       5.395   2.516  11.696  0.00  0.00    +0.000 C 
ENDBRANCH  22  24
ENDBRANCH  16  22
ENDBRANCH  15  19
ENDBRANCH   1  15
BRANCH  10  25
ATOM     25  C   UNL     1       4.101   4.307  19.340  0.00  0.00    +0.000 C 
BRANCH  25  26
ATOM     26  C   UNL     1       3.625   3.180  18.387  0.00  0.00    +0.000 C 
ATOM     27  C   UNL     1       3.148   1.907  19.108  0.00  0.00    +0.000 C 
ATOM     28  C   UNL     1       1.772   2.036  19.762  0.00  0.00    +0.000 C 
ATOM     29  C   UNL     1       0.712   2.523  18.779  0.00  0.00    +0.000 C 
ATOM     30  C   UNL     1       1.141   3.822  18.109  0.00  0.00    +0.000 C 
ATOM     31  C   UNL     1       2.509   3.683  17.440  0.00  0.00    +0.000 C 
ENDBRANCH  25  26
ENDBRANCH  10  25
TORSDOF 8
ENDMDL
MODEL 2
REMARK VINA RESULT:      -8.1      1.079      1.679
REMARK  Name = 
REMARK  10 active torsions:
REMARK  status: ('A' for Active; 'I' for Inactive)
REMARK    1  A    between atoms: C_1  and  C_2
REMARK    2  A    between atoms: C_2  and  O_3
REMARK    3  A    between atoms: O_3  and  C_4
REMARK    4  A    between atoms: C_7  and  C_8
REMARK    5  A    between atoms: C_8  and  C_9
REMARK    6  A    between atoms: C_13  and  S_14
REMARK    7  A    between atoms: S_14  and  C_16
REMARK    8  A    between atoms: C_16  and  C_17
REMARK    9  A    between atoms: N_22  and  C_23
REMARK   10  A    between atoms: C_23  and  C_24
REMARK                            x       y       z     vdW  Elec       q    Type
REMARK                         _______ _______ _______ _____ _____    ______ ____
ROOT
ATOM      1  C   UNL     1       4.061   5.977  18.750  0.00  0.00    +0.000 A 
ATOM      2  N   UNL     1       3.681   6.953  17.945  0.00  0.00    +0.000 NA
ATOM      3  C   UNL     1       2.689   7.614  18.601  0.00  0.00    +0.000 A 
ATOM      4  C   UNL     1       1.969   8.742  18.165  0.00  0.00    +0.000 A 
ATOM      5  C   UNL     1       1.003   9.337  18.997  0.00  0.00    +0.000 A 
ATOM      6  C   UNL     1       0.792   8.782  20.272  0.00  0.00    +0.000 A 
ATOM      7 CL   UNL     1      -0.312   9.471  21.416  0.00  0.00    +0.000 Cl
ATOM      8  C   UNL     1       1.480   7.614  20.707  0.00  0.00    +0.000 A 
ATOM      9  C   UNL     1       2.417   7.032  19.836  0.00  0.00    +0.000 A 
ATOM     10  N   UNL     1       3.215   5.893  19.855  0.00  0.00    +0.000 N 
ENDROOT
BRANCH   5  11
ATOM     11  S   UNL     1       0.027  10.640  18.208  0.00  0.00    +0.000 S 
ATOM     12  O   UNL     1      -1.483  10.251  18.371  0.00  0.00    +0.000 OA
BRANCH  11  13
ATOM     13  C   UNL     1       0.342  12.104  19.220  0.00  0.00    +0.000 C 
ATOM     14  C   UNL     1      -0.008  13.407  18.535  0.00  0.00    +0.000 C 
ENDBRANCH  11  13
ENDBRANCH   5  11
BRANCH   1  15
ATOM     15  C   UNL     1       5.319   5.187  18.515  0.00  0.00    +0.000 C 
BRANCH  15  19
ATOM     16  C   UNL     1       6.396   4.318  14.400  0.00  0.00    +0.000 A 
ATOM     17  C   UNL     1       7.193   5.171  15.164  0.00  0.00    +0.000 A 
ATOM     18  C   UNL     1       6.861   5.460  16.494  0.00  0.00    +0.000 A 
ATOM     19  C   UNL     1       5.717   4.910  17.082  0.00  0.00    +0.000 A 
ATOM     20  C   UNL     1       4.980   3.974  16.340  0.00  0.00    +0.000 A 
ATOM     21  C   UNL     1       5.309   3.690  15.008  0.00  0.00    +0.000 A 
BRANCH  16  22
ATOM     22  O   UNL     1       6.580   4.028  13.071  0.00  0.00    +0.000 OA
BRANCH  22  24
ATOM     23  C   UNL     1       5.997   2.235  11.566  0.00  0.00    +0.000 C 
ATOM     24  C   UNL     1       5.486   3.385  12.415  0.00  0.00    +0.000 C 
ENDBRANCH  22  24
ENDBRANCH  16  22
ENDBRANCH  15  19
ENDBRANCH   1  15
BRANCH  10  25
ATOM     25  C   UNL     1       2.914   4.675  20.615  0.00  0.00    +0.000 C 
BRANCH  25  26
ATOM     26  C   UNL     1       1.695   3.813  20.198  0.00  0.00    +0.000 C 
ATOM     27  C   UNL     1       1.101   4.186  18.828  0.00  0.00    +0.000 C 
ATOM     28  C   UNL     1       1.934   3.716  17.635  0.00  0.00    +0.000 C 
ATOM     29  C   UNL     1       2.237   2.223  17.699  0.00  0.00    +0.000 C 
ATOM     30  C   UNL     1       2.891   1.850  19.023  0.00  0.00    +0.000 C 
ATOM     31  C   UNL     1       2.045   2.305  20.213  0.00  0.00    +0.000 C 
ENDBRANCH  25  26
ENDBRANCH  10  25
TORSDOF 8
ENDMDL
MODEL 3
REMARK VINA RESULT:      -7.9      0.927      1.703
REMARK  Name = 
REMARK  10 active torsions:
REMARK  status: ('A' for Active; 'I' for Inactive)
REMARK    1  A    between atoms: C_1  and  C_2
REMARK    2  A    between atoms: C_2  and  O_3
REMARK    3  A    between atoms: O_3  and  C_4
REMARK    4  A    between atoms: C_7  and  C_8
REMARK    5  A    between atoms: C_8  and  C_9
REMARK    6  A    between atoms: C_13  and  S_14
REMARK    7  A    between atoms: S_14  and  C_16
REMARK    8  A    between atoms: C_16  and  C_17
REMARK    9  A    between atoms: N_22  and  C_23
REMARK   10  A    between atoms: C_23  and  C_24
REMARK                            x       y       z     vdW  Elec       q    Type
REMARK                         _______ _______ _______ _____ _____    ______ ____
ROOT
ATOM      1  C   UNL     1       4.400   6.304  18.184  0.00  0.00    +0.000 A 
ATOM      2  N   UNL     1       3.861   7.267  17.459  0.00  0.00    +0.000 NA
ATOM      3  C   UNL     1       2.857   7.788  18.217  0.00  0.00    +0.000 A 
ATOM      4  C   UNL     1       1.992   8.849  17.891  0.00  0.00    +0.000 A 
ATOM      5  C   UNL     1       1.034   9.299  18.818  0.00  0.00    +0.000 A 
ATOM      6  C   UNL     1       0.979   8.669  20.074  0.00  0.00    +0.000 A 
ATOM      7 CL   UNL     1      -0.103   9.183  21.326  0.00  0.00    +0.000 Cl
ATOM      8  C   UNL     1       1.815   7.564  20.398  0.00  0.00    +0.000 A 
ATOM      9  C   UNL     1       2.741   7.126  19.435  0.00  0.00    +0.000 A 
ATOM     10  N   UNL     1       3.652   6.080  19.340  0.00  0.00    +0.000 N 
ENDROOT
BRANCH   5  11
ATOM     11  S   UNL     1      -0.129  10.523  18.168  0.00  0.00    +0.000 S 
ATOM     12  O   UNL     1      -1.569  10.058  18.580  0.00  0.00    +0.000 OA
BRANCH  11  13
ATOM     13  C   UNL     1       0.257  12.032  19.084  0.00  0.00    +0.000 C 
ATOM     14  C   UNL     1      -0.843  12.474  20.025  0.00  0.00    +0.000 C 
ENDBRANCH  11  13
ENDBRANCH   5  11
BRANCH   1  15
ATOM     15  C   UNL     1       5.713   5.665  17.821  0.00  0.00    +0.000 C 
BRANCH  15  19
ATOM     16  C   UNL     1       6.196   4.121  13.792  0.00  0.00    +0.000 A 
ATOM     17  C   UNL     1       5.109   3.717  14.568  0.00  0.00    +0.000 A 
ATOM     18  C   UNL     1       4.937   4.208  15.869  0.00  0.00    +0.000 A 
ATOM     19  C   UNL     1       5.857   5.103  16.425  0.00  0.00    +0.000 A 
ATOM     20  C   UNL     1       6.888   5.582  15.601  0.00  0.00    +0.000 A 
ATOM     21  C   UNL     1       7.063   5.087  14.302  0.00  0.00    +0.000 A 
BRANCH  16  22
ATOM     22  O   UNL     1       6.505   3.648  12.542  0.00  0.00    +0.000 OA
BRANCH  22  24
ATOM     23  C   UNL     1       4.441   3.277  11.348  0.00  0.00    +0.000 C 
ATOM     24  C   UNL     1       5.639   2.636  12.027  0.00  0.00    +0.000 C 
ENDBRANCH  22  24
ENDBRANCH  16  22
ENDBRANCH  15  19
ENDBRANCH   1  15
BRANCH  10  25
ATOM     25  C   UNL     1       3.538   4.805  20.054  0.00  0.00    +0.000 C 
BRANCH  25  26
ATOM     26  C   UNL     1       2.236   3.976  19.906  0.00  0.00    +0.000 C 
ATOM     27  C   UNL     1       1.493   4.205  18.578  0.00  0.00    +0.000 C 
ATOM     28  C   UNL     1       2.147   3.531  17.370  0.00  0.00    +0.000 C 
ATOM     29  C   UNL     1       2.383   2.042  17.601  0.00  0.00    +0.000 C 
ATOM     30  C   UNL     1       3.180   1.804  18.878  0.00  0.00    +0.000 C 
ATOM     31  C   UNL     1       2.513   2.463  20.086  0.00  0.00    +0.000 C 
ENDBRANCH  25  26
ENDBRANCH  10  25
TORSDOF 8
ENDMDL
MODEL 4
REMARK VINA RESULT:      -7.7      1.605      2.230
REMARK  Name = 
REMARK  10 active torsions:
REMARK  status: ('A' for Active; 'I' for Inactive)
REMARK    1  A    between atoms: C_1  and  C_2
REMARK    2  A    between atoms: C_2  and  O_3
REMARK    3  A    between atoms: O_3  and  C_4
REMARK    4  A    between atoms: C_7  and  C_8
REMARK    5  A    between atoms: C_8  and  C_9
REMARK    6  A    between atoms: C_13  and  S_14
REMARK    7  A    between atoms: S_14  and  C_16
REMARK    8  A    between atoms: C_16  and  C_17
REMARK    9  A    between atoms: N_22  and  C_23
REMARK   10  A    between atoms: C_23  and  C_24
REMARK                            x       y       z     vdW  Elec       q    Type
REMARK                         _______ _______ _______ _____ _____    ______ ____
ROOT
ATOM      1  C   UNL     1       4.137   7.250  18.012  0.00  0.00    +0.000 A 
ATOM      2  N   UNL     1       3.418   8.225  17.486  0.00  0.00    +0.000 NA
ATOM      3  C   UNL     1       2.389   8.439  18.351  0.00  0.00    +0.000 A 
ATOM      4  C   UNL     1       1.355   9.388  18.244  0.00  0.00    +0.000 A 
ATOM      5  C   UNL     1       0.391   9.510  19.261  0.00  0.00    +0.000 A 
ATOM      6  C   UNL     1       0.501   8.671  20.385  0.00  0.00    +0.000 A 
ATOM      7 CL   UNL     1      -0.577   8.780  21.737  0.00  0.00    +0.000 Cl
ATOM      8  C   UNL     1       1.514   7.676  20.483  0.00  0.00    +0.000 A 
ATOM      9  C   UNL     1       2.442   7.565  19.433  0.00  0.00    +0.000 A 
ATOM     10  N   UNL     1       3.496   6.712  19.127  0.00  0.00    +0.000 N 
ENDROOT
BRANCH   5  11
ATOM     11  S   UNL     1      -0.979  10.625  18.872  0.00  0.00    +0.000 S 
ATOM     12  O   UNL     1      -0.360  12.038  18.588  0.00  0.00    +0.000 OA
BRANCH  11  13
ATOM     13  C   UNL     1      -1.647   9.983  17.321  0.00  0.00    +0.000 C 
ATOM     14  C   UNL     1      -3.160   9.959  17.270  0.00  0.00    +0.000 C 
ENDBRANCH  11  13
ENDBRANCH   5  11
BRANCH   1  15
ATOM     15  C   UNL     1       5.511   6.903  17.506  0.00  0.00    +0.000 C 
BRANCH  15  19
ATOM     16  C   UNL     1       5.796   3.850  14.432  0.00  0.00    +0.000 A 
ATOM     17  C   UNL     1       5.770   3.484  15.778  0.00  0.00    +0.000 A 
ATOM     18  C   UNL     1       5.676   4.456  16.782  0.00  0.00    +0.000 A 
ATOM     19  C   UNL     1       5.619   5.816  16.460  0.00  0.00    +0.000 A 
ATOM     20  C   UNL     1       5.541   6.167  15.102  0.00  0.00    +0.000 A 
ATOM     21  C   UNL     1       5.641   5.195  14.099  0.00  0.00    +0.000 A 
BRANCH  16  22
ATOM     22  O   UNL     1       5.965   2.993  13.374  0.00  0.00    +0.000 OA
BRANCH  22  24
ATOM     23  C   UNL     1       4.403   3.112  11.539  0.00  0.00    +0.000 C 
ATOM     24  C   UNL     1       5.752   3.553  12.077  0.00  0.00    +0.000 C 
ENDBRANCH  22  24
ENDBRANCH  16  22
ENDBRANCH  15  19
ENDBRANCH   1  15
BRANCH  10  25
ATOM     25  C   UNL     1       3.618   5.331  19.604  0.00  0.00    +0.000 C 
BRANCH  25  26
ATOM     26  C   UNL     1       2.362   4.423  19.600  0.00  0.00    +0.000 C 
ATOM     27  C   UNL     1       1.653   4.336  18.237  0.00  0.00    +0.000 C 
ATOM     28  C   UNL     1       2.376   3.465  17.209  0.00  0.00    +0.000 C 
ATOM     29  C   UNL     1       2.673   2.069  17.747  0.00  0.00    +0.000 C 
ATOM     30  C   UNL     1       3.438   2.139  19.063  0.00  0.00    +0.000 C 
ATOM     31  C   UNL     1       2.702   2.995  20.094  0.00  0.00    +0.000 C 
ENDBRANCH  25  26
ENDBRANCH  10  25
TORSDOF 8
ENDMDL
MODEL 5
REMARK VINA RESULT:      -7.6      1.461      2.192
REMARK  Name = 
REMARK  10 active torsions:
REMARK  status: ('A' for Active; 'I' for Inactive)
REMARK    1  A    between atoms: C_1  and  C_2
REMARK    2  A    between atoms: C_2  and  O_3
REMARK    3  A    between atoms: O_3  and  C_4
REMARK    4  A    between atoms: C_7  and  C_8
REMARK    5  A    between atoms: C_8  and  C_9
REMARK    6  A    between atoms: C_13  and  S_14
REMARK    7  A    between atoms: S_14  and  C_16
REMARK    8  A    between atoms: C_16  and  C_17
REMARK    9  A    between atoms: N_22  and  C_23
REMARK   10  A    between atoms: C_23  and  C_24
REMARK                            x       y       z     vdW  Elec       q    Type
REMARK                         _______ _______ _______ _____ _____    ______ ____
ROOT
ATOM      1  C   UNL     1       4.068   6.141  18.778  0.00  0.00    +0.000 A 
ATOM      2  N   UNL     1       3.640   7.193  18.105  0.00  0.00    +0.000 NA
ATOM      3  C   UNL     1       2.624   7.720  18.842  0.00  0.00    +0.000 A 
ATOM      4  C   UNL     1       1.850   8.860  18.555  0.00  0.00    +0.000 A 
ATOM      5  C   UNL     1       0.865   9.299  19.457  0.00  0.00    +0.000 A 
ATOM      6  C   UNL     1       0.688   8.577  20.650  0.00  0.00    +0.000 A 
ATOM      7 CL   UNL     1      -0.438   9.064  21.874  0.00  0.00    +0.000 Cl
ATOM      8  C   UNL     1       1.430   7.396  20.931  0.00  0.00    +0.000 A 
ATOM      9  C   UNL     1       2.386   6.973  19.992  0.00  0.00    +0.000 A 
ATOM     10  N   UNL     1       3.234   5.878  19.864  0.00  0.00    +0.000 N 
ENDROOT
BRANCH   5  11
ATOM     11  S   UNL     1      -0.173  10.648  18.842  0.00  0.00    +0.000 S 
ATOM     12  O   UNL     1       0.787  11.757  18.290  0.00  0.00    +0.000 OA
BRANCH  11  13
ATOM     13  C   UNL     1      -1.058   9.924  17.443  0.00  0.00    +0.000 C 
ATOM     14  C   UNL     1      -2.562   9.911  17.612  0.00  0.00    +0.000 C 
ENDBRANCH  11  13
ENDBRANCH   5  11
BRANCH   1  15
ATOM     15  C   UNL     1       5.359   5.445  18.443  0.00  0.00    +0.000 C 
BRANCH  15  19
ATOM     16  C   UNL     1       6.193   4.547  14.277  0.00  0.00    +0.000 A 
ATOM     17  C   UNL     1       4.929   4.288  14.807  0.00  0.00    +0.000 A 
ATOM     18  C   UNL     1       4.642   4.574  16.148  0.00  0.00    +0.000 A 
ATOM     19  C   UNL     1       5.620   5.113  16.990  0.00  0.00    +0.000 A 
ATOM     20  C   UNL     1       6.855   5.466  16.423  0.00  0.00    +0.000 A 
ATOM     21  C   UNL     1       7.143   5.174  15.083  0.00  0.00    +0.000 A 
BRANCH  16  22
ATOM     22  O   UNL     1       6.607   4.236  13.007  0.00  0.00    +0.000 OA
BRANCH  22  24
ATOM     23  C   UNL     1       4.844   3.318  11.639  0.00  0.00    +0.000 C 
ATOM     24  C   UNL     1       6.086   3.023  12.461  0.00  0.00    +0.000 C 
ENDBRANCH  22  24
ENDBRANCH  16  22
ENDBRANCH  15  19
ENDBRANCH   1  15
BRANCH  10  25
ATOM     25  C   UNL     1       2.993   4.561  20.462  0.00  0.00    +0.000 C 
BRANCH  25  26
ATOM     26  C   UNL     1       1.760   3.743  20.002  0.00  0.00    +0.000 C 
ATOM     27  C   UNL     1       1.263   4.096  18.588  0.00  0.00    +0.000 C 
ATOM     28  C   UNL     1       2.140   3.547  17.461  0.00  0.00    +0.000 C 
ATOM     29  C   UNL     1       2.365   2.044  17.589  0.00  0.00    +0.000 C 
ATOM     30  C   UNL     1       2.924   1.687  18.961  0.00  0.00    +0.000 C 
ATOM     31  C   UNL     1       2.035   2.221  20.085  0.00  0.00    +0.000 C 
ENDBRANCH  25  26
ENDBRANCH  10  25
TORSDOF 8
ENDMDL
MODEL 6
REMARK VINA RESULT:      -7.5      1.548      1.814
REMARK  Name = 
REMARK  10 active torsions:
REMARK  status: ('A' for Active; 'I' for Inactive)
REMARK    1  A    between atoms: C_1  and  C_2
REMARK    2  A    between atoms: C_2  and  O_3
REMARK    3  A    between atoms: O_3  and  C_4
REMARK    4  A    between atoms: C_7  and  C_8
REMARK    5  A    between atoms: C_8  and  C_9
REMARK    6  A    between atoms: C_13  and  S_14
REMARK    7  A    between atoms: S_14  and  C_16
REMARK    8  A    between atoms: C_16  and  C_17
REMARK    9  A    between atoms: N_22  and  C_23
REMARK   10  A    between atoms: C_23  and  C_24
REMARK                            x       y       z     vdW  Elec       q    Type
REMARK                         _______ _______ _______ _____ _____    ______ ____
ROOT
ATOM      1  C   UNL     1       4.299   7.459  17.810  0.00  0.00    +0.000 A 
ATOM      2  N   UNL     1       3.580   8.489  17.403  0.00  0.00    +0.000 NA
ATOM      3  C   UNL     1       2.524   8.569  18.258  0.00  0.00    +0.000 A 
ATOM      4  C   UNL     1       1.479   9.511  18.254  0.00  0.00    +0.000 A 
ATOM      5  C   UNL     1       0.486   9.479  19.249  0.00  0.00    +0.000 A 
ATOM      6  C   UNL     1       0.577   8.493  20.248  0.00  0.00    +0.000 A 
ATOM      7 CL   UNL     1      -0.540   8.401  21.569  0.00  0.00    +0.000 Cl
ATOM      8  C   UNL     1       1.602   7.506  20.237  0.00  0.00    +0.000 A 
ATOM      9  C   UNL     1       2.560   7.553  19.210  0.00  0.00    +0.000 A 
ATOM     10  N   UNL     1       3.636   6.763  18.820  0.00  0.00    +0.000 N 
ENDROOT
BRANCH   5  11
ATOM     11  S   UNL     1      -0.891  10.622  18.978  0.00  0.00    +0.000 S 
ATOM     12  O   UNL     1      -0.272  12.043  18.736  0.00  0.00    +0.000 OA
BRANCH  11  13
ATOM     13  C   UNL     1      -1.635  10.062  17.430  0.00  0.00    +0.000 C 
ATOM     14  C   UNL     1      -3.102   9.713  17.548  0.00  0.00    +0.000 C 
ENDBRANCH  11  13
ENDBRANCH   5  11
BRANCH   1  15
ATOM     15  C   UNL     1       5.691   7.201  17.301  0.00  0.00    +0.000 C 
BRANCH  15  19
ATOM     16  C   UNL     1       6.172   3.909  14.512  0.00  0.00    +0.000 A 
ATOM     17  C   UNL     1       6.884   3.916  15.711  0.00  0.00    +0.000 A 
ATOM     18  C   UNL     1       6.739   4.969  16.623  0.00  0.00    +0.000 A 
ATOM     19  C   UNL     1       5.887   6.044  16.347  0.00  0.00    +0.000 A 
ATOM     20  C   UNL     1       5.098   5.977  15.188  0.00  0.00    +0.000 A 
ATOM     21  C   UNL     1       5.249   4.926  14.273  0.00  0.00    +0.000 A 
BRANCH  16  22
ATOM     22  O   UNL     1       6.295   2.974  13.515  0.00  0.00    +0.000 OA
BRANCH  22  24
ATOM     23  C   UNL     1       5.515   2.129  11.394  0.00  0.00    +0.000 C 
ATOM     24  C   UNL     1       5.801   3.362  12.232  0.00  0.00    +0.000 C 
ENDBRANCH  22  24
ENDBRANCH  16  22
ENDBRANCH  15  19
ENDBRANCH   1  15
BRANCH  10  25
ATOM     25  C   UNL     1       3.766   5.330  19.103  0.00  0.00    +0.000 C 
BRANCH  25  26
ATOM     26  C   UNL     1       3.337   4.310  18.018  0.00  0.00    +0.000 C 
ATOM     27  C   UNL     1       3.900   2.893  18.230  0.00  0.00    +0.000 C 
ATOM     28  C   UNL     1       3.211   2.107  19.347  0.00  0.00    +0.000 C 
ATOM     29  C   UNL     1       1.698   2.060  19.167  0.00  0.00    +0.000 C 
ATOM     30  C   UNL     1       1.117   3.461  19.026  0.00  0.00    +0.000 C 
ATOM     31  C   UNL     1       1.795   4.237  17.896  0.00  0.00    +0.000 C 
ENDBRANCH  25  26
ENDBRANCH  10  25
TORSDOF 8
ENDMDL
MODEL 7
REMARK VINA RESULT:      -7.5      1.533      2.498
REMARK  Name = 
REMARK  10 active torsions:
REMARK  status: ('A' for Active; 'I' for Inactive)
REMARK    1  A    between atoms: C_1  and  C_2
REMARK    2  A    between atoms: C_2  and  O_3
REMARK    3  A    between atoms: O_3  and  C_4
REMARK    4  A    between atoms: C_7  and  C_8
REMARK    5  A    between atoms: C_8  and  C_9
REMARK    6  A    between atoms: C_13  and  S_14
REMARK    7  A    between atoms: S_14  and  C_16
REMARK    8  A    between atoms: C_16  and  C_17
REMARK    9  A    between atoms: N_22  and  C_23
REMARK   10  A    between atoms: C_23  and  C_24
REMARK                            x       y       z     vdW  Elec       q    Type
REMARK                         _______ _______ _______ _____ _____    ______ ____
ROOT
ATOM      1  C   UNL     1       3.580   5.752  19.310  0.00  0.00    +0.000 A 
ATOM      2  N   UNL     1       3.345   6.751  18.480  0.00  0.00    +0.000 NA
ATOM      3  C   UNL     1       2.416   7.535  19.092  0.00  0.00    +0.000 A 
ATOM      4  C   UNL     1       1.847   8.732  18.616  0.00  0.00    +0.000 A 
ATOM      5  C   UNL     1       0.931   9.449  19.405  0.00  0.00    +0.000 A 
ATOM      6  C   UNL     1       0.614   8.944  20.680  0.00  0.00    +0.000 A 
ATOM      7 CL   UNL     1      -0.440   9.777  21.774  0.00  0.00    +0.000 Cl
ATOM      8  C   UNL     1       1.145   7.712  21.153  0.00  0.00    +0.000 A 
ATOM      9  C   UNL     1       2.036   7.010  20.324  0.00  0.00    +0.000 A 
ATOM     10  N   UNL     1       2.694   5.786  20.386  0.00  0.00    +0.000 N 
ENDROOT
BRANCH   5  11
ATOM     11  S   UNL     1       0.141  10.844  18.566  0.00  0.00    +0.000 S 
ATOM     12  O   UNL     1      -1.402  10.722  18.817  0.00  0.00    +0.000 OA
BRANCH  11  13
ATOM     13  C   UNL     1       0.742  12.296  19.458  0.00  0.00    +0.000 C 
ATOM     14  C   UNL     1       1.806  13.073  18.714  0.00  0.00    +0.000 C 
ENDBRANCH  11  13
ENDBRANCH   5  11
BRANCH   1  15
ATOM     15  C   UNL     1       4.744   4.816  19.130  0.00  0.00    +0.000 C 
BRANCH  15  19
ATOM     16  C   UNL     1       6.987   5.120  15.425  0.00  0.00    +0.000 A 
ATOM     17  C   UNL     1       5.930   4.215  15.528  0.00  0.00    +0.000 A 
ATOM     18  C   UNL     1       5.195   4.106  16.715  0.00  0.00    +0.000 A 
ATOM     19  C   UNL     1       5.511   4.892  17.829  0.00  0.00    +0.000 A 
ATOM     20  C   UNL     1       6.507   5.871  17.681  0.00  0.00    +0.000 A 
ATOM     21  C   UNL     1       7.246   5.975  16.496  0.00  0.00    +0.000 A 
BRANCH  16  22
ATOM     22  O   UNL     1       7.821   5.255  14.344  0.00  0.00    +0.000 OA
BRANCH  22  24
ATOM     23  C   UNL     1       7.783   5.625  11.960  0.00  0.00    +0.000 C 
ATOM     24  C   UNL     1       7.326   4.740  13.106  0.00  0.00    +0.000 C 
ENDBRANCH  22  24
ENDBRANCH  16  22
ENDBRANCH  15  19
ENDBRANCH   1  15
BRANCH  10  25
ATOM     25  C   UNL     1       2.227   4.625  21.150  0.00  0.00    +0.000 C 
BRANCH  25  26
ATOM     26  C   UNL     1       1.132   3.715  20.538  0.00  0.00    +0.000 C 
ATOM     27  C   UNL     1       0.692   4.126  19.121  0.00  0.00    +0.000 C 
ATOM     28  C   UNL     1       1.700   3.775  18.026  0.00  0.00    +0.000 C 
ATOM     29  C   UNL     1       2.092   2.302  18.058  0.00  0.00    +0.000 C 
ATOM     30  C   UNL     1       2.596   1.897  19.437  0.00  0.00    +0.000 C 
ATOM     31  C   UNL     1       1.578   2.232  20.527  0.00  0.00    +0.000 C 
ENDBRANCH  25  26
ENDBRANCH  10  25
TORSDOF 8
ENDMDL
MODEL 8
REMARK VINA RESULT:      -7.4      1.455      2.171
REMARK  Name = 
REMARK  10 active torsions:
REMARK  status: ('A' for Active; 'I' for Inactive)
REMARK    1  A    between atoms: C_1  and  C_2
REMARK    2  A    between atoms: C_2  and  O_3
REMARK    3  A    between atoms: O_3  and  C_4
REMARK    4  A    between atoms: C_7  and  C_8
REMARK    5  A    between atoms: C_8  and  C_9
REMARK    6  A    between atoms: C_13  and  S_14
REMARK    7  A    between atoms: S_14  and  C_16
REMARK    8  A    between atoms: C_16  and  C_17
REMARK    9  A    between atoms: N_22  and  C_23
REMARK   10  A    between atoms: C_23  and  C_24
REMARK                            x       y       z     vdW  Elec       q    Type
REMARK                         _______ _______ _______ _____ _____    ______ ____
ROOT
ATOM      1  C   UNL     1       3.519   6.493  18.965  0.00  0.00    +0.000 A 
ATOM      2  N   UNL     1       3.141   7.486  18.183  0.00  0.00    +0.000 NA
ATOM      3  C   UNL     1       2.185   8.164  18.875  0.00  0.00    +0.000 A 
ATOM      4  C   UNL     1       1.480   9.314  18.473  0.00  0.00    +0.000 A 
ATOM      5  C   UNL     1       0.554   9.922  19.339  0.00  0.00    +0.000 A 
ATOM      6  C   UNL     1       0.366   9.357  20.613  0.00  0.00    +0.000 A 
ATOM      7 CL   UNL     1      -0.688  10.059  21.796  0.00  0.00    +0.000 Cl
ATOM      8  C   UNL     1       1.036   8.168  21.014  0.00  0.00    +0.000 A 
ATOM      9  C   UNL     1       1.934   7.573  20.110  0.00  0.00    +0.000 A 
ATOM     10  N   UNL     1       2.703   6.415  20.094  0.00  0.00    +0.000 N 
ENDROOT
BRANCH   5  11
ATOM     11  S   UNL     1      -0.411  11.259  18.594  0.00  0.00    +0.000 S 
ATOM     12  O   UNL     1      -1.919  10.980  18.923  0.00  0.00    +0.000 OA
BRANCH  11  13
ATOM     13  C   UNL     1       0.098  12.734  19.503  0.00  0.00    +0.000 C 
ATOM     14  C   UNL     1      -1.056  13.535  20.066  0.00  0.00    +0.000 C 
ENDBRANCH  11  13
ENDBRANCH   5  11
BRANCH   1  15
ATOM     15  C   UNL     1       4.750   5.674  18.685  0.00  0.00    +0.000 C 
BRANCH  15  19
ATOM     16  C   UNL     1       5.474   4.356  14.612  0.00  0.00    +0.000 A 
ATOM     17  C   UNL     1       5.530   5.714  14.926  0.00  0.00    +0.000 A 
ATOM     18  C   UNL     1       5.302   6.156  16.236  0.00  0.00    +0.000 A 
ATOM     19  C   UNL     1       4.999   5.248  17.256  0.00  0.00    +0.000 A 
ATOM     20  C   UNL     1       5.046   3.878  16.952  0.00  0.00    +0.000 A 
ATOM     21  C   UNL     1       5.269   3.437  15.641  0.00  0.00    +0.000 A 
BRANCH  16  22
ATOM     22  O   UNL     1       5.602   3.820  13.355  0.00  0.00    +0.000 OA
BRANCH  22  24
ATOM     23  C   UNL     1       6.969   3.049  11.523  0.00  0.00    +0.000 C 
ATOM     24  C   UNL     1       6.897   3.924  12.763  0.00  0.00    +0.000 C 
ENDBRANCH  22  24
ENDBRANCH  16  22
ENDBRANCH  15  19
ENDBRANCH   1  15
BRANCH  10  25
ATOM     25  C   UNL     1       2.394   5.196  20.847  0.00  0.00    +0.000 C 
BRANCH  25  26
ATOM     26  C   UNL     1       1.169   4.344  20.426  0.00  0.00    +0.000 C 
ATOM     27  C   UNL     1       1.046   4.129  18.907  0.00  0.00    +0.000 C 
ATOM     28  C   UNL     1       2.040   3.116  18.335  0.00  0.00    +0.000 C 
ATOM     29  C   UNL     1       1.987   1.782  19.071  0.00  0.00    +0.000 C 
ATOM     30  C   UNL     1       2.178   1.973  20.570  0.00  0.00    +0.000 C 
ATOM     31  C   UNL     1       1.170   2.971  21.141  0.00  0.00    +0.000 C 
ENDBRANCH  25  26
ENDBRANCH  10  25
TORSDOF 8
ENDMDL
MODEL 9
REMARK VINA RESULT:      -7.4      1.619      1.890
REMARK  Name = 
REMARK  10 active torsions:
REMARK  status: ('A' for Active; 'I' for Inactive)
REMARK    1  A    between atoms: C_1  and  C_2
REMARK    2  A    between atoms: C_2  and  O_3
REMARK    3  A    between atoms: O_3  and  C_4
REMARK    4  A    between atoms: C_7  and  C_8
REMARK    5  A    between atoms: C_8  and  C_9
REMARK    6  A    between atoms: C_13  and  S_14
REMARK    7  A    between atoms: S_14  and  C_16
REMARK    8  A    between atoms: C_16  and  C_17
REMARK    9  A    between atoms: N_22  and  C_23
REMARK   10  A    between atoms: C_23  and  C_24
REMARK                            x       y       z     vdW  Elec       q    Type
REMARK                         _______ _______ _______ _____ _____    ______ ____
ROOT
ATOM      1  C   UNL     1       4.232   7.123  18.004  0.00  0.00    +0.000 A 
ATOM      2  N   UNL     1       3.468   8.024  17.416  0.00  0.00    +0.000 NA
ATOM      3  C   UNL     1       2.465   8.295  18.296  0.00  0.00    +0.000 A 
ATOM      4  C   UNL     1       1.401   9.203  18.139  0.00  0.00    +0.000 A 
ATOM      5  C   UNL     1       0.472   9.399  19.176  0.00  0.00    +0.000 A 
ATOM      6  C   UNL     1       0.647   8.677  20.370  0.00  0.00    +0.000 A 
ATOM      7 CL   UNL     1      -0.383   8.890  21.746  0.00  0.00    +0.000 Cl
ATOM      8  C   UNL     1       1.691   7.721  20.524  0.00  0.00    +0.000 A 
ATOM      9  C   UNL     1       2.582   7.532  19.454  0.00  0.00    +0.000 A 
ATOM     10  N   UNL     1       3.649   6.680  19.191  0.00  0.00    +0.000 N 
ENDROOT
BRANCH   5  11
ATOM     11  S   UNL     1      -0.943  10.437  18.736  0.00  0.00    +0.000 S 
ATOM     12  O   UNL     1      -0.392  11.880  18.463  0.00  0.00    +0.000 OA
BRANCH  11  13
ATOM     13  C   UNL     1      -1.524   9.753  17.168  0.00  0.00    +0.000 C 
ATOM     14  C   UNL     1      -3.029   9.782  17.009  0.00  0.00    +0.000 C 
ENDBRANCH  11  13
ENDBRANCH   5  11
BRANCH   1  15
ATOM     15  C   UNL     1       5.596   6.763  17.481  0.00  0.00    +0.000 C 
BRANCH  15  19
ATOM     16  C   UNL     1       5.755   3.835  14.278  0.00  0.00    +0.000 A 
ATOM     17  C   UNL     1       6.621   4.929  14.267  0.00  0.00    +0.000 A 
ATOM     18  C   UNL     1       6.585   5.881  15.293  0.00  0.00    +0.000 A 
ATOM     19  C   UNL     1       5.671   5.765  16.346  0.00  0.00    +0.000 A 
ATOM     20  C   UNL     1       4.876   4.609  16.403  0.00  0.00    +0.000 A 
ATOM     21  C   UNL     1       4.909   3.660  15.372  0.00  0.00    +0.000 A 
BRANCH  16  22
ATOM     22  O   UNL     1       5.650   2.889  13.290  0.00  0.00    +0.000 OA
BRANCH  22  24
ATOM     23  C   UNL     1       4.267   3.278  11.351  0.00  0.00    +0.000 C 
ATOM     24  C   UNL     1       5.658   3.384  11.949  0.00  0.00    +0.000 C 
ENDBRANCH  22  24
ENDBRANCH  16  22
ENDBRANCH  15  19
ENDBRANCH   1  15
BRANCH  10  25
ATOM     25  C   UNL     1       3.828   5.355  19.792  0.00  0.00    +0.000 C 
BRANCH  25  26
ATOM     26  C   UNL     1       3.144   4.132  19.129  0.00  0.00    +0.000 C 
ATOM     27  C   UNL     1       3.447   2.791  19.821  0.00  0.00    +0.000 C 
ATOM     28  C   UNL     1       2.702   2.585  21.141  0.00  0.00    +0.000 C 
ATOM     29  C   UNL     1       1.197   2.780  20.988  0.00  0.00    +0.000 C 
ATOM     30  C   UNL     1       0.879   4.135  20.368  0.00  0.00    +0.000 C 
ATOM     31  C   UNL     1       1.611   4.329  19.039  0.00  0.00    +0.000 C 
ENDBRANCH  25  26
ENDBRANCH  10  25
TORSDOF 8
ENDMDL
