MODEL 1
REMARK VINA RESULT:      -7.0      0.000      0.000
REMARK  Name = 
REMARK  9 active torsions:
REMARK  status: ('A' for Active; 'I' for Inactive)
REMARK    1  A    between atoms: C_1  and  C_2
REMARK    2  A    between atoms: C_2  and  C_3
REMARK    3  A    between atoms: C_3  and  C_4
REMARK    4  A    between atoms: C_4  and  N_5
REMARK    5  A    between atoms: N_8  and  C_9
REMARK    6  A    between atoms: C_11  and  C_12
REMARK    7  A    between atoms: N_14  and  C_15
REMARK    8  A    between atoms: C_15  and  C_16
REMARK    9  A    between atoms: C_16  and  O_17
REMARK                            x       y       z     vdW  Elec       q    Type
REMARK                         _______ _______ _______ _____ _____    ______ ____
ROOT
ATOM      1  N   UNL     1       4.836   2.568  19.358  0.00  0.00    +0.000 N 
ATOM      2  C   UNL     1       5.017   3.829  18.879  0.00  0.00    +0.000 C 
ATOM      3  O   UNL     1       4.145   4.658  18.716  0.00  0.00    +0.000 OA
ATOM      4  N   UNL     1       6.376   4.066  18.526  0.00  0.00    +0.000 N 
ATOM      5  H   UNL     1       5.597   1.910  19.425  0.00  0.00    +0.000 HD
ATOM      6  H   UNL     1       7.056   3.320  18.586  0.00  0.00    +0.000 HD
ENDROOT
BRANCH   4   7
ATOM      7  C   UNL     1       6.804   5.307  18.059  0.00  0.00    +0.000 A 
ATOM      8  C   UNL     1       7.482   6.279  18.757  0.00  0.00    +0.000 A 
ATOM      9  C   UNL     1       7.698   7.332  17.842  0.00  0.00    +0.000 A 
ATOM     10  C   UNL     1       8.348   8.637  18.109  0.00  0.00    +0.000 C 
ATOM     11  N   UNL     1       7.218   7.034  16.629  0.00  0.00    +0.000 NA
ATOM     12  N   UNL     1       6.654   5.820  16.789  0.00  0.00    +0.000 N 
BRANCH  12  13
ATOM     13  C   UNL     1       5.891   5.262  15.689  0.00  0.00    +0.000 C 
BRANCH  13  14
ATOM     14  C   UNL     1       6.785   4.544  14.695  0.00  0.00    +0.000 C 
BRANCH  14  15
ATOM     15  O   UNL     1       7.821   5.434  14.273  0.00  0.00    +0.000 OA
ATOM     16  H   UNL     1       8.379   4.927  13.651  0.00  0.00    +0.000 HD
ENDBRANCH  14  15
ENDBRANCH  13  14
ENDBRANCH  12  13
ENDBRANCH   4   7
BRANCH   1  17
ATOM     17  C   UNL     1       3.494   2.093  19.646  0.00  0.00    +0.000 C 
BRANCH  17  18
ATOM     18  C   UNL     1       2.940   2.679  20.945  0.00  0.00    +0.000 C 
BRANCH  18  20
ATOM     19  C   UNL     1       1.186   4.454  20.555  0.00  0.00    +0.000 C 
ATOM     20  C   UNL     1       1.445   2.985  20.839  0.00  0.00    +0.000 C 
ENDBRANCH  18  20
ENDBRANCH  17  18
ENDBRANCH   1  17
TORSDOF 7
ENDMDL
MODEL 2
REMARK VINA RESULT:      -6.8      1.115      1.376
REMARK  Name = 
REMARK  9 active torsions:
REMARK  status: ('A' for Active; 'I' for Inactive)
REMARK    1  A    between atoms: C_1  and  C_2
REMARK    2  A    between atoms: C_2  and  C_3
REMARK    3  A    between atoms: C_3  and  C_4
REMARK    4  A    between atoms: C_4  and  N_5
REMARK    5  A    between atoms: N_8  and  C_9
REMARK    6  A    between atoms: C_11  and  C_12
REMARK    7  A    between atoms: N_14  and  C_15
REMARK    8  A    between atoms: C_15  and  C_16
REMARK    9  A    between atoms: C_16  and  O_17
REMARK                            x       y       z     vdW  Elec       q    Type
REMARK                         _______ _______ _______ _____ _____    ______ ____
ROOT
ATOM      1  N   UNL     1       5.030   2.744  19.491  0.00  0.00    +0.000 N 
ATOM      2  C   UNL     1       5.253   3.991  18.993  0.00  0.00    +0.000 C 
ATOM      3  O   UNL     1       4.417   4.863  18.867  0.00  0.00    +0.000 OA
ATOM      4  N   UNL     1       6.602   4.156  18.572  0.00  0.00    +0.000 N 
ATOM      5  H   UNL     1       5.760   2.048  19.524  0.00  0.00    +0.000 HD
ATOM      6  H   UNL     1       7.246   3.377  18.604  0.00  0.00    +0.000 HD
ENDROOT
BRANCH   4   7
ATOM      7  C   UNL     1       7.070   5.371  18.075  0.00  0.00    +0.000 A 
ATOM      8  C   UNL     1       7.490   6.467  18.793  0.00  0.00    +0.000 A 
ATOM      9  C   UNL     1       7.879   7.429  17.836  0.00  0.00    +0.000 A 
ATOM     10  C   UNL     1       8.366   8.805  18.091  0.00  0.00    +0.000 C 
ATOM     11  N   UNL     1       7.748   6.963  16.589  0.00  0.00    +0.000 NA
ATOM     12  N   UNL     1       7.228   5.730  16.753  0.00  0.00    +0.000 N 
BRANCH  12  13
ATOM     13  C   UNL     1       6.808   4.993  15.577  0.00  0.00    +0.000 C 
BRANCH  13  14
ATOM     14  C   UNL     1       5.313   5.115  15.345  0.00  0.00    +0.000 C 
BRANCH  14  15
ATOM     15  O   UNL     1       4.822   6.254  16.054  0.00  0.00    +0.000 OA
ATOM     16  H   UNL     1       5.153   7.039  15.574  0.00  0.00    +0.000 HD
ENDBRANCH  14  15
ENDBRANCH  13  14
ENDBRANCH  12  13
ENDBRANCH   4   7
BRANCH   1  17
ATOM     17  C   UNL     1       3.682   2.340  19.848  0.00  0.00    +0.000 C 
BRANCH  17  18
ATOM     18  C   UNL     1       2.893   1.832  18.640  0.00  0.00    +0.000 C 
BRANCH  18  20
ATOM     19  C   UNL     1       1.047   3.100  19.809  0.00  0.00    +0.000 C 
ATOM     20  C   UNL     1       1.560   2.565  18.483  0.00  0.00    +0.000 C 
ENDBRANCH  18  20
ENDBRANCH  17  18
ENDBRANCH   1  17
TORSDOF 7
ENDMDL
MODEL 3
REMARK VINA RESULT:      -6.7      1.228      1.314
REMARK  Name = 
REMARK  9 active torsions:
REMARK  status: ('A' for Active; 'I' for Inactive)
REMARK    1  A    between atoms: C_1  and  C_2
REMARK    2  A    between atoms: C_2  and  C_3
REMARK    3  A    between atoms: C_3  and  C_4
REMARK    4  A    between atoms: C_4  and  N_5
REMARK    5  A    between atoms: N_8  and  C_9
REMARK    6  A    between atoms: C_11  and  C_12
REMARK    7  A    between atoms: N_14  and  C_15
REMARK    8  A    between atoms: C_15  and  C_16
REMARK    9  A    between atoms: C_16  and  O_17
REMARK                            x       y       z     vdW  Elec       q    Type
REMARK                         _______ _______ _______ _____ _____    ______ ____
ROOT
ATOM      1  N   UNL     1       5.045   2.786  19.521  0.00  0.00    +0.000 N 
ATOM      2  C   UNL     1       5.245   4.084  19.164  0.00  0.00    +0.000 C 
ATOM      3  O   UNL     1       4.463   4.996  19.337  0.00  0.00    +0.000 OA
ATOM      4  N   UNL     1       6.490   4.259  18.496  0.00  0.00    +0.000 N 
ATOM      5  H   UNL     1       5.717   2.066  19.305  0.00  0.00    +0.000 HD
ATOM      6  H   UNL     1       7.073   3.460  18.284  0.00  0.00    +0.000 HD
ENDROOT
BRANCH   4   7
ATOM      7  C   UNL     1       6.928   5.516  18.083  0.00  0.00    +0.000 A 
ATOM      8  C   UNL     1       7.655   6.432  18.808  0.00  0.00    +0.000 A 
ATOM      9  C   UNL     1       7.859   7.531  17.946  0.00  0.00    +0.000 A 
ATOM     10  C   UNL     1       8.548   8.805  18.261  0.00  0.00    +0.000 C 
ATOM     11  N   UNL     1       7.327   7.314  16.738  0.00  0.00    +0.000 NA
ATOM     12  N   UNL     1       6.742   6.105  16.851  0.00  0.00    +0.000 N 
BRANCH  12  13
ATOM     13  C   UNL     1       5.924   5.626  15.753  0.00  0.00    +0.000 C 
BRANCH  13  14
ATOM     14  C   UNL     1       6.606   4.501  14.997  0.00  0.00    +0.000 C 
BRANCH  14  15
ATOM     15  O   UNL     1       6.168   3.249  15.529  0.00  0.00    +0.000 OA
ATOM     16  H   UNL     1       6.976   2.764  15.787  0.00  0.00    +0.000 HD
ENDBRANCH  14  15
ENDBRANCH  13  14
ENDBRANCH  12  13
ENDBRANCH   4   7
BRANCH   1  17
ATOM     17  C   UNL     1       3.773   2.385  20.094  0.00  0.00    +0.000 C 
BRANCH  17  18
ATOM     18  C   UNL     1       2.807   1.848  19.037  0.00  0.00    +0.000 C 
BRANCH  18  20
ATOM     19  C   UNL     1       1.884   3.728  17.624  0.00  0.00    +0.000 C 
ATOM     20  C   UNL     1       1.634   2.802  18.801  0.00  0.00    +0.000 C 
ENDBRANCH  18  20
ENDBRANCH  17  18
ENDBRANCH   1  17
TORSDOF 7
ENDMDL
MODEL 4
REMARK VINA RESULT:      -6.7      1.894      3.249
REMARK  Name = 
REMARK  9 active torsions:
REMARK  status: ('A' for Active; 'I' for Inactive)
REMARK    1  A    between atoms: C_1  and  C_2
REMARK    2  A    between atoms: C_2  and  C_3
REMARK    3  A    between atoms: C_3  and  C_4
REMARK    4  A    between atoms: C_4  and  N_5
REMARK    5  A    between atoms: N_8  and  C_9
REMARK    6  A    between atoms: C_11  and  C_12
REMARK    7  A    between atoms: N_14  and  C_15
REMARK    8  A    between atoms: C_15  and  C_16
REMARK    9  A    between atoms: C_16  and  O_17
REMARK                            x       y       z     vdW  Elec       q    Type
REMARK                         _______ _______ _______ _____ _____    ______ ____
ROOT
ATOM      1  N   UNL     1       2.977   5.869  19.443  0.00  0.00    +0.000 N 
ATOM      2  C   UNL     1       3.963   5.321  18.682  0.00  0.00    +0.000 C 
ATOM      3  O   UNL     1       4.486   4.242  18.869  0.00  0.00    +0.000 OA
ATOM      4  N   UNL     1       4.369   6.198  17.637  0.00  0.00    +0.000 N 
ATOM      5  H   UNL     1       2.617   6.794  19.260  0.00  0.00    +0.000 HD
ATOM      6  H   UNL     1       3.978   7.128  17.569  0.00  0.00    +0.000 HD
ENDROOT
BRANCH   4   7
ATOM      7  C   UNL     1       5.333   5.825  16.702  0.00  0.00    +0.000 A 
ATOM      8  C   UNL     1       5.141   5.136  15.526  0.00  0.00    +0.000 A 
ATOM      9  C   UNL     1       6.416   5.022  14.933  0.00  0.00    +0.000 A 
ATOM     10  C   UNL     1       6.763   4.325  13.673  0.00  0.00    +0.000 C 
ATOM     11  N   UNL     1       7.356   5.630  15.667  0.00  0.00    +0.000 NA
ATOM     12  N   UNL     1       6.686   6.081  16.747  0.00  0.00    +0.000 N 
BRANCH  12  13
ATOM     13  C   UNL     1       7.444   6.662  17.839  0.00  0.00    +0.000 C 
BRANCH  13  14
ATOM     14  C   UNL     1       7.761   5.634  18.909  0.00  0.00    +0.000 C 
BRANCH  14  15
ATOM     15  O   UNL     1       7.553   4.325  18.374  0.00  0.00    +0.000 OA
ATOM     16  H   UNL     1       6.767   4.386  17.797  0.00  0.00    +0.000 HD
ENDBRANCH  14  15
ENDBRANCH  13  14
ENDBRANCH  12  13
ENDBRANCH   4   7
BRANCH   1  17
ATOM     17  C   UNL     1       2.524   5.182  20.639  0.00  0.00    +0.000 C 
BRANCH  17  18
ATOM     18  C   UNL     1       1.135   4.567  20.460  0.00  0.00    +0.000 C 
BRANCH  18  20
ATOM     19  C   UNL     1       2.130   2.591  21.680  0.00  0.00    +0.000 C 
ATOM     20  C   UNL     1       1.166   3.043  20.597  0.00  0.00    +0.000 C 
ENDBRANCH  18  20
ENDBRANCH  17  18
ENDBRANCH   1  17
TORSDOF 7
ENDMDL
MODEL 5
REMARK VINA RESULT:      -6.6      2.526      5.674
REMARK  Name = 
REMARK  9 active torsions:
REMARK  status: ('A' for Active; 'I' for Inactive)
REMARK    1  A    between atoms: C_1  and  C_2
REMARK    2  A    between atoms: C_2  and  C_3
REMARK    3  A    between atoms: C_3  and  C_4
REMARK    4  A    between atoms: C_4  and  N_5
REMARK    5  A    between atoms: N_8  and  C_9
REMARK    6  A    between atoms: C_11  and  C_12
REMARK    7  A    between atoms: N_14  and  C_15
REMARK    8  A    between atoms: C_15  and  C_16
REMARK    9  A    between atoms: C_16  and  O_17
REMARK                            x       y       z     vdW  Elec       q    Type
REMARK                         _______ _______ _______ _____ _____    ______ ____
ROOT
ATOM      1  N   UNL     1       6.325   3.399  14.215  0.00  0.00    +0.000 N 
ATOM      2  C   UNL     1       5.774   4.191  15.175  0.00  0.00    +0.000 C 
ATOM      3  O   UNL     1       5.293   5.291  14.997  0.00  0.00    +0.000 OA
ATOM      4  N   UNL     1       5.869   3.596  16.465  0.00  0.00    +0.000 N 
ATOM      5  H   UNL     1       6.752   2.513  14.438  0.00  0.00    +0.000 HD
ATOM      6  H   UNL     1       6.361   2.722  16.589  0.00  0.00    +0.000 HD
ENDROOT
BRANCH   4   7
ATOM      7  C   UNL     1       5.325   4.206  17.594  0.00  0.00    +0.000 A 
ATOM      8  C   UNL     1       4.021   4.154  18.031  0.00  0.00    +0.000 A 
ATOM      9  C   UNL     1       3.981   4.916  19.218  0.00  0.00    +0.000 A 
ATOM     10  C   UNL     1       2.797   5.212  20.058  0.00  0.00    +0.000 C 
ATOM     11  N   UNL     1       5.190   5.394  19.535  0.00  0.00    +0.000 NA
ATOM     12  N   UNL     1       5.981   4.981  18.526  0.00  0.00    +0.000 N 
BRANCH  12  13
ATOM     13  C   UNL     1       7.347   5.466  18.473  0.00  0.00    +0.000 C 
BRANCH  13  14
ATOM     14  C   UNL     1       7.440   6.802  17.760  0.00  0.00    +0.000 C 
BRANCH  14  15
ATOM     15  O   UNL     1       7.634   6.573  16.363  0.00  0.00    +0.000 OA
ATOM     16  H   UNL     1       8.019   7.395  16.002  0.00  0.00    +0.000 HD
ENDBRANCH  14  15
ENDBRANCH  13  14
ENDBRANCH  12  13
ENDBRANCH   4   7
BRANCH   1  17
ATOM     17  C   UNL     1       6.445   3.893  12.856  0.00  0.00    +0.000 C 
BRANCH  17  18
ATOM     18  C   UNL     1       5.641   3.053  11.863  0.00  0.00    +0.000 C 
BRANCH  18  20
ATOM     19  C   UNL     1       3.534   3.244  10.483  0.00  0.00    +0.000 C 
ATOM     20  C   UNL     1       4.163   3.447  11.850  0.00  0.00    +0.000 C 
ENDBRANCH  18  20
ENDBRANCH  17  18
ENDBRANCH   1  17
TORSDOF 7
ENDMDL
MODEL 6
REMARK VINA RESULT:      -6.6      1.498      1.644
REMARK  Name = 
REMARK  9 active torsions:
REMARK  status: ('A' for Active; 'I' for Inactive)
REMARK    1  A    between atoms: C_1  and  C_2
REMARK    2  A    between atoms: C_2  and  C_3
REMARK    3  A    between atoms: C_3  and  C_4
REMARK    4  A    between atoms: C_4  and  N_5
REMARK    5  A    between atoms: N_8  and  C_9
REMARK    6  A    between atoms: C_11  and  C_12
REMARK    7  A    between atoms: N_14  and  C_15
REMARK    8  A    between atoms: C_15  and  C_16
REMARK    9  A    between atoms: C_16  and  O_17
REMARK                            x       y       z     vdW  Elec       q    Type
REMARK                         _______ _______ _______ _____ _____    ______ ____
ROOT
ATOM      1  N   UNL     1       2.639   3.243  17.657  0.00  0.00    +0.000 N 
ATOM      2  C   UNL     1       3.841   3.840  17.880  0.00  0.00    +0.000 C 
ATOM      3  O   UNL     1       4.581   3.617  18.817  0.00  0.00    +0.000 OA
ATOM      4  N   UNL     1       4.128   4.827  16.896  0.00  0.00    +0.000 N 
ATOM      5  H   UNL     1       2.049   3.509  16.883  0.00  0.00    +0.000 HD
ATOM      6  H   UNL     1       3.445   5.054  16.185  0.00  0.00    +0.000 HD
ENDROOT
BRANCH   4   7
ATOM      7  C   UNL     1       5.329   5.534  16.897  0.00  0.00    +0.000 A 
ATOM      8  C   UNL     1       5.614   6.706  17.558  0.00  0.00    +0.000 A 
ATOM      9  C   UNL     1       6.960   7.003  17.254  0.00  0.00    +0.000 A 
ATOM     10  C   UNL     1       7.738   8.189  17.684  0.00  0.00    +0.000 C 
ATOM     11  N   UNL     1       7.507   6.062  16.477  0.00  0.00    +0.000 NA
ATOM     12  N   UNL     1       6.497   5.200  16.246  0.00  0.00    +0.000 N 
BRANCH  12  13
ATOM     13  C   UNL     1       6.707   4.126  15.295  0.00  0.00    +0.000 C 
BRANCH  13  14
ATOM     14  C   UNL     1       6.758   4.643  13.869  0.00  0.00    +0.000 C 
BRANCH  14  15
ATOM     15  O   UNL     1       7.902   5.486  13.719  0.00  0.00    +0.000 OA
ATOM     16  H   UNL     1       7.594   6.398  13.886  0.00  0.00    +0.000 HD
ENDBRANCH  14  15
ENDBRANCH  13  14
ENDBRANCH  12  13
ENDBRANCH   4   7
BRANCH   1  17
ATOM     17  C   UNL     1       2.110   2.303  18.629  0.00  0.00    +0.000 C 
BRANCH  17  18
ATOM     18  C   UNL     1       0.860   2.839  19.329  0.00  0.00    +0.000 C 
BRANCH  18  20
ATOM     19  C   UNL     1       1.521   4.880  20.661  0.00  0.00    +0.000 C 
ATOM     20  C   UNL     1       1.180   3.401  20.714  0.00  0.00    +0.000 C 
ENDBRANCH  18  20
ENDBRANCH  17  18
ENDBRANCH   1  17
TORSDOF 7
ENDMDL
MODEL 7
REMARK VINA RESULT:      -6.5      2.568      5.978
REMARK  Name = 
REMARK  9 active torsions:
REMARK  status: ('A' for Active; 'I' for Inactive)
REMARK    1  A    between atoms: C_1  and  C_2
REMARK    2  A    between atoms: C_2  and  C_3
REMARK    3  A    between atoms: C_3  and  C_4
REMARK    4  A    between atoms: C_4  and  N_5
REMARK    5  A    between atoms: N_8  and  C_9
REMARK    6  A    between atoms: C_11  and  C_12
REMARK    7  A    between atoms: N_14  and  C_15
REMARK    8  A    between atoms: C_15  and  C_16
REMARK    9  A    between atoms: C_16  and  O_17
REMARK                            x       y       z     vdW  Elec       q    Type
REMARK                         _______ _______ _______ _____ _____    ______ ____
ROOT
ATOM      1  N   UNL     1       6.331   3.532  14.049  0.00  0.00    +0.000 N 
ATOM      2  C   UNL     1       6.038   4.345  15.100  0.00  0.00    +0.000 C 
ATOM      3  O   UNL     1       6.163   5.552  15.119  0.00  0.00    +0.000 OA
ATOM      4  N   UNL     1       5.606   3.601  16.234  0.00  0.00    +0.000 N 
ATOM      5  H   UNL     1       6.251   2.529  14.115  0.00  0.00    +0.000 HD
ATOM      6  H   UNL     1       5.607   2.590  16.213  0.00  0.00    +0.000 HD
ENDROOT
BRANCH   4   7
ATOM      7  C   UNL     1       5.205   4.230  17.412  0.00  0.00    +0.000 A 
ATOM      8  C   UNL     1       3.920   4.487  17.832  0.00  0.00    +0.000 A 
ATOM      9  C   UNL     1       4.043   5.121  19.086  0.00  0.00    +0.000 A 
ATOM     10  C   UNL     1       2.951   5.645  19.940  0.00  0.00    +0.000 C 
ATOM     11  N   UNL     1       5.324   5.232  19.457  0.00  0.00    +0.000 NA
ATOM     12  N   UNL     1       6.011   4.716  18.419  0.00  0.00    +0.000 N 
BRANCH  12  13
ATOM     13  C   UNL     1       7.457   4.823  18.423  0.00  0.00    +0.000 C 
BRANCH  13  14
ATOM     14  C   UNL     1       7.932   5.952  19.319  0.00  0.00    +0.000 C 
BRANCH  14  15
ATOM     15  O   UNL     1       8.139   5.445  20.639  0.00  0.00    +0.000 OA
ATOM     16  H   UNL     1       7.831   4.517  20.627  0.00  0.00    +0.000 HD
ENDBRANCH  14  15
ENDBRANCH  13  14
ENDBRANCH  12  13
ENDBRANCH   4   7
BRANCH   1  17
ATOM     17  C   UNL     1       6.917   4.094  12.845  0.00  0.00    +0.000 C 
BRANCH  17  18
ATOM     18  C   UNL     1       6.696   3.200  11.624  0.00  0.00    +0.000 C 
BRANCH  18  20
ATOM     19  C   UNL     1       4.203   3.210  11.219  0.00  0.00    +0.000 C 
ATOM     20  C   UNL     1       5.391   2.410  11.726  0.00  0.00    +0.000 C 
ENDBRANCH  18  20
ENDBRANCH  17  18
ENDBRANCH   1  17
TORSDOF 7
ENDMDL
MODEL 8
REMARK VINA RESULT:      -6.5      1.155      1.231
REMARK  Name = 
REMARK  9 active torsions:
REMARK  status: ('A' for Active; 'I' for Inactive)
REMARK    1  A    between atoms: C_1  and  C_2
REMARK    2  A    between atoms: C_2  and  C_3
REMARK    3  A    between atoms: C_3  and  C_4
REMARK    4  A    between atoms: C_4  and  N_5
REMARK    5  A    between atoms: N_8  and  C_9
REMARK    6  A    between atoms: C_11  and  C_12
REMARK    7  A    between atoms: N_14  and  C_15
REMARK    8  A    between atoms: C_15  and  C_16
REMARK    9  A    between atoms: C_16  and  O_17
REMARK                            x       y       z     vdW  Elec       q    Type
REMARK                         _______ _______ _______ _____ _____    ______ ____
ROOT
ATOM      1  N   UNL     1       4.054   2.434  18.694  0.00  0.00    +0.000 N 
ATOM      2  C   UNL     1       4.531   3.540  18.062  0.00  0.00    +0.000 C 
ATOM      3  O   UNL     1       3.932   4.198  17.235  0.00  0.00    +0.000 OA
ATOM      4  N   UNL     1       5.871   3.827  18.444  0.00  0.00    +0.000 N 
ATOM      5  H   UNL     1       4.621   1.904  19.338  0.00  0.00    +0.000 HD
ATOM      6  H   UNL     1       6.371   3.203  19.063  0.00  0.00    +0.000 HD
ENDROOT
BRANCH   4   7
ATOM      7  C   UNL     1       6.547   4.945  17.959  0.00  0.00    +0.000 A 
ATOM      8  C   UNL     1       6.843   6.107  18.635  0.00  0.00    +0.000 A 
ATOM      9  C   UNL     1       7.546   6.918  17.719  0.00  0.00    +0.000 A 
ATOM     10  C   UNL     1       8.051   8.293  17.939  0.00  0.00    +0.000 C 
ATOM     11  N   UNL     1       7.718   6.298  16.545  0.00  0.00    +0.000 NA
ATOM     12  N   UNL     1       7.080   5.121  16.700  0.00  0.00    +0.000 N 
BRANCH  12  13
ATOM     13  C   UNL     1       6.934   4.255  15.546  0.00  0.00    +0.000 C 
BRANCH  13  14
ATOM     14  C   UNL     1       6.264   4.973  14.389  0.00  0.00    +0.000 C 
BRANCH  14  15
ATOM     15  O   UNL     1       5.318   5.910  14.907  0.00  0.00    +0.000 OA
ATOM     16  H   UNL     1       4.805   6.233  14.140  0.00  0.00    +0.000 HD
ENDBRANCH  14  15
ENDBRANCH  13  14
ENDBRANCH  12  13
ENDBRANCH   4   7
BRANCH   1  17
ATOM     17  C   UNL     1       2.751   1.904  18.335  0.00  0.00    +0.000 C 
BRANCH  17  18
ATOM     18  C   UNL     1       1.640   2.439  19.239  0.00  0.00    +0.000 C 
BRANCH  18  20
ATOM     19  C   UNL     1       1.843   3.949  21.254  0.00  0.00    +0.000 C 
ATOM     20  C   UNL     1       2.099   2.561  20.693  0.00  0.00    +0.000 C 
ENDBRANCH  18  20
ENDBRANCH  17  18
ENDBRANCH   1  17
TORSDOF 7
ENDMDL
MODEL 9
REMARK VINA RESULT:      -6.5      1.751      3.207
REMARK  Name = 
REMARK  9 active torsions:
REMARK  status: ('A' for Active; 'I' for Inactive)
REMARK    1  A    between atoms: C_1  and  C_2
REMARK    2  A    between atoms: C_2  and  C_3
REMARK    3  A    between atoms: C_3  and  C_4
REMARK    4  A    between atoms: C_4  and  N_5
REMARK    5  A    between atoms: N_8  and  C_9
REMARK    6  A    between atoms: C_11  and  C_12
REMARK    7  A    between atoms: N_14  and  C_15
REMARK    8  A    between atoms: C_15  and  C_16
REMARK    9  A    between atoms: C_16  and  O_17
REMARK                            x       y       z     vdW  Elec       q    Type
REMARK                         _______ _______ _______ _____ _____    ______ ____
ROOT
ATOM      1  N   UNL     1       2.971   5.510  19.681  0.00  0.00    +0.000 N 
ATOM      2  C   UNL     1       3.884   4.901  18.877  0.00  0.00    +0.000 C 
ATOM      3  O   UNL     1       4.269   3.755  18.982  0.00  0.00    +0.000 OA
ATOM      4  N   UNL     1       4.400   5.796  17.897  0.00  0.00    +0.000 N 
ATOM      5  H   UNL     1       2.730   6.483  19.569  0.00  0.00    +0.000 HD
ATOM      6  H   UNL     1       4.128   6.770  17.901  0.00  0.00    +0.000 HD
ENDROOT
BRANCH   4   7
ATOM      7  C   UNL     1       5.314   5.376  16.933  0.00  0.00    +0.000 A 
ATOM      8  C   UNL     1       5.044   4.899  15.670  0.00  0.00    +0.000 A 
ATOM      9  C   UNL     1       6.298   4.628  15.084  0.00  0.00    +0.000 A 
ATOM     10  C   UNL     1       6.559   4.052  13.743  0.00  0.00    +0.000 C 
ATOM     11  N   UNL     1       7.305   4.943  15.907  0.00  0.00    +0.000 NA
ATOM     12  N   UNL     1       6.689   5.364  17.030  0.00  0.00    +0.000 N 
BRANCH  12  13
ATOM     13  C   UNL     1       7.498   5.639  18.202  0.00  0.00    +0.000 C 
BRANCH  13  14
ATOM     14  C   UNL     1       7.919   7.095  18.261  0.00  0.00    +0.000 C 
BRANCH  14  15
ATOM     15  O   UNL     1       7.737   7.687  16.973  0.00  0.00    +0.000 OA
ATOM     16  H   UNL     1       6.972   8.288  17.054  0.00  0.00    +0.000 HD
ENDBRANCH  14  15
ENDBRANCH  13  14
ENDBRANCH  12  13
ENDBRANCH   4   7
BRANCH   1  17
ATOM     17  C   UNL     1       2.431   4.798  20.826  0.00  0.00    +0.000 C 
BRANCH  17  18
ATOM     18  C   UNL     1       1.036   4.236  20.551  0.00  0.00    +0.000 C 
BRANCH  18  20
ATOM     19  C   UNL     1       0.951   2.445  18.771  0.00  0.00    +0.000 C 
ATOM     20  C   UNL     1       1.075   2.735  20.256  0.00  0.00    +0.000 C 
ENDBRANCH  18  20
ENDBRANCH  17  18
ENDBRANCH   1  17
TORSDOF 7
ENDMDL
