MODEL 1
REMARK VINA RESULT:      -6.8      0.000      0.000
REMARK  Name = 
REMARK  7 active torsions:
REMARK  status: ('A' for Active; 'I' for Inactive)
REMARK    1  A    between atoms: C_2  and  C_11
REMARK    2  A    between atoms: N_3  and  C_4
REMARK    3  A    between atoms: C_14  and  N_15
REMARK    4  A    between atoms: N_15  and  C_16
REMARK    5  A    between atoms: C_16  and  C_17
REMARK    6  A    between atoms: C_17  and  C_18
REMARK    7  A    between atoms: C_18  and  O_19
REMARK                            x       y       z     vdW  Elec       q    Type
REMARK                         _______ _______ _______ _____ _____    ______ ____
ROOT
ATOM      1  C   UNL     1       5.562   4.892  17.028  0.00  0.00    +0.000 A 
ATOM      2  C   UNL     1       6.901   4.514  17.106  0.00  0.00    +0.000 A 
ATOM      3  N   UNL     1       7.760   4.599  16.063  0.00  0.00    +0.000 NA
ATOM      4  C   UNL     1       7.248   5.074  14.911  0.00  0.00    +0.000 A 
ATOM      5  C   UNL     1       5.907   5.495  14.858  0.00  0.00    +0.000 A 
ATOM      6  N   UNL     1       5.022   5.402  15.894  0.00  0.00    +0.000 NA
ENDROOT
BRANCH   1   8
ATOM      7  O   UNL     1       4.857   5.583  19.122  0.00  0.00    +0.000 OA
ATOM      8  C   UNL     1       4.729   4.733  18.245  0.00  0.00    +0.000 C 
ATOM      9  N   UNL     1       3.915   3.614  18.322  0.00  0.00    +0.000 N 
ATOM     10  H   UNL     1       4.042   2.896  17.611  0.00  0.00    +0.000 HD
BRANCH   9  11
ATOM     11  C   UNL     1       3.036   3.322  19.407  0.00  0.00    +0.000 A 
ATOM     12  C   UNL     1       3.512   2.771  20.603  0.00  0.00    +0.000 A 
ATOM     13  C   UNL     1       2.651   2.453  21.654  0.00  0.00    +0.000 A 
ATOM     14  C   UNL     1       1.289   2.693  21.532  0.00  0.00    +0.000 A 
ATOM     15  C   UNL     1       0.792   3.262  20.359  0.00  0.00    +0.000 A 
ATOM     16  C   UNL     1       1.660   3.581  19.304  0.00  0.00    +0.000 A 
ATOM     17 CL   UNL     1       0.974   4.254  17.865  0.00  0.00    +0.000 Cl
ENDBRANCH   9  11
ENDBRANCH   1   8
BRANCH   4  18
ATOM     18  N   UNL     1       8.060   5.149  13.777  0.00  0.00    +0.000 N 
ATOM     19  H   UNL     1       8.831   4.491  13.844  0.00  0.00    +0.000 HD
BRANCH  18  20
ATOM     20  C   UNL     1       7.369   5.158  12.486  0.00  0.00    +0.000 C 
BRANCH  20  21
ATOM     21  C   UNL     1       7.205   3.768  11.877  0.00  0.00    +0.000 C 
BRANCH  21  22
ATOM     22  C   UNL     1       5.825   3.154  12.064  0.00  0.00    +0.000 C 
BRANCH  22  23
ATOM     23  O   UNL     1       5.837   1.766  11.766  0.00  0.00    +0.000 OA
ATOM     24  H   UNL     1       6.010   1.302  12.612  0.00  0.00    +0.000 HD
ENDBRANCH  22  23
ENDBRANCH  21  22
ENDBRANCH  20  21
ENDBRANCH  18  20
ENDBRANCH   4  18
TORSDOF 7
ENDMDL
MODEL 2
REMARK VINA RESULT:      -6.7      0.651      1.064
REMARK  Name = 
REMARK  7 active torsions:
REMARK  status: ('A' for Active; 'I' for Inactive)
REMARK    1  A    between atoms: C_2  and  C_11
REMARK    2  A    between atoms: N_3  and  C_4
REMARK    3  A    between atoms: C_14  and  N_15
REMARK    4  A    between atoms: N_15  and  C_16
REMARK    5  A    between atoms: C_16  and  C_17
REMARK    6  A    between atoms: C_17  and  C_18
REMARK    7  A    between atoms: C_18  and  O_19
REMARK                            x       y       z     vdW  Elec       q    Type
REMARK                         _______ _______ _______ _____ _____    ______ ____
ROOT
ATOM      1  C   UNL     1       5.521   4.945  16.956  0.00  0.00    +0.000 A 
ATOM      2  C   UNL     1       5.142   5.764  15.894  0.00  0.00    +0.000 A 
ATOM      3  N   UNL     1       5.904   5.951  14.790  0.00  0.00    +0.000 NA
ATOM      4  C   UNL     1       7.081   5.293  14.764  0.00  0.00    +0.000 A 
ATOM      5  C   UNL     1       7.429   4.433  15.820  0.00  0.00    +0.000 A 
ATOM      6  N   UNL     1       6.682   4.246  16.948  0.00  0.00    +0.000 NA
ENDROOT
BRANCH   1   8
ATOM      7  O   UNL     1       4.450   5.849  18.798  0.00  0.00    +0.000 OA
ATOM      8  C   UNL     1       4.596   4.842  18.110  0.00  0.00    +0.000 C 
ATOM      9  N   UNL     1       4.012   3.609  18.355  0.00  0.00    +0.000 N 
ATOM     10  H   UNL     1       4.360   2.815  17.822  0.00  0.00    +0.000 HD
BRANCH   9  11
ATOM     11  C   UNL     1       3.083   3.345  19.405  0.00  0.00    +0.000 A 
ATOM     12  C   UNL     1       3.496   2.780  20.618  0.00  0.00    +0.000 A 
ATOM     13  C   UNL     1       2.586   2.489  21.636  0.00  0.00    +0.000 A 
ATOM     14  C   UNL     1       1.237   2.770  21.461  0.00  0.00    +0.000 A 
ATOM     15  C   UNL     1       0.803   3.354  20.271  0.00  0.00    +0.000 A 
ATOM     16  C   UNL     1       1.720   3.646  19.250  0.00  0.00    +0.000 A 
ATOM     17 CL   UNL     1       1.111   4.338  17.787  0.00  0.00    +0.000 Cl
ENDBRANCH   9  11
ENDBRANCH   1   8
BRANCH   4  18
ATOM     18  N   UNL     1       7.942   5.469  13.679  0.00  0.00    +0.000 N 
ATOM     19  H   UNL     1       8.859   5.082  13.883  0.00  0.00    +0.000 HD
BRANCH  18  20
ATOM     20  C   UNL     1       7.405   5.119  12.363  0.00  0.00    +0.000 C 
BRANCH  20  21
ATOM     21  C   UNL     1       7.154   3.623  12.190  0.00  0.00    +0.000 C 
BRANCH  21  22
ATOM     22  C   UNL     1       5.686   3.223  12.191  0.00  0.00    +0.000 C 
BRANCH  22  23
ATOM     23  O   UNL     1       5.482   2.017  11.472  0.00  0.00    +0.000 OA
ATOM     24  H   UNL     1       4.767   1.533  11.937  0.00  0.00    +0.000 HD
ENDBRANCH  22  23
ENDBRANCH  21  22
ENDBRANCH  20  21
ENDBRANCH  18  20
ENDBRANCH   4  18
TORSDOF 7
ENDMDL
MODEL 3
REMARK VINA RESULT:      -6.6      1.339      1.363
REMARK  Name = 
REMARK  7 active torsions:
REMARK  status: ('A' for Active; 'I' for Inactive)
REMARK    1  A    between atoms: C_2  and  C_11
REMARK    2  A    between atoms: N_3  and  C_4
REMARK    3  A    between atoms: C_14  and  N_15
REMARK    4  A    between atoms: N_15  and  C_16
REMARK    5  A    between atoms: C_16  and  C_17
REMARK    6  A    between atoms: C_17  and  C_18
REMARK    7  A    between atoms: C_18  and  O_19
REMARK                            x       y       z     vdW  Elec       q    Type
REMARK                         _______ _______ _______ _____ _____    ______ ____
ROOT
ATOM      1  C   UNL     1       5.958   4.436  16.608  0.00  0.00    +0.000 A 
ATOM      2  C   UNL     1       7.029   5.301  16.392  0.00  0.00    +0.000 A 
ATOM      3  N   UNL     1       7.621   5.465  15.185  0.00  0.00    +0.000 NA
ATOM      4  C   UNL     1       7.116   4.732  14.173  0.00  0.00    +0.000 A 
ATOM      5  C   UNL     1       6.004   3.899  14.394  0.00  0.00    +0.000 A 
ATOM      6  N   UNL     1       5.407   3.708  15.607  0.00  0.00    +0.000 NA
ENDROOT
BRANCH   1   8
ATOM      7  O   UNL     1       6.191   4.579  18.907  0.00  0.00    +0.000 OA
ATOM      8  C   UNL     1       5.415   4.342  17.986  0.00  0.00    +0.000 C 
ATOM      9  N   UNL     1       4.096   3.941  18.128  0.00  0.00    +0.000 N 
ATOM     10  H   UNL     1       3.621   3.598  17.296  0.00  0.00    +0.000 HD
BRANCH   9  11
ATOM     11  C   UNL     1       3.413   3.823  19.374  0.00  0.00    +0.000 A 
ATOM     12  C   UNL     1       3.460   2.640  20.122  0.00  0.00    +0.000 A 
ATOM     13  C   UNL     1       2.766   2.509  21.326  0.00  0.00    +0.000 A 
ATOM     14  C   UNL     1       2.016   3.571  21.814  0.00  0.00    +0.000 A 
ATOM     15  C   UNL     1       1.972   4.769  21.100  0.00  0.00    +0.000 A 
ATOM     16  C   UNL     1       2.670   4.898  19.890  0.00  0.00    +0.000 A 
ATOM     17 CL   UNL     1       2.546   6.399  19.038  0.00  0.00    +0.000 Cl
ENDBRANCH   9  11
ENDBRANCH   1   8
BRANCH   4  18
ATOM     18  N   UNL     1       7.700   4.814  12.907  0.00  0.00    +0.000 N 
ATOM     19  H   UNL     1       8.668   4.506  12.940  0.00  0.00    +0.000 HD
BRANCH  18  20
ATOM     20  C   UNL     1       6.917   4.268  11.797  0.00  0.00    +0.000 C 
BRANCH  20  21
ATOM     21  C   UNL     1       7.230   2.804  11.498  0.00  0.00    +0.000 C 
BRANCH  21  22
ATOM     22  C   UNL     1       6.005   1.913  11.348  0.00  0.00    +0.000 C 
BRANCH  22  23
ATOM     23  O   UNL     1       6.371   0.543  11.291  0.00  0.00    +0.000 OA
ATOM     24  H   UNL     1       7.005   0.394  12.024  0.00  0.00    +0.000 HD
ENDBRANCH  22  23
ENDBRANCH  21  22
ENDBRANCH  20  21
ENDBRANCH  18  20
ENDBRANCH   4  18
TORSDOF 7
ENDMDL
MODEL 4
REMARK VINA RESULT:      -6.5      4.358      5.758
REMARK  Name = 
REMARK  7 active torsions:
REMARK  status: ('A' for Active; 'I' for Inactive)
REMARK    1  A    between atoms: C_2  and  C_11
REMARK    2  A    between atoms: N_3  and  C_4
REMARK    3  A    between atoms: C_14  and  N_15
REMARK    4  A    between atoms: N_15  and  C_16
REMARK    5  A    between atoms: C_16  and  C_17
REMARK    6  A    between atoms: C_17  and  C_18
REMARK    7  A    between atoms: C_18  and  O_19
REMARK                            x       y       z     vdW  Elec       q    Type
REMARK                         _______ _______ _______ _____ _____    ______ ____
ROOT
ATOM      1  C   UNL     1       2.939   6.012  19.250  0.00  0.00    +0.000 A 
ATOM      2  C   UNL     1       3.599   4.906  19.782  0.00  0.00    +0.000 A 
ATOM      3  N   UNL     1       4.496   4.168  19.086  0.00  0.00    +0.000 NA
ATOM      4  C   UNL     1       4.726   4.559  17.816  0.00  0.00    +0.000 A 
ATOM      5  C   UNL     1       4.089   5.705  17.307  0.00  0.00    +0.000 A 
ATOM      6  N   UNL     1       3.170   6.450  17.989  0.00  0.00    +0.000 NA
ENDROOT
BRANCH   1   8
ATOM      7  O   UNL     1       1.255   6.026  20.838  0.00  0.00    +0.000 OA
ATOM      8  C   UNL     1       1.970   6.720  20.121  0.00  0.00    +0.000 C 
ATOM      9  N   UNL     1       1.907   8.101  20.017  0.00  0.00    +0.000 N 
ATOM     10  H   UNL     1       2.421   8.535  19.254  0.00  0.00    +0.000 HD
BRANCH   9  11
ATOM     11  C   UNL     1       1.052   8.936  20.796  0.00  0.00    +0.000 A 
ATOM     12  C   UNL     1       1.042   8.868  22.194  0.00  0.00    +0.000 A 
ATOM     13  C   UNL     1       0.183   9.659  22.959  0.00  0.00    +0.000 A 
ATOM     14  C   UNL     1      -0.681  10.549  22.334  0.00  0.00    +0.000 A 
ATOM     15  C   UNL     1      -0.675  10.653  20.942  0.00  0.00    +0.000 A 
ATOM     16  C   UNL     1       0.190   9.856  20.176  0.00  0.00    +0.000 A 
ATOM     17 CL   UNL     1       0.123  10.010  18.455  0.00  0.00    +0.000 Cl
ENDBRANCH   9  11
ENDBRANCH   1   8
BRANCH   4  18
ATOM     18  N   UNL     1       5.605   3.823  17.019  0.00  0.00    +0.000 N 
ATOM     19  H   UNL     1       5.111   3.400  16.238  0.00  0.00    +0.000 HD
BRANCH  18  20
ATOM     20  C   UNL     1       6.865   4.481  16.668  0.00  0.00    +0.000 C 
BRANCH  20  21
ATOM     21  C   UNL     1       7.860   4.540  17.824  0.00  0.00    +0.000 C 
BRANCH  21  22
ATOM     22  C   UNL     1       7.735   5.777  18.702  0.00  0.00    +0.000 C 
BRANCH  22  23
ATOM     23  O   UNL     1       7.241   5.444  19.990  0.00  0.00    +0.000 OA
ATOM     24  H   UNL     1       7.733   4.646  20.279  0.00  0.00    +0.000 HD
ENDBRANCH  22  23
ENDBRANCH  21  22
ENDBRANCH  20  21
ENDBRANCH  18  20
ENDBRANCH   4  18
TORSDOF 7
ENDMDL
MODEL 5
REMARK VINA RESULT:      -6.5      1.370      1.721
REMARK  Name = 
REMARK  7 active torsions:
REMARK  status: ('A' for Active; 'I' for Inactive)
REMARK    1  A    between atoms: C_2  and  C_11
REMARK    2  A    between atoms: N_3  and  C_4
REMARK    3  A    between atoms: C_14  and  N_15
REMARK    4  A    between atoms: N_15  and  C_16
REMARK    5  A    between atoms: C_16  and  C_17
REMARK    6  A    between atoms: C_17  and  C_18
REMARK    7  A    between atoms: C_18  and  O_19
REMARK                            x       y       z     vdW  Elec       q    Type
REMARK                         _______ _______ _______ _____ _____    ______ ____
ROOT
ATOM      1  C   UNL     1       5.428   4.626  16.674  0.00  0.00    +0.000 A 
ATOM      2  C   UNL     1       6.807   4.828  16.700  0.00  0.00    +0.000 A 
ATOM      3  N   UNL     1       7.571   4.890  15.584  0.00  0.00    +0.000 NA
ATOM      4  C   UNL     1       6.921   4.740  14.412  0.00  0.00    +0.000 A 
ATOM      5  C   UNL     1       5.523   4.584  14.398  0.00  0.00    +0.000 A 
ATOM      6  N   UNL     1       4.740   4.502  15.514  0.00  0.00    +0.000 NA
ENDROOT
BRANCH   1   8
ATOM      7  O   UNL     1       5.093   5.336  18.852  0.00  0.00    +0.000 OA
ATOM      8  C   UNL     1       4.717   4.564  17.974  0.00  0.00    +0.000 C 
ATOM      9  N   UNL     1       3.724   3.607  18.116  0.00  0.00    +0.000 N 
ATOM     10  H   UNL     1       3.639   2.911  17.378  0.00  0.00    +0.000 HD
BRANCH   9  11
ATOM     11  C   UNL     1       2.929   3.428  19.286  0.00  0.00    +0.000 A 
ATOM     12  C   UNL     1       1.673   4.035  19.414  0.00  0.00    +0.000 A 
ATOM     13  C   UNL     1       0.906   3.890  20.571  0.00  0.00    +0.000 A 
ATOM     14  C   UNL     1       1.379   3.120  21.625  0.00  0.00    +0.000 A 
ATOM     15  C   UNL     1       2.617   2.486  21.514  0.00  0.00    +0.000 A 
ATOM     16  C   UNL     1       3.386   2.633  20.350  0.00  0.00    +0.000 A 
ATOM     17 CL   UNL     1       4.926   1.848  20.291  0.00  0.00    +0.000 Cl
ENDBRANCH   9  11
ENDBRANCH   1   8
BRANCH   4  18
ATOM     18  N   UNL     1       7.646   4.748  13.218  0.00  0.00    +0.000 N 
ATOM     19  H   UNL     1       8.562   4.331  13.353  0.00  0.00    +0.000 HD
BRANCH  18  20
ATOM     20  C   UNL     1       6.931   4.292  12.025  0.00  0.00    +0.000 C 
BRANCH  20  21
ATOM     21  C   UNL     1       6.925   2.774  11.866  0.00  0.00    +0.000 C 
BRANCH  21  22
ATOM     22  C   UNL     1       5.589   2.189  11.430  0.00  0.00    +0.000 C 
BRANCH  22  23
ATOM     23  O   UNL     1       4.552   3.152  11.526  0.00  0.00    +0.000 OA
ATOM     24  H   UNL     1       3.835   2.850  10.928  0.00  0.00    +0.000 HD
ENDBRANCH  22  23
ENDBRANCH  21  22
ENDBRANCH  20  21
ENDBRANCH  18  20
ENDBRANCH   4  18
TORSDOF 7
ENDMDL
MODEL 6
REMARK VINA RESULT:      -6.4      5.080      8.704
REMARK  Name = 
REMARK  7 active torsions:
REMARK  status: ('A' for Active; 'I' for Inactive)
REMARK    1  A    between atoms: C_2  and  C_11
REMARK    2  A    between atoms: N_3  and  C_4
REMARK    3  A    between atoms: C_14  and  N_15
REMARK    4  A    between atoms: N_15  and  C_16
REMARK    5  A    between atoms: C_16  and  C_17
REMARK    6  A    between atoms: C_17  and  C_18
REMARK    7  A    between atoms: C_18  and  O_19
REMARK                            x       y       z     vdW  Elec       q    Type
REMARK                         _______ _______ _______ _____ _____    ______ ____
ROOT
ATOM      1  C   UNL     1       2.417   7.962  18.318  0.00  0.00    +0.000 A 
ATOM      2  C   UNL     1       1.958   7.921  19.634  0.00  0.00    +0.000 A 
ATOM      3  N   UNL     1       1.222   8.908  20.196  0.00  0.00    +0.000 NA
ATOM      4  C   UNL     1       0.948   9.965  19.407  0.00  0.00    +0.000 A 
ATOM      5  C   UNL     1       1.376   9.974  18.067  0.00  0.00    +0.000 A 
ATOM      6  N   UNL     1       2.133   8.995  17.489  0.00  0.00    +0.000 NA
ENDROOT
BRANCH   1   8
ATOM      7  O   UNL     1       2.768   5.693  18.020  0.00  0.00    +0.000 OA
ATOM      8  C   UNL     1       3.226   6.817  17.835  0.00  0.00    +0.000 C 
ATOM      9  N   UNL     1       4.457   7.100  17.263  0.00  0.00    +0.000 N 
ATOM     10  H   UNL     1       4.797   8.056  17.338  0.00  0.00    +0.000 HD
BRANCH   9  11
ATOM     11  C   UNL     1       5.347   6.122  16.727  0.00  0.00    +0.000 A 
ATOM     12  C   UNL     1       5.351   5.812  15.362  0.00  0.00    +0.000 A 
ATOM     13  C   UNL     1       6.197   4.832  14.838  0.00  0.00    +0.000 A 
ATOM     14  C   UNL     1       7.069   4.150  15.675  0.00  0.00    +0.000 A 
ATOM     15  C   UNL     1       7.102   4.457  17.035  0.00  0.00    +0.000 A 
ATOM     16  C   UNL     1       6.250   5.441  17.559  0.00  0.00    +0.000 A 
ATOM     17 CL   UNL     1       6.317   5.750  19.260  0.00  0.00    +0.000 Cl
ENDBRANCH   9  11
ENDBRANCH   1   8
BRANCH   4  18
ATOM     18  N   UNL     1       0.231  11.045  19.929  0.00  0.00    +0.000 N 
ATOM     19  H   UNL     1      -0.740  11.006  19.632  0.00  0.00    +0.000 HD
BRANCH  18  20
ATOM     20  C   UNL     1       0.429  11.326  21.352  0.00  0.00    +0.000 C 
BRANCH  20  21
ATOM     21  C   UNL     1      -0.797  11.014  22.206  0.00  0.00    +0.000 C 
BRANCH  21  22
ATOM     22  C   UNL     1      -0.566   9.968  23.287  0.00  0.00    +0.000 C 
BRANCH  22  23
ATOM     23  O   UNL     1       0.806   9.617  23.376  0.00  0.00    +0.000 OA
ATOM     24  H   UNL     1       0.839   8.714  23.756  0.00  0.00    +0.000 HD
ENDBRANCH  22  23
ENDBRANCH  21  22
ENDBRANCH  20  21
ENDBRANCH  18  20
ENDBRANCH   4  18
TORSDOF 7
ENDMDL
MODEL 7
REMARK VINA RESULT:      -6.4      3.883      5.311
REMARK  Name = 
REMARK  7 active torsions:
REMARK  status: ('A' for Active; 'I' for Inactive)
REMARK    1  A    between atoms: C_2  and  C_11
REMARK    2  A    between atoms: N_3  and  C_4
REMARK    3  A    between atoms: C_14  and  N_15
REMARK    4  A    between atoms: N_15  and  C_16
REMARK    5  A    between atoms: C_16  and  C_17
REMARK    6  A    between atoms: C_17  and  C_18
REMARK    7  A    between atoms: C_18  and  O_19
REMARK                            x       y       z     vdW  Elec       q    Type
REMARK                         _______ _______ _______ _____ _____    ______ ____
ROOT
ATOM      1  C   UNL     1       6.193   5.896  18.422  0.00  0.00    +0.000 A 
ATOM      2  C   UNL     1       5.817   6.817  17.446  0.00  0.00    +0.000 A 
ATOM      3  N   UNL     1       6.582   7.875  17.087  0.00  0.00    +0.000 NA
ATOM      4  C   UNL     1       7.756   8.005  17.737  0.00  0.00    +0.000 A 
ATOM      5  C   UNL     1       8.145   7.042  18.686  0.00  0.00    +0.000 A 
ATOM      6  N   UNL     1       7.379   5.980  19.072  0.00  0.00    +0.000 NA
ENDROOT
BRANCH   1   8
ATOM      7  O   UNL     1       5.729   3.771  19.213  0.00  0.00    +0.000 OA
ATOM      8  C   UNL     1       5.251   4.792  18.727  0.00  0.00    +0.000 C 
ATOM      9  N   UNL     1       3.920   4.975  18.390  0.00  0.00    +0.000 N 
ATOM     10  H   UNL     1       3.690   5.791  17.826  0.00  0.00    +0.000 HD
BRANCH   9  11
ATOM     11  C   UNL     1       2.882   4.028  18.634  0.00  0.00    +0.000 A 
ATOM     12  C   UNL     1       2.795   2.837  17.904  0.00  0.00    +0.000 A 
ATOM     13  C   UNL     1       1.762   1.922  18.117  0.00  0.00    +0.000 A 
ATOM     14  C   UNL     1       0.797   2.179  19.080  0.00  0.00    +0.000 A 
ATOM     15  C   UNL     1       0.873   3.348  19.839  0.00  0.00    +0.000 A 
ATOM     16  C   UNL     1       1.912   4.266  19.622  0.00  0.00    +0.000 A 
ATOM     17 CL   UNL     1       1.929   5.710  20.573  0.00  0.00    +0.000 Cl
ENDBRANCH   9  11
ENDBRANCH   1   8
BRANCH   4  18
ATOM     18  N   UNL     1       8.581   9.096  17.454  0.00  0.00    +0.000 N 
ATOM     19  H   UNL     1       8.312   9.530  16.576  0.00  0.00    +0.000 HD
BRANCH  18  20
ATOM     20  C   UNL     1       8.819  10.031  18.556  0.00  0.00    +0.000 C 
BRANCH  20  21
ATOM     21  C   UNL     1       9.829  11.123  18.216  0.00  0.00    +0.000 C 
BRANCH  21  22
ATOM     22  C   UNL     1       9.211  12.443  17.778  0.00  0.00    +0.000 C 
BRANCH  22  23
ATOM     23  O   UNL     1       7.915  12.246  17.234  0.00  0.00    +0.000 OA
ATOM     24  H   UNL     1       7.283  12.653  17.865  0.00  0.00    +0.000 HD
ENDBRANCH  22  23
ENDBRANCH  21  22
ENDBRANCH  20  21
ENDBRANCH  18  20
ENDBRANCH   4  18
TORSDOF 7
ENDMDL
MODEL 8
REMARK VINA RESULT:      -6.4      4.244      5.068
REMARK  Name = 
REMARK  7 active torsions:
REMARK  status: ('A' for Active; 'I' for Inactive)
REMARK    1  A    between atoms: C_2  and  C_11
REMARK    2  A    between atoms: N_3  and  C_4
REMARK    3  A    between atoms: C_14  and  N_15
REMARK    4  A    between atoms: N_15  and  C_16
REMARK    5  A    between atoms: C_16  and  C_17
REMARK    6  A    between atoms: C_17  and  C_18
REMARK    7  A    between atoms: C_18  and  O_19
REMARK                            x       y       z     vdW  Elec       q    Type
REMARK                         _______ _______ _______ _____ _____    ______ ____
ROOT
ATOM      1  C   UNL     1       3.060   5.605  19.216  0.00  0.00    +0.000 A 
ATOM      2  C   UNL     1       2.564   4.942  18.095  0.00  0.00    +0.000 A 
ATOM      3  N   UNL     1       3.337   4.199  17.268  0.00  0.00    +0.000 NA
ATOM      4  C   UNL     1       4.646   4.129  17.584  0.00  0.00    +0.000 A 
ATOM      5  C   UNL     1       5.125   4.763  18.744  0.00  0.00    +0.000 A 
ATOM      6  N   UNL     1       4.363   5.530  19.579  0.00  0.00    +0.000 NA
ENDROOT
BRANCH   1   8
ATOM      7  O   UNL     1       1.355   5.771  20.773  0.00  0.00    +0.000 OA
ATOM      8  C   UNL     1       2.103   6.396  20.027  0.00  0.00    +0.000 C 
ATOM      9  N   UNL     1       2.089   7.770  19.840  0.00  0.00    +0.000 N 
ATOM     10  H   UNL     1       2.629   8.139  19.060  0.00  0.00    +0.000 HD
BRANCH   9  11
ATOM     11  C   UNL     1       1.252   8.678  20.553  0.00  0.00    +0.000 A 
ATOM     12  C   UNL     1       1.173   8.653  21.951  0.00  0.00    +0.000 A 
ATOM     13  C   UNL     1       0.330   9.518  22.651  0.00  0.00    +0.000 A 
ATOM     14  C   UNL     1      -0.446  10.438  21.961  0.00  0.00    +0.000 A 
ATOM     15  C   UNL     1      -0.369  10.500  20.569  0.00  0.00    +0.000 A 
ATOM     16  C   UNL     1       0.479   9.630  19.868  0.00  0.00    +0.000 A 
ATOM     17 CL   UNL     1       0.503   9.736  18.142  0.00  0.00    +0.000 Cl
ENDBRANCH   9  11
ENDBRANCH   1   8
BRANCH   4  18
ATOM     18  N   UNL     1       5.516   3.417  16.754  0.00  0.00    +0.000 N 
ATOM     19  H   UNL     1       5.001   2.763  16.172  0.00  0.00    +0.000 HD
BRANCH  18  20
ATOM     20  C   UNL     1       6.527   4.206  16.048  0.00  0.00    +0.000 C 
BRANCH  20  21
ATOM     21  C   UNL     1       6.029   4.782  14.725  0.00  0.00    +0.000 C 
BRANCH  21  22
ATOM     22  C   UNL     1       7.044   4.733  13.592  0.00  0.00    +0.000 C 
BRANCH  22  23
ATOM     23  O   UNL     1       8.099   5.657  13.808  0.00  0.00    +0.000 OA
ATOM     24  H   UNL     1       8.346   6.009  12.927  0.00  0.00    +0.000 HD
ENDBRANCH  22  23
ENDBRANCH  21  22
ENDBRANCH  20  21
ENDBRANCH  18  20
ENDBRANCH   4  18
TORSDOF 7
ENDMDL
MODEL 9
REMARK VINA RESULT:      -6.4      4.317      5.734
REMARK  Name = 
REMARK  7 active torsions:
REMARK  status: ('A' for Active; 'I' for Inactive)
REMARK    1  A    between atoms: C_2  and  C_11
REMARK    2  A    between atoms: N_3  and  C_4
REMARK    3  A    between atoms: C_14  and  N_15
REMARK    4  A    between atoms: N_15  and  C_16
REMARK    5  A    between atoms: C_16  and  C_17
REMARK    6  A    between atoms: C_17  and  C_18
REMARK    7  A    between atoms: C_18  and  O_19
REMARK                            x       y       z     vdW  Elec       q    Type
REMARK                         _______ _______ _______ _____ _____    ______ ____
ROOT
ATOM      1  C   UNL     1       3.004   6.076  19.030  0.00  0.00    +0.000 A 
ATOM      2  C   UNL     1       3.642   6.863  18.073  0.00  0.00    +0.000 A 
ATOM      3  N   UNL     1       4.534   6.372  17.180  0.00  0.00    +0.000 NA
ATOM      4  C   UNL     1       4.789   5.051  17.264  0.00  0.00    +0.000 A 
ATOM      5  C   UNL     1       4.104   4.259  18.203  0.00  0.00    +0.000 A 
ATOM      6  N   UNL     1       3.214   4.740  19.121  0.00  0.00    +0.000 NA
ENDROOT
BRANCH   1   8
ATOM      7  O   UNL     1       1.415   6.027  20.713  0.00  0.00    +0.000 OA
ATOM      8  C   UNL     1       2.059   6.747  19.955  0.00  0.00    +0.000 C 
ATOM      9  N   UNL     1       1.937   8.124  19.856  0.00  0.00    +0.000 N 
ATOM     10  H   UNL     1       2.389   8.577  19.064  0.00  0.00    +0.000 HD
BRANCH   9  11
ATOM     11  C   UNL     1       1.095   8.926  20.683  0.00  0.00    +0.000 A 
ATOM     12  C   UNL     1       1.107   8.798  22.077  0.00  0.00    +0.000 A 
ATOM     13  C   UNL     1       0.261   9.557  22.888  0.00  0.00    +0.000 A 
ATOM     14  C   UNL     1      -0.610  10.474  22.315  0.00  0.00    +0.000 A 
ATOM     15  C   UNL     1      -0.625  10.638  20.929  0.00  0.00    +0.000 A 
ATOM     16  C   UNL     1       0.226   9.874  20.117  0.00  0.00    +0.000 A 
ATOM     17 CL   UNL     1       0.134  10.102  18.405  0.00  0.00    +0.000 Cl
ENDBRANCH   9  11
ENDBRANCH   1   8
BRANCH   4  18
ATOM     18  N   UNL     1       5.731   4.477  16.406  0.00  0.00    +0.000 N 
ATOM     19  H   UNL     1       5.372   4.434  15.457  0.00  0.00    +0.000 HD
BRANCH  18  20
ATOM     20  C   UNL     1       7.102   4.978  16.524  0.00  0.00    +0.000 C 
BRANCH  20  21
ATOM     21  C   UNL     1       7.738   4.690  17.882  0.00  0.00    +0.000 C 
BRANCH  21  22
ATOM     22  C   UNL     1       7.769   5.879  18.831  0.00  0.00    +0.000 C 
BRANCH  22  23
ATOM     23  O   UNL     1       7.832   5.453  20.183  0.00  0.00    +0.000 OA
ATOM     24  H   UNL     1       6.971   5.029  20.382  0.00  0.00    +0.000 HD
ENDBRANCH  22  23
ENDBRANCH  21  22
ENDBRANCH  20  21
ENDBRANCH  18  20
ENDBRANCH   4  18
TORSDOF 7
ENDMDL
