MODEL 1
REMARK VINA RESULT:      -7.2      0.000      0.000
REMARK  Name = 
REMARK  3 active torsions:
REMARK  status: ('A' for Active; 'I' for Inactive)
REMARK    1  A    between atoms: C_2  and  C_3
REMARK    2  A    between atoms: C_3  and  C_4
REMARK    3  A    between atoms: C_4  and  N_5
REMARK                            x       y       z     vdW  Elec       q    Type
REMARK                         _______ _______ _______ _____ _____    ______ ____
ROOT
ATOM      1  O   UNL     1       7.763   6.329  16.096  0.00  0.00    +0.000 OA
ATOM      2  C   UNL     1       7.248   6.436  17.209  0.00  0.00    +0.000 C 
ATOM      3  N   UNL     1       6.041   5.806  17.535  0.00  0.00    +0.000 N 
ATOM      4  C   UNL     1       5.347   5.986  18.814  0.00  0.00    +0.000 C 
ATOM      5  C   UNL     1       3.995   6.681  18.690  0.00  0.00    +0.000 C 
ATOM      6  C   UNL     1       2.981   6.026  17.761  0.00  0.00    +0.000 C 
ATOM      7  N   UNL     1       3.281   4.628  17.503  0.00  0.00    +0.000 N 
ATOM      8  C   UNL     1       2.758   3.589  18.215  0.00  0.00    +0.000 A 
ATOM      9  N   UNL     1       3.097   2.329  18.017  0.00  0.00    +0.000 NA
ATOM     10  C   UNL     1       2.375   1.481  18.835  0.00  0.00    +0.000 A 
ATOM     11  C   UNL     1       1.489   2.092  19.692  0.00  0.00    +0.000 A 
ATOM     12  S   UNL     1       1.580   3.783  19.482  0.00  0.00    +0.000 S 
ATOM     13  C   UNL     1       4.214   4.373  16.400  0.00  0.00    +0.000 C 
ATOM     14  C   UNL     1       5.691   4.597  16.765  0.00  0.00    +0.000 C 
ENDROOT
BRANCH   2  15
ATOM     15  C   UNL     1       7.930   7.215  18.321  0.00  0.00    +0.000 C 
BRANCH  15  16
ATOM     16  C   UNL     1       8.158   8.671  17.942  0.00  0.00    +0.000 C 
BRANCH  16  17
ATOM     17  N   UNL     1       8.915   9.325  19.006  0.00  0.00    +0.000 N 
ATOM     18  C   UNL     1       9.299  10.623  18.684  0.00  0.00    +0.000 A 
ATOM     19  N   UNL     1       8.518  11.381  17.909  0.00  0.00    +0.000 NA
ATOM     20  C   UNL     1       8.962  12.619  17.613  0.00  0.00    +0.000 A 
ATOM     21  C   UNL     1      10.151  13.122  18.074  0.00  0.00    +0.000 A 
ATOM     22  C   UNL     1      10.877  12.271  18.871  0.00  0.00    +0.000 A 
ATOM     23  N   UNL     1      10.477  11.023  19.185  0.00  0.00    +0.000 NA
ATOM     24  H   UNL     1       9.775   8.863  19.284  0.00  0.00    +0.000 HD
ENDBRANCH  16  17
ENDBRANCH  15  16
ENDBRANCH   2  15
TORSDOF 3
ENDMDL
MODEL 2
REMARK VINA RESULT:      -7.1      5.195      8.077
REMARK  Name = 
REMARK  3 active torsions:
REMARK  status: ('A' for Active; 'I' for Inactive)
REMARK    1  A    between atoms: C_2  and  C_3
REMARK    2  A    between atoms: C_3  and  C_4
REMARK    3  A    between atoms: C_4  and  N_5
REMARK                            x       y       z     vdW  Elec       q    Type
REMARK                         _______ _______ _______ _____ _____    ______ ____
ROOT
ATOM      1  O   UNL     1       1.537   5.884  20.882  0.00  0.00    +0.000 OA
ATOM      2  C   UNL     1       2.043   6.575  19.997  0.00  0.00    +0.000 C 
ATOM      3  N   UNL     1       1.741   7.933  19.847  0.00  0.00    +0.000 N 
ATOM      4  C   UNL     1       2.245   8.764  18.750  0.00  0.00    +0.000 C 
ATOM      5  C   UNL     1       1.158   9.268  17.807  0.00  0.00    +0.000 C 
ATOM      6  C   UNL     1       0.027  10.068  18.443  0.00  0.00    +0.000 C 
ATOM      7  N   UNL     1       0.390  10.611  19.741  0.00  0.00    +0.000 N 
ATOM      8  C   UNL     1       0.897  11.863  19.933  0.00  0.00    +0.000 A 
ATOM      9  N   UNL     1       1.290  12.315  21.108  0.00  0.00    +0.000 NA
ATOM     10  C   UNL     1       1.708  13.629  21.026  0.00  0.00    +0.000 A 
ATOM     11  C   UNL     1       1.663  14.190  19.771  0.00  0.00    +0.000 A 
ATOM     12  S   UNL     1       1.101  13.027  18.656  0.00  0.00    +0.000 S 
ATOM     13  C   UNL     1       0.181   9.715  20.883  0.00  0.00    +0.000 C 
ATOM     14  C   UNL     1       1.276   8.649  21.052  0.00  0.00    +0.000 C 
ENDROOT
BRANCH   2  15
ATOM     15  C   UNL     1       3.079   6.001  19.046  0.00  0.00    +0.000 C 
BRANCH  15  16
ATOM     16  C   UNL     1       3.633   4.672  19.538  0.00  0.00    +0.000 C 
BRANCH  16  17
ATOM     17  N   UNL     1       3.850   3.794  18.391  0.00  0.00    +0.000 N 
ATOM     18  C   UNL     1       5.057   4.032  17.742  0.00  0.00    +0.000 A 
ATOM     19  N   UNL     1       6.125   4.436  18.437  0.00  0.00    +0.000 NA
ATOM     20  C   UNL     1       7.255   4.674  17.743  0.00  0.00    +0.000 A 
ATOM     21  C   UNL     1       7.353   4.513  16.385  0.00  0.00    +0.000 A 
ATOM     22  C   UNL     1       6.206   4.086  15.763  0.00  0.00    +0.000 A 
ATOM     23  N   UNL     1       5.052   3.844  16.414  0.00  0.00    +0.000 NA
ATOM     24  H   UNL     1       3.149   3.843  17.658  0.00  0.00    +0.000 HD
ENDBRANCH  16  17
ENDBRANCH  15  16
ENDBRANCH   2  15
TORSDOF 3
ENDMDL
MODEL 3
REMARK VINA RESULT:      -7.0      1.366      1.705
REMARK  Name = 
REMARK  3 active torsions:
REMARK  status: ('A' for Active; 'I' for Inactive)
REMARK    1  A    between atoms: C_2  and  C_3
REMARK    2  A    between atoms: C_3  and  C_4
REMARK    3  A    between atoms: C_4  and  N_5
REMARK                            x       y       z     vdW  Elec       q    Type
REMARK                         _______ _______ _______ _____ _____    ______ ____
ROOT
ATOM      1  O   UNL     1       7.426   5.895  16.412  0.00  0.00    +0.000 OA
ATOM      2  C   UNL     1       6.623   6.487  17.134  0.00  0.00    +0.000 C 
ATOM      3  N   UNL     1       5.554   5.832  17.754  0.00  0.00    +0.000 N 
ATOM      4  C   UNL     1       4.523   6.515  18.540  0.00  0.00    +0.000 C 
ATOM      5  C   UNL     1       3.130   6.446  17.925  0.00  0.00    +0.000 C 
ATOM      6  C   UNL     1       2.580   5.051  17.651  0.00  0.00    +0.000 C 
ATOM      7  N   UNL     1       3.254   4.024  18.425  0.00  0.00    +0.000 N 
ATOM      8  C   UNL     1       2.817   3.565  19.633  0.00  0.00    +0.000 A 
ATOM      9  N   UNL     1       3.479   2.684  20.358  0.00  0.00    +0.000 NA
ATOM     10  C   UNL     1       2.784   2.354  21.506  0.00  0.00    +0.000 A 
ATOM     11  C   UNL     1       1.586   3.006  21.684  0.00  0.00    +0.000 A 
ATOM     12  S   UNL     1       1.334   4.082  20.383  0.00  0.00    +0.000 S 
ATOM     13  C   UNL     1       4.479   3.481  17.828  0.00  0.00    +0.000 C 
ATOM     14  C   UNL     1       5.713   4.384  18.000  0.00  0.00    +0.000 C 
ENDROOT
BRANCH   2  15
ATOM     15  C   UNL     1       6.785   7.966  17.444  0.00  0.00    +0.000 C 
BRANCH  15  16
ATOM     16  C   UNL     1       8.120   8.269  18.108  0.00  0.00    +0.000 C 
BRANCH  16  17
ATOM     17  N   UNL     1       8.694   9.465  17.497  0.00  0.00    +0.000 N 
ATOM     18  C   UNL     1       8.973  10.469  18.418  0.00  0.00    +0.000 A 
ATOM     19  N   UNL     1       9.350  10.153  19.661  0.00  0.00    +0.000 NA
ATOM     20  C   UNL     1       9.579  11.173  20.511  0.00  0.00    +0.000 A 
ATOM     21  C   UNL     1       9.452  12.492  20.157  0.00  0.00    +0.000 A 
ATOM     22  C   UNL     1       9.069  12.714  18.857  0.00  0.00    +0.000 A 
ATOM     23  N   UNL     1       8.821  11.726  17.975  0.00  0.00    +0.000 NA
ATOM     24  H   UNL     1       8.123   9.916  16.789  0.00  0.00    +0.000 HD
ENDBRANCH  16  17
ENDBRANCH  15  16
ENDBRANCH   2  15
TORSDOF 3
ENDMDL
MODEL 4
REMARK VINA RESULT:      -7.0      5.665      9.303
REMARK  Name = 
REMARK  3 active torsions:
REMARK  status: ('A' for Active; 'I' for Inactive)
REMARK    1  A    between atoms: C_2  and  C_3
REMARK    2  A    between atoms: C_3  and  C_4
REMARK    3  A    between atoms: C_4  and  N_5
REMARK                            x       y       z     vdW  Elec       q    Type
REMARK                         _______ _______ _______ _____ _____    ______ ____
ROOT
ATOM      1  O   UNL     1       2.124   6.863  20.212  0.00  0.00    +0.000 OA
ATOM      2  C   UNL     1       2.074   7.807  19.422  0.00  0.00    +0.000 C 
ATOM      3  N   UNL     1       1.335   8.965  19.690  0.00  0.00    +0.000 N 
ATOM      4  C   UNL     1       1.172  10.067  18.737  0.00  0.00    +0.000 C 
ATOM      5  C   UNL     1      -0.261  10.259  18.254  0.00  0.00    +0.000 C 
ATOM      6  C   UNL     1      -1.313  10.489  19.332  0.00  0.00    +0.000 C 
ATOM      7  N   UNL     1      -0.737  10.942  20.587  0.00  0.00    +0.000 N 
ATOM      8  C   UNL     1      -0.610  12.253  20.942  0.00  0.00    +0.000 A 
ATOM      9  N   UNL     1      -0.018  12.651  22.051  0.00  0.00    +0.000 NA
ATOM     10  C   UNL     1      -0.078  14.024  22.188  0.00  0.00    +0.000 A 
ATOM     11  C   UNL     1      -0.699  14.697  21.162  0.00  0.00    +0.000 A 
ATOM     12  S   UNL     1      -1.202  13.576  19.978  0.00  0.00    +0.000 S 
ATOM     13  C   UNL     1      -0.276   9.883  21.491  0.00  0.00    +0.000 C 
ATOM     14  C   UNL     1       1.088   9.284  21.110  0.00  0.00    +0.000 C 
ENDROOT
BRANCH   2  15
ATOM     15  C   UNL     1       2.870   7.794  18.128  0.00  0.00    +0.000 C 
BRANCH  15  16
ATOM     16  C   UNL     1       3.451   6.420  17.828  0.00  0.00    +0.000 C 
BRANCH  16  17
ATOM     17  N   UNL     1       2.363   5.446  17.775  0.00  0.00    +0.000 N 
ATOM     18  C   UNL     1       2.766   4.159  18.114  0.00  0.00    +0.000 A 
ATOM     19  N   UNL     1       3.734   3.974  19.017  0.00  0.00    +0.000 NA
ATOM     20  C   UNL     1       4.095   2.702  19.279  0.00  0.00    +0.000 A 
ATOM     21  C   UNL     1       3.515   1.615  18.677  0.00  0.00    +0.000 A 
ATOM     22  C   UNL     1       2.525   1.908  17.771  0.00  0.00    +0.000 A 
ATOM     23  N   UNL     1       2.138   3.163  17.471  0.00  0.00    +0.000 NA
ATOM     24  H   UNL     1       1.906   5.344  16.875  0.00  0.00    +0.000 HD
ENDBRANCH  16  17
ENDBRANCH  15  16
ENDBRANCH   2  15
TORSDOF 3
ENDMDL
MODEL 5
REMARK VINA RESULT:      -7.0      1.202      1.297
REMARK  Name = 
REMARK  3 active torsions:
REMARK  status: ('A' for Active; 'I' for Inactive)
REMARK    1  A    between atoms: C_2  and  C_3
REMARK    2  A    between atoms: C_3  and  C_4
REMARK    3  A    between atoms: C_4  and  N_5
REMARK                            x       y       z     vdW  Elec       q    Type
REMARK                         _______ _______ _______ _____ _____    ______ ____
ROOT
ATOM      1  O   UNL     1       7.537   5.873  16.702  0.00  0.00    +0.000 OA
ATOM      2  C   UNL     1       6.680   6.463  17.360  0.00  0.00    +0.000 C 
ATOM      3  N   UNL     1       5.585   5.800  17.924  0.00  0.00    +0.000 N 
ATOM      4  C   UNL     1       4.495   6.480  18.631  0.00  0.00    +0.000 C 
ATOM      5  C   UNL     1       3.144   6.376  17.930  0.00  0.00    +0.000 C 
ATOM      6  C   UNL     1       2.636   4.967  17.649  0.00  0.00    +0.000 C 
ATOM      7  N   UNL     1       3.276   3.965  18.483  0.00  0.00    +0.000 N 
ATOM      8  C   UNL     1       2.771   3.520  19.669  0.00  0.00    +0.000 A 
ATOM      9  N   UNL     1       3.400   2.664  20.451  0.00  0.00    +0.000 NA
ATOM     10  C   UNL     1       2.639   2.343  21.558  0.00  0.00    +0.000 A 
ATOM     11  C   UNL     1       1.422   2.977  21.648  0.00  0.00    +0.000 A 
ATOM     12  S   UNL     1       1.235   4.025  20.314  0.00  0.00    +0.000 S 
ATOM     13  C   UNL     1       4.545   3.434  17.974  0.00  0.00    +0.000 C 
ATOM     14  C   UNL     1       5.750   4.361  18.206  0.00  0.00    +0.000 C 
ENDROOT
BRANCH   2  15
ATOM     15  C   UNL     1       6.798   7.950  17.652  0.00  0.00    +0.000 C 
BRANCH  15  16
ATOM     16  C   UNL     1       8.236   8.439  17.559  0.00  0.00    +0.000 C 
BRANCH  16  17
ATOM     17  N   UNL     1       8.636   8.985  18.854  0.00  0.00    +0.000 N 
ATOM     18  C   UNL     1       9.092  10.297  18.775  0.00  0.00    +0.000 A 
ATOM     19  N   UNL     1       8.575  11.134  17.870  0.00  0.00    +0.000 NA
ATOM     20  C   UNL     1       9.080  12.383  17.830  0.00  0.00    +0.000 A 
ATOM     21  C   UNL     1      10.074  12.820  18.668  0.00  0.00    +0.000 A 
ATOM     22  C   UNL     1      10.532  11.890  19.568  0.00  0.00    +0.000 A 
ATOM     23  N   UNL     1      10.063  10.629  19.638  0.00  0.00    +0.000 NA
ATOM     24  H   UNL     1       9.375   8.484  19.335  0.00  0.00    +0.000 HD
ENDBRANCH  16  17
ENDBRANCH  15  16
ENDBRANCH   2  15
TORSDOF 3
ENDMDL
MODEL 6
REMARK VINA RESULT:      -7.0      6.785      9.958
REMARK  Name = 
REMARK  3 active torsions:
REMARK  status: ('A' for Active; 'I' for Inactive)
REMARK    1  A    between atoms: C_2  and  C_3
REMARK    2  A    between atoms: C_3  and  C_4
REMARK    3  A    between atoms: C_4  and  N_5
REMARK                            x       y       z     vdW  Elec       q    Type
REMARK                         _______ _______ _______ _____ _____    ______ ____
ROOT
ATOM      1  O   UNL     1       1.561   9.481  17.756  0.00  0.00    +0.000 OA
ATOM      2  C   UNL     1       1.105   9.436  18.900  0.00  0.00    +0.000 C 
ATOM      3  N   UNL     1       0.042  10.247  19.311  0.00  0.00    +0.000 N 
ATOM      4  C   UNL     1      -0.464  10.293  20.686  0.00  0.00    +0.000 C 
ATOM      5  C   UNL     1      -0.257  11.637  21.376  0.00  0.00    +0.000 C 
ATOM      6  C   UNL     1      -0.851  12.854  20.678  0.00  0.00    +0.000 C 
ATOM      7  N   UNL     1      -1.895  12.501  19.732  0.00  0.00    +0.000 N 
ATOM      8  C   UNL     1      -3.225  12.476  20.032  0.00  0.00    +0.000 A 
ATOM      9  N   UNL     1      -4.154  12.082  19.183  0.00  0.00    +0.000 NA
ATOM     10  C   UNL     1      -5.418  12.210  19.727  0.00  0.00    +0.000 A 
ATOM     11  C   UNL     1      -5.465  12.682  21.018  0.00  0.00    +0.000 A 
ATOM     12  S   UNL     1      -3.874  12.952  21.575  0.00  0.00    +0.000 S 
ATOM     13  C   UNL     1      -1.435  12.155  18.382  0.00  0.00    +0.000 C 
ATOM     14  C   UNL     1      -0.875  10.727  18.258  0.00  0.00    +0.000 C 
ENDROOT
BRANCH   2  15
ATOM     15  C   UNL     1       1.637   8.444  19.920  0.00  0.00    +0.000 C 
BRANCH  15  16
ATOM     16  C   UNL     1       2.420   7.314  19.267  0.00  0.00    +0.000 C 
BRANCH  16  17
ATOM     17  N   UNL     1       2.607   6.242  20.240  0.00  0.00    +0.000 N 
ATOM     18  C   UNL     1       2.066   5.029  19.827  0.00  0.00    +0.000 A 
ATOM     19  N   UNL     1       2.051   4.708  18.529  0.00  0.00    +0.000 NA
ATOM     20  C   UNL     1       1.488   3.530  18.194  0.00  0.00    +0.000 A 
ATOM     21  C   UNL     1       0.950   2.664  19.112  0.00  0.00    +0.000 A 
ATOM     22  C   UNL     1       1.022   3.079  20.419  0.00  0.00    +0.000 A 
ATOM     23  N   UNL     1       1.567   4.252  20.799  0.00  0.00    +0.000 NA
ATOM     24  H   UNL     1       2.207   6.403  21.158  0.00  0.00    +0.000 HD
ENDBRANCH  16  17
ENDBRANCH  15  16
ENDBRANCH   2  15
TORSDOF 3
ENDMDL
MODEL 7
REMARK VINA RESULT:      -6.9      5.492      8.947
REMARK  Name = 
REMARK  3 active torsions:
REMARK  status: ('A' for Active; 'I' for Inactive)
REMARK    1  A    between atoms: C_2  and  C_3
REMARK    2  A    between atoms: C_3  and  C_4
REMARK    3  A    between atoms: C_4  and  N_5
REMARK                            x       y       z     vdW  Elec       q    Type
REMARK                         _______ _______ _______ _____ _____    ______ ____
ROOT
ATOM      1  O   UNL     1       2.195   6.562  20.132  0.00  0.00    +0.000 OA
ATOM      2  C   UNL     1       2.221   7.531  19.372  0.00  0.00    +0.000 C 
ATOM      3  N   UNL     1       1.469   8.686  19.613  0.00  0.00    +0.000 N 
ATOM      4  C   UNL     1       1.397   9.819  18.686  0.00  0.00    +0.000 C 
ATOM      5  C   UNL     1       0.011  10.041  18.089  0.00  0.00    +0.000 C 
ATOM      6  C   UNL     1      -1.128  10.248  19.081  0.00  0.00    +0.000 C 
ATOM      7  N   UNL     1      -0.658  10.655  20.393  0.00  0.00    +0.000 N 
ATOM      8  C   UNL     1      -0.551  11.953  20.800  0.00  0.00    +0.000 A 
ATOM      9  N   UNL     1      -0.054  12.309  21.969  0.00  0.00    +0.000 NA
ATOM     10  C   UNL     1      -0.116  13.677  22.144  0.00  0.00    +0.000 A 
ATOM     11  C   UNL     1      -0.642  14.389  21.091  0.00  0.00    +0.000 A 
ATOM     12  S   UNL     1      -1.050  13.311  19.833  0.00  0.00    +0.000 S 
ATOM     13  C   UNL     1      -0.283   9.563  21.299  0.00  0.00    +0.000 C 
ATOM     14  C   UNL     1       1.104   8.963  21.016  0.00  0.00    +0.000 C 
ENDROOT
BRANCH   2  15
ATOM     15  C   UNL     1       3.124   7.550  18.151  0.00  0.00    +0.000 C 
BRANCH  15  16
ATOM     16  C   UNL     1       3.279   6.169  17.531  0.00  0.00    +0.000 C 
BRANCH  16  17
ATOM     17  N   UNL     1       4.340   5.450  18.233  0.00  0.00    +0.000 N 
ATOM     18  C   UNL     1       4.060   4.099  18.407  0.00  0.00    +0.000 A 
ATOM     19  N   UNL     1       3.349   3.436  17.489  0.00  0.00    +0.000 NA
ATOM     20  C   UNL     1       3.091   2.136  17.734  0.00  0.00    +0.000 A 
ATOM     21  C   UNL     1       3.527   1.480  18.856  0.00  0.00    +0.000 A 
ATOM     22  C   UNL     1       4.256   2.243  19.734  0.00  0.00    +0.000 A 
ATOM     23  N   UNL     1       4.531   3.548  19.536  0.00  0.00    +0.000 NA
ATOM     24  H   UNL     1       4.563   5.789  19.162  0.00  0.00    +0.000 HD
ENDBRANCH  16  17
ENDBRANCH  15  16
ENDBRANCH   2  15
TORSDOF 3
ENDMDL
MODEL 8
REMARK VINA RESULT:      -6.9      1.362      1.810
REMARK  Name = 
REMARK  3 active torsions:
REMARK  status: ('A' for Active; 'I' for Inactive)
REMARK    1  A    between atoms: C_2  and  C_3
REMARK    2  A    between atoms: C_3  and  C_4
REMARK    3  A    between atoms: C_4  and  N_5
REMARK                            x       y       z     vdW  Elec       q    Type
REMARK                         _______ _______ _______ _____ _____    ______ ____
ROOT
ATOM      1  O   UNL     1       8.382   6.554  18.768  0.00  0.00    +0.000 OA
ATOM      2  C   UNL     1       7.329   6.859  18.207  0.00  0.00    +0.000 C 
ATOM      3  N   UNL     1       6.187   6.054  18.276  0.00  0.00    +0.000 N 
ATOM      4  C   UNL     1       4.947   6.332  17.545  0.00  0.00    +0.000 C 
ATOM      5  C   UNL     1       4.608   5.289  16.485  0.00  0.00    +0.000 C 
ATOM      6  C   UNL     1       4.486   3.849  16.968  0.00  0.00    +0.000 C 
ATOM      7  N   UNL     1       4.258   3.758  18.399  0.00  0.00    +0.000 N 
ATOM      8  C   UNL     1       3.023   3.673  18.974  0.00  0.00    +0.000 A 
ATOM      9  N   UNL     1       2.829   3.666  20.279  0.00  0.00    +0.000 NA
ATOM     10  C   UNL     1       1.490   3.516  20.586  0.00  0.00    +0.000 A 
ATOM     11  C   UNL     1       0.638   3.434  19.509  0.00  0.00    +0.000 A 
ATOM     12  S   UNL     1       1.542   3.572  18.067  0.00  0.00    +0.000 S 
ATOM     13  C   UNL     1       5.463   3.765  19.235  0.00  0.00    +0.000 C 
ATOM     14  C   UNL     1       6.071   5.162  19.447  0.00  0.00    +0.000 C 
ENDROOT
BRANCH   2  15
ATOM     15  C   UNL     1       7.191   8.170  17.450  0.00  0.00    +0.000 C 
BRANCH  15  16
ATOM     16  C   UNL     1       8.455   9.013  17.532  0.00  0.00    +0.000 C 
BRANCH  16  17
ATOM     17  N   UNL     1       8.623   9.484  18.905  0.00  0.00    +0.000 N 
ATOM     18  C   UNL     1       9.314  10.688  18.988  0.00  0.00    +0.000 A 
ATOM     19  N   UNL     1       9.191  11.601  18.019  0.00  0.00    +0.000 NA
ATOM     20  C   UNL     1       9.908  12.735  18.149  0.00  0.00    +0.000 A 
ATOM     21  C   UNL     1      10.733  12.986  19.215  0.00  0.00    +0.000 A 
ATOM     22  C   UNL     1      10.785  11.993  20.161  0.00  0.00    +0.000 A 
ATOM     23  N   UNL     1      10.093  10.840  20.070  0.00  0.00    +0.000 NA
ATOM     24  H   UNL     1       9.122   8.858  19.528  0.00  0.00    +0.000 HD
ENDBRANCH  16  17
ENDBRANCH  15  16
ENDBRANCH   2  15
TORSDOF 3
ENDMDL
MODEL 9
REMARK VINA RESULT:      -6.9      4.632      6.301
REMARK  Name = 
REMARK  3 active torsions:
REMARK  status: ('A' for Active; 'I' for Inactive)
REMARK    1  A    between atoms: C_2  and  C_3
REMARK    2  A    between atoms: C_3  and  C_4
REMARK    3  A    between atoms: C_4  and  N_5
REMARK                            x       y       z     vdW  Elec       q    Type
REMARK                         _______ _______ _______ _____ _____    ______ ____
ROOT
ATOM      1  O   UNL     1       5.452   3.412  19.104  0.00  0.00    +0.000 OA
ATOM      2  C   UNL     1       5.601   4.593  18.788  0.00  0.00    +0.000 C 
ATOM      3  N   UNL     1       4.591   5.545  18.962  0.00  0.00    +0.000 N 
ATOM      4  C   UNL     1       4.694   6.936  18.510  0.00  0.00    +0.000 C 
ATOM      5  C   UNL     1       3.708   7.302  17.406  0.00  0.00    +0.000 C 
ATOM      6  C   UNL     1       2.233   7.079  17.715  0.00  0.00    +0.000 C 
ATOM      7  N   UNL     1       1.968   6.994  19.141  0.00  0.00    +0.000 N 
ATOM      8  C   UNL     1       1.597   8.053  19.916  0.00  0.00    +0.000 A 
ATOM      9  N   UNL     1       1.432   7.975  21.222  0.00  0.00    +0.000 NA
ATOM     10  C   UNL     1       1.003   9.179  21.746  0.00  0.00    +0.000 A 
ATOM     11  C   UNL     1       0.860  10.205  20.842  0.00  0.00    +0.000 A 
ATOM     12  S   UNL     1       1.300   9.649  19.289  0.00  0.00    +0.000 S 
ATOM     13  C   UNL     1       2.127   5.662  19.736  0.00  0.00    +0.000 C 
ATOM     14  C   UNL     1       3.588   5.269  20.010  0.00  0.00    +0.000 C 
ENDROOT
BRANCH   2  15
ATOM     15  C   UNL     1       6.926   5.100  18.243  0.00  0.00    +0.000 C 
BRANCH  15  16
ATOM     16  C   UNL     1       7.292   4.438  16.923  0.00  0.00    +0.000 C 
BRANCH  16  17
ATOM     17  N   UNL     1       7.390   5.465  15.889  0.00  0.00    +0.000 N 
ATOM     18  C   UNL     1       7.163   4.973  14.608  0.00  0.00    +0.000 A 
ATOM     19  N   UNL     1       6.303   3.966  14.418  0.00  0.00    +0.000 NA
ATOM     20  C   UNL     1       6.150   3.519  13.156  0.00  0.00    +0.000 A 
ATOM     21  C   UNL     1       6.818   4.050  12.083  0.00  0.00    +0.000 A 
ATOM     22  C   UNL     1       7.670   5.086  12.378  0.00  0.00    +0.000 A 
ATOM     23  N   UNL     1       7.862   5.559  13.625  0.00  0.00    +0.000 NA
ATOM     24  H   UNL     1       8.282   5.945  15.826  0.00  0.00    +0.000 HD
ENDBRANCH  16  17
ENDBRANCH  15  16
ENDBRANCH   2  15
TORSDOF 3
ENDMDL
