MODEL 1
REMARK VINA RESULT:      -9.5      0.000      0.000
REMARK  Name = 
REMARK  3 active torsions:
REMARK  status: ('A' for Active; 'I' for Inactive)
REMARK    1  A    between atoms: C_1  and  C_2
REMARK    2  A    between atoms: C_13  and  C_14
REMARK    3  A    between atoms: C_19  and  C_20
REMARK                            x       y       z     vdW  Elec       q    Type
REMARK                         _______ _______ _______ _____ _____    ______ ____
ROOT
ATOM      1  C   UNL     1       1.275   3.874  19.604  0.00  0.00    +0.000 C 
ATOM      2  C   UNL     1       2.752   3.728  19.866  0.00  0.00    +0.000 C 
ATOM      3  O   UNL     1       3.151   2.934  20.723  0.00  0.00    +0.000 OA
ATOM      4  N   UNL     1       3.634   4.497  19.119  0.00  0.00    +0.000 N 
ATOM      5  C   UNL     1       5.062   4.223  19.296  0.00  0.00    +0.000 C 
ATOM      6  C   UNL     1       5.955   5.282  18.707  0.00  0.00    +0.000 A 
ATOM      7  C   UNL     1       7.151   5.653  19.327  0.00  0.00    +0.000 A 
ATOM      8  C   UNL     1       7.959   6.636  18.753  0.00  0.00    +0.000 A 
ATOM      9  C   UNL     1       7.587   7.236  17.550  0.00  0.00    +0.000 A 
ATOM     10  C   UNL     1       6.408   6.854  16.911  0.00  0.00    +0.000 A 
ATOM     11  C   UNL     1       5.591   5.882  17.491  0.00  0.00    +0.000 A 
ATOM     12  C   UNL     1       4.276   5.471  16.883  0.00  0.00    +0.000 C 
ATOM     13  C   UNL     1       3.220   5.384  18.002  0.00  0.00    +0.000 C 
ENDROOT
BRANCH  13  14
ATOM     14  C   UNL     1       2.856   6.826  18.437  0.00  0.00    +0.000 C 
ATOM     15  O   UNL     1       3.171   7.759  17.700  0.00  0.00    +0.000 OA
ATOM     16  N   UNL     1       2.217   6.934  19.658  0.00  0.00    +0.000 N 
ATOM     17  C   UNL     1       1.628   8.123  20.116  0.00  0.00    +0.000 A 
ATOM     18  C   UNL     1       1.197   8.209  21.441  0.00  0.00    +0.000 A 
ATOM     19  C   UNL     1       0.569   9.384  21.879  0.00  0.00    +0.000 A 
ATOM     20  C   UNL     1       0.081   9.531  23.291  0.00  0.00    +0.000 C 
ATOM     21  C   UNL     1       0.394  10.430  20.974  0.00  0.00    +0.000 A 
ATOM     22  C   UNL     1       0.852  10.258  19.682  0.00  0.00    +0.000 A 
ATOM     23  N   UNL     1       1.447   9.136  19.250  0.00  0.00    +0.000 NA
ATOM     24  H   UNL     1       2.222   6.129  20.272  0.00  0.00    +0.000 HD
ENDBRANCH  13  14
TORSDOF 1
ENDMDL
MODEL 2
REMARK VINA RESULT:      -8.4      1.954      4.162
REMARK  Name = 
REMARK  3 active torsions:
REMARK  status: ('A' for Active; 'I' for Inactive)
REMARK    1  A    between atoms: C_1  and  C_2
REMARK    2  A    between atoms: C_13  and  C_14
REMARK    3  A    between atoms: C_19  and  C_20
REMARK                            x       y       z     vdW  Elec       q    Type
REMARK                         _______ _______ _______ _____ _____    ______ ____
ROOT
ATOM      1  C   UNL     1       6.809   5.356  16.041  0.00  0.00    +0.000 C 
ATOM      2  C   UNL     1       5.811   4.229  16.115  0.00  0.00    +0.000 C 
ATOM      3  O   UNL     1       5.795   3.361  15.238  0.00  0.00    +0.000 OA
ATOM      4  N   UNL     1       4.933   4.195  17.189  0.00  0.00    +0.000 N 
ATOM      5  C   UNL     1       4.080   3.009  17.307  0.00  0.00    +0.000 C 
ATOM      6  C   UNL     1       2.953   3.175  18.292  0.00  0.00    +0.000 A 
ATOM      7  C   UNL     1       1.696   2.609  18.062  0.00  0.00    +0.000 A 
ATOM      8  C   UNL     1       0.673   2.777  18.996  0.00  0.00    +0.000 A 
ATOM      9  C   UNL     1       0.907   3.493  20.171  0.00  0.00    +0.000 A 
ATOM     10  C   UNL     1       2.166   4.039  20.421  0.00  0.00    +0.000 A 
ATOM     11  C   UNL     1       3.185   3.885  19.481  0.00  0.00    +0.000 A 
ATOM     12  C   UNL     1       4.546   4.504  19.662  0.00  0.00    +0.000 C 
ATOM     13  C   UNL     1       4.979   5.145  18.329  0.00  0.00    +0.000 C 
ENDROOT
BRANCH  13  14
ATOM     14  C   UNL     1       4.144   6.432  18.118  0.00  0.00    +0.000 C 
ATOM     15  O   UNL     1       4.271   7.048  17.059  0.00  0.00    +0.000 OA
ATOM     16  N   UNL     1       3.330   6.793  19.175  0.00  0.00    +0.000 N 
ATOM     17  C   UNL     1       2.354   7.798  19.087  0.00  0.00    +0.000 A 
ATOM     18  C   UNL     1       1.728   8.249  20.250  0.00  0.00    +0.000 A 
ATOM     19  C   UNL     1       0.722   9.222  20.151  0.00  0.00    +0.000 A 
ATOM     20  C   UNL     1       0.011   9.740  21.366  0.00  0.00    +0.000 C 
ATOM     21  C   UNL     1       0.379   9.706  18.890  0.00  0.00    +0.000 A 
ATOM     22  C   UNL     1       1.051   9.203  17.792  0.00  0.00    +0.000 A 
ATOM     23  N   UNL     1       2.010   8.268  17.876  0.00  0.00    +0.000 NA
ATOM     24  H   UNL     1       3.484   6.345  20.069  0.00  0.00    +0.000 HD
ENDBRANCH  13  14
TORSDOF 1
ENDMDL
MODEL 3
REMARK VINA RESULT:      -8.0      4.088      7.453
REMARK  Name = 
REMARK  3 active torsions:
REMARK  status: ('A' for Active; 'I' for Inactive)
REMARK    1  A    between atoms: C_1  and  C_2
REMARK    2  A    between atoms: C_13  and  C_14
REMARK    3  A    between atoms: C_19  and  C_20
REMARK                            x       y       z     vdW  Elec       q    Type
REMARK                         _______ _______ _______ _____ _____    ______ ____
ROOT
ATOM      1  C   UNL     1       8.132   7.052  18.472  0.00  0.00    +0.000 C 
ATOM      2  C   UNL     1       7.427   5.934  19.196  0.00  0.00    +0.000 C 
ATOM      3  O   UNL     1       7.880   5.508  20.263  0.00  0.00    +0.000 OA
ATOM      4  N   UNL     1       6.267   5.414  18.639  0.00  0.00    +0.000 N 
ATOM      5  C   UNL     1       5.531   4.434  19.442  0.00  0.00    +0.000 C 
ATOM      6  C   UNL     1       4.477   3.691  18.665  0.00  0.00    +0.000 A 
ATOM      7  C   UNL     1       4.208   2.341  18.909  0.00  0.00    +0.000 A 
ATOM      8  C   UNL     1       3.222   1.682  18.174  0.00  0.00    +0.000 A 
ATOM      9  C   UNL     1       2.488   2.371  17.208  0.00  0.00    +0.000 A 
ATOM     10  C   UNL     1       2.731   3.724  16.976  0.00  0.00    +0.000 A 
ATOM     11  C   UNL     1       3.727   4.382  17.699  0.00  0.00    +0.000 A 
ATOM     12  C   UNL     1       4.080   5.824  17.450  0.00  0.00    +0.000 C 
ATOM     13  C   UNL     1       5.615   5.959  17.421  0.00  0.00    +0.000 C 
ENDROOT
BRANCH  13  14
ATOM     14  C   UNL     1       6.129   5.343  16.096  0.00  0.00    +0.000 C 
ATOM     15  O   UNL     1       7.339   5.160  15.963  0.00  0.00    +0.000 OA
ATOM     16  N   UNL     1       5.158   5.073  15.151  0.00  0.00    +0.000 N 
ATOM     17  C   UNL     1       5.403   4.328  13.987  0.00  0.00    +0.000 A 
ATOM     18  C   UNL     1       4.433   4.284  12.984  0.00  0.00    +0.000 A 
ATOM     19  C   UNL     1       4.666   3.501  11.843  0.00  0.00    +0.000 A 
ATOM     20  C   UNL     1       3.657   3.412  10.735  0.00  0.00    +0.000 C 
ATOM     21  C   UNL     1       5.861   2.790  11.748  0.00  0.00    +0.000 A 
ATOM     22  C   UNL     1       6.765   2.893  12.788  0.00  0.00    +0.000 A 
ATOM     23  N   UNL     1       6.549   3.632  13.887  0.00  0.00    +0.000 NA
ATOM     24  H   UNL     1       4.239   5.477  15.281  0.00  0.00    +0.000 HD
ENDBRANCH  13  14
TORSDOF 1
ENDMDL
MODEL 4
REMARK VINA RESULT:      -7.4      4.298      7.170
REMARK  Name = 
REMARK  3 active torsions:
REMARK  status: ('A' for Active; 'I' for Inactive)
REMARK    1  A    between atoms: C_1  and  C_2
REMARK    2  A    between atoms: C_13  and  C_14
REMARK    3  A    between atoms: C_19  and  C_20
REMARK                            x       y       z     vdW  Elec       q    Type
REMARK                         _______ _______ _______ _____ _____    ______ ____
ROOT
ATOM      1  C   UNL     1      -1.315  12.368  23.034  0.00  0.00    +0.000 C 
ATOM      2  C   UNL     1      -0.826  10.961  22.805  0.00  0.00    +0.000 C 
ATOM      3  O   UNL     1      -0.882  10.132  23.718  0.00  0.00    +0.000 OA
ATOM      4  N   UNL     1      -0.328  10.631  21.552  0.00  0.00    +0.000 N 
ATOM      5  C   UNL     1      -0.001   9.221  21.322  0.00  0.00    +0.000 C 
ATOM      6  C   UNL     1       0.813   8.988  20.077  0.00  0.00    +0.000 A 
ATOM      7  C   UNL     1       1.809   8.010  20.031  0.00  0.00    +0.000 A 
ATOM      8  C   UNL     1       2.544   7.816  18.860  0.00  0.00    +0.000 A 
ATOM      9  C   UNL     1       2.274   8.583  17.727  0.00  0.00    +0.000 A 
ATOM     10  C   UNL     1       1.264   9.545  17.756  0.00  0.00    +0.000 A 
ATOM     11  C   UNL     1       0.538   9.751  18.930  0.00  0.00    +0.000 A 
ATOM     12  C   UNL     1      -0.520  10.815  19.044  0.00  0.00    +0.000 C 
ATOM     13  C   UNL     1      -0.339  11.550  20.386  0.00  0.00    +0.000 C 
ENDROOT
BRANCH  13  14
ATOM     14  C   UNL     1       0.914  12.454  20.277  0.00  0.00    +0.000 C 
ATOM     15  O   UNL     1       1.866  12.231  21.025  0.00  0.00    +0.000 OA
ATOM     16  N   UNL     1       0.835  13.469  19.343  0.00  0.00    +0.000 N 
ATOM     17  C   UNL     1       1.937  14.249  18.958  0.00  0.00    +0.000 A 
ATOM     18  C   UNL     1       1.732  15.387  18.177  0.00  0.00    +0.000 A 
ATOM     19  C   UNL     1       2.842  16.137  17.759  0.00  0.00    +0.000 A 
ATOM     20  C   UNL     1       2.682  17.367  16.914  0.00  0.00    +0.000 C 
ATOM     21  C   UNL     1       4.116  15.717  18.135  0.00  0.00    +0.000 A 
ATOM     22  C   UNL     1       4.226  14.578  18.909  0.00  0.00    +0.000 A 
ATOM     23  N   UNL     1       3.172  13.850  19.309  0.00  0.00    +0.000 NA
ATOM     24  H   UNL     1      -0.074  13.694  18.959  0.00  0.00    +0.000 HD
ENDBRANCH  13  14
TORSDOF 1
ENDMDL
MODEL 5
REMARK VINA RESULT:      -7.3      2.239      6.645
REMARK  Name = 
REMARK  3 active torsions:
REMARK  status: ('A' for Active; 'I' for Inactive)
REMARK    1  A    between atoms: C_1  and  C_2
REMARK    2  A    between atoms: C_13  and  C_14
REMARK    3  A    between atoms: C_19  and  C_20
REMARK                            x       y       z     vdW  Elec       q    Type
REMARK                         _______ _______ _______ _____ _____    ______ ____
ROOT
ATOM      1  C   UNL     1       2.034   9.139  18.721  0.00  0.00    +0.000 C 
ATOM      2  C   UNL     1       1.719   8.225  19.876  0.00  0.00    +0.000 C 
ATOM      3  O   UNL     1       1.368   8.699  20.960  0.00  0.00    +0.000 OA
ATOM      4  N   UNL     1       1.825   6.854  19.682  0.00  0.00    +0.000 N 
ATOM      5  C   UNL     1       1.369   5.995  20.777  0.00  0.00    +0.000 C 
ATOM      6  C   UNL     1       1.795   4.558  20.631  0.00  0.00    +0.000 A 
ATOM      7  C   UNL     1       2.151   3.788  21.742  0.00  0.00    +0.000 A 
ATOM      8  C   UNL     1       2.538   2.458  21.574  0.00  0.00    +0.000 A 
ATOM      9  C   UNL     1       2.552   1.887  20.301  0.00  0.00    +0.000 A 
ATOM     10  C   UNL     1       2.174   2.640  19.190  0.00  0.00    +0.000 A 
ATOM     11  C   UNL     1       1.801   3.975  19.354  0.00  0.00    +0.000 A 
ATOM     12  C   UNL     1       1.443   4.858  18.188  0.00  0.00    +0.000 C 
ATOM     13  C   UNL     1       2.133   6.224  18.373  0.00  0.00    +0.000 C 
ENDROOT
BRANCH  13  14
ATOM     14  C   UNL     1       3.646   6.043  18.095  0.00  0.00    +0.000 C 
ATOM     15  O   UNL     1       4.434   6.156  19.035  0.00  0.00    +0.000 OA
ATOM     16  N   UNL     1       3.982   5.789  16.779  0.00  0.00    +0.000 N 
ATOM     17  C   UNL     1       5.266   5.393  16.375  0.00  0.00    +0.000 A 
ATOM     18  C   UNL     1       5.580   5.367  15.015  0.00  0.00    +0.000 A 
ATOM     19  C   UNL     1       6.851   4.927  14.616  0.00  0.00    +0.000 A 
ATOM     20  C   UNL     1       7.243   4.874  13.169  0.00  0.00    +0.000 C 
ATOM     21  C   UNL     1       7.761   4.527  15.594  0.00  0.00    +0.000 A 
ATOM     22  C   UNL     1       7.365   4.585  16.916  0.00  0.00    +0.000 A 
ATOM     23  N   UNL     1       6.150   4.997  17.308  0.00  0.00    +0.000 NA
ATOM     24  H   UNL     1       3.280   5.949  16.068  0.00  0.00    +0.000 HD
ENDBRANCH  13  14
TORSDOF 1
ENDMDL
MODEL 6
REMARK VINA RESULT:      -7.2      6.306      8.851
REMARK  Name = 
REMARK  3 active torsions:
REMARK  status: ('A' for Active; 'I' for Inactive)
REMARK    1  A    between atoms: C_1  and  C_2
REMARK    2  A    between atoms: C_13  and  C_14
REMARK    3  A    between atoms: C_19  and  C_20
REMARK                            x       y       z     vdW  Elec       q    Type
REMARK                         _______ _______ _______ _____ _____    ______ ____
ROOT
ATOM      1  C   UNL     1      -0.341  15.537  19.086  0.00  0.00    +0.000 C 
ATOM      2  C   UNL     1       0.629  14.437  19.433  0.00  0.00    +0.000 C 
ATOM      3  O   UNL     1       1.761  14.435  18.941  0.00  0.00    +0.000 OA
ATOM      4  N   UNL     1       0.217  13.448  20.316  0.00  0.00    +0.000 N 
ATOM      5  C   UNL     1       1.232  12.481  20.744  0.00  0.00    +0.000 C 
ATOM      6  C   UNL     1       0.658  11.275  21.439  0.00  0.00    +0.000 A 
ATOM      7  C   UNL     1       1.210  10.003  21.266  0.00  0.00    +0.000 A 
ATOM      8  C   UNL     1       0.657   8.906  21.926  0.00  0.00    +0.000 A 
ATOM      9  C   UNL     1      -0.435   9.076  22.777  0.00  0.00    +0.000 A 
ATOM     10  C   UNL     1      -0.977  10.346  22.976  0.00  0.00    +0.000 A 
ATOM     11  C   UNL     1      -0.435  11.442  22.304  0.00  0.00    +0.000 A 
ATOM     12  C   UNL     1      -1.015  12.826  22.428  0.00  0.00    +0.000 C 
ATOM     13  C   UNL     1      -1.088  13.458  21.024  0.00  0.00    +0.000 C 
ENDROOT
BRANCH  13  14
ATOM     14  C   UNL     1      -2.239  12.774  20.245  0.00  0.00    +0.000 C 
ATOM     15  O   UNL     1      -3.342  12.683  20.784  0.00  0.00    +0.000 OA
ATOM     16  N   UNL     1      -1.904  12.293  18.993  0.00  0.00    +0.000 N 
ATOM     17  C   UNL     1      -2.853  11.837  18.065  0.00  0.00    +0.000 A 
ATOM     18  C   UNL     1      -2.423  11.170  16.917  0.00  0.00    +0.000 A 
ATOM     19  C   UNL     1      -3.374  10.755  15.972  0.00  0.00    +0.000 A 
ATOM     20  C   UNL     1      -2.970  10.039  14.717  0.00  0.00    +0.000 C 
ATOM     21  C   UNL     1      -4.720  11.027  16.211  0.00  0.00    +0.000 A 
ATOM     22  C   UNL     1      -5.056  11.692  17.374  0.00  0.00    +0.000 A 
ATOM     23  N   UNL     1      -4.154  12.099  18.281  0.00  0.00    +0.000 NA
ATOM     24  H   UNL     1      -0.923  12.219  18.757  0.00  0.00    +0.000 HD
ENDBRANCH  13  14
TORSDOF 1
ENDMDL
MODEL 7
REMARK VINA RESULT:      -7.2      2.589      4.503
REMARK  Name = 
REMARK  3 active torsions:
REMARK  status: ('A' for Active; 'I' for Inactive)
REMARK    1  A    between atoms: C_1  and  C_2
REMARK    2  A    between atoms: C_13  and  C_14
REMARK    3  A    between atoms: C_19  and  C_20
REMARK                            x       y       z     vdW  Elec       q    Type
REMARK                         _______ _______ _______ _____ _____    ______ ____
ROOT
ATOM      1  C   UNL     1       5.518   6.675  15.717  0.00  0.00    +0.000 C 
ATOM      2  C   UNL     1       4.939   5.305  15.960  0.00  0.00    +0.000 C 
ATOM      3  O   UNL     1       5.136   4.399  15.145  0.00  0.00    +0.000 OA
ATOM      4  N   UNL     1       4.198   5.097  17.115  0.00  0.00    +0.000 N 
ATOM      5  C   UNL     1       3.778   3.720  17.390  0.00  0.00    +0.000 C 
ATOM      6  C   UNL     1       2.732   3.616  18.469  0.00  0.00    +0.000 A 
ATOM      7  C   UNL     1       1.708   2.668  18.400  0.00  0.00    +0.000 A 
ATOM      8  C   UNL     1       0.756   2.594  19.418  0.00  0.00    +0.000 A 
ATOM      9  C   UNL     1       0.835   3.450  20.516  0.00  0.00    +0.000 A 
ATOM     10  C   UNL     1       1.869   4.382  20.606  0.00  0.00    +0.000 A 
ATOM     11  C   UNL     1       2.813   4.468  19.582  0.00  0.00    +0.000 A 
ATOM     12  C   UNL     1       3.915   5.494  19.590  0.00  0.00    +0.000 C 
ATOM     13  C   UNL     1       4.023   6.114  18.183  0.00  0.00    +0.000 C 
ENDROOT
BRANCH  13  14
ATOM     14  C   UNL     1       2.808   7.052  17.973  0.00  0.00    +0.000 C 
ATOM     15  O   UNL     1       1.735   6.557  17.630  0.00  0.00    +0.000 OA
ATOM     16  N   UNL     1       3.056   8.397  18.172  0.00  0.00    +0.000 N 
ATOM     17  C   UNL     1       2.042   9.366  18.234  0.00  0.00    +0.000 A 
ATOM     18  C   UNL     1       2.384  10.719  18.219  0.00  0.00    +0.000 A 
ATOM     19  C   UNL     1       1.368  11.681  18.326  0.00  0.00    +0.000 A 
ATOM     20  C   UNL     1       1.678  13.149  18.321  0.00  0.00    +0.000 C 
ATOM     21  C   UNL     1       0.048  11.252  18.446  0.00  0.00    +0.000 A 
ATOM     22  C   UNL     1      -0.200   9.893  18.452  0.00  0.00    +0.000 A 
ATOM     23  N   UNL     1       0.764   8.965  18.357  0.00  0.00    +0.000 NA
ATOM     24  H   UNL     1       4.020   8.702  18.222  0.00  0.00    +0.000 HD
ENDBRANCH  13  14
TORSDOF 1
ENDMDL
MODEL 8
REMARK VINA RESULT:      -7.0      3.043      7.422
REMARK  Name = 
REMARK  3 active torsions:
REMARK  status: ('A' for Active; 'I' for Inactive)
REMARK    1  A    between atoms: C_1  and  C_2
REMARK    2  A    between atoms: C_13  and  C_14
REMARK    3  A    between atoms: C_19  and  C_20
REMARK                            x       y       z     vdW  Elec       q    Type
REMARK                         _______ _______ _______ _____ _____    ______ ____
ROOT
ATOM      1  C   UNL     1      -2.694   9.634  18.140  0.00  0.00    +0.000 C 
ATOM      2  C   UNL     1      -1.926  10.828  17.633  0.00  0.00    +0.000 C 
ATOM      3  O   UNL     1      -2.125  11.249  16.490  0.00  0.00    +0.000 OA
ATOM      4  N   UNL     1      -1.011  11.434  18.483  0.00  0.00    +0.000 N 
ATOM      5  C   UNL     1      -0.394  12.676  18.011  0.00  0.00    +0.000 C 
ATOM      6  C   UNL     1       0.797  13.104  18.826  0.00  0.00    +0.000 A 
ATOM      7  C   UNL     1       1.908  13.707  18.232  0.00  0.00    +0.000 A 
ATOM      8  C   UNL     1       2.995  14.095  19.016  0.00  0.00    +0.000 A 
ATOM      9  C   UNL     1       2.969  13.901  20.397  0.00  0.00    +0.000 A 
ATOM     10  C   UNL     1       1.854  13.323  21.003  0.00  0.00    +0.000 A 
ATOM     11  C   UNL     1       0.772  12.920  20.219  0.00  0.00    +0.000 A 
ATOM     12  C   UNL     1      -0.433  12.233  20.804  0.00  0.00    +0.000 C 
ATOM     13  C   UNL     1      -0.811  11.043  19.901  0.00  0.00    +0.000 C 
ENDROOT
BRANCH  13  14
ATOM     14  C   UNL     1       0.241   9.925  20.109  0.00  0.00    +0.000 C 
ATOM     15  O   UNL     1       0.371   9.441  21.234  0.00  0.00    +0.000 OA
ATOM     16  N   UNL     1       0.973   9.582  18.988  0.00  0.00    +0.000 N 
ATOM     17  C   UNL     1       1.814   8.459  18.931  0.00  0.00    +0.000 A 
ATOM     18  C   UNL     1       2.679   8.305  17.847  0.00  0.00    +0.000 A 
ATOM     19  C   UNL     1       3.484   7.158  17.774  0.00  0.00    +0.000 A 
ATOM     20  C   UNL     1       4.429   6.937  16.630  0.00  0.00    +0.000 C 
ATOM     21  C   UNL     1       3.392   6.207  18.789  0.00  0.00    +0.000 A 
ATOM     22  C   UNL     1       2.508   6.442  19.825  0.00  0.00    +0.000 A 
ATOM     23  N   UNL     1       1.729   7.532  19.901  0.00  0.00    +0.000 NA
ATOM     24  H   UNL     1       0.940  10.202  18.189  0.00  0.00    +0.000 HD
ENDBRANCH  13  14
TORSDOF 1
ENDMDL
MODEL 9
REMARK VINA RESULT:      -6.9      1.546      2.043
REMARK  Name = 
REMARK  3 active torsions:
REMARK  status: ('A' for Active; 'I' for Inactive)
REMARK    1  A    between atoms: C_1  and  C_2
REMARK    2  A    between atoms: C_13  and  C_14
REMARK    3  A    between atoms: C_19  and  C_20
REMARK                            x       y       z     vdW  Elec       q    Type
REMARK                         _______ _______ _______ _____ _____    ______ ____
ROOT
ATOM      1  C   UNL     1       2.049   2.136  18.365  0.00  0.00    +0.000 C 
ATOM      2  C   UNL     1       3.540   2.289  18.527  0.00  0.00    +0.000 C 
ATOM      3  O   UNL     1       4.211   1.351  18.967  0.00  0.00    +0.000 OA
ATOM      4  N   UNL     1       4.124   3.494  18.164  0.00  0.00    +0.000 N 
ATOM      5  C   UNL     1       5.588   3.555  18.196  0.00  0.00    +0.000 C 
ATOM      6  C   UNL     1       6.134   4.955  18.098  0.00  0.00    +0.000 A 
ATOM      7  C   UNL     1       7.275   5.342  18.805  0.00  0.00    +0.000 A 
ATOM      8  C   UNL     1       7.758   6.646  18.690  0.00  0.00    +0.000 A 
ATOM      9  C   UNL     1       7.117   7.561  17.854  0.00  0.00    +0.000 A 
ATOM     10  C   UNL     1       5.993   7.176  17.124  0.00  0.00    +0.000 A 
ATOM     11  C   UNL     1       5.499   5.877  17.250  0.00  0.00    +0.000 A 
ATOM     12  C   UNL     1       4.253   5.419  16.539  0.00  0.00    +0.000 C 
ATOM     13  C   UNL     1       3.387   4.615  17.527  0.00  0.00    +0.000 C 
ENDROOT
BRANCH  13  14
ATOM     14  C   UNL     1       2.751   5.609  18.531  0.00  0.00    +0.000 C 
ATOM     15  O   UNL     1       2.722   5.303  19.723  0.00  0.00    +0.000 OA
ATOM     16  N   UNL     1       2.239   6.767  17.977  0.00  0.00    +0.000 N 
ATOM     17  C   UNL     1       1.819   7.866  18.742  0.00  0.00    +0.000 A 
ATOM     18  C   UNL     1       1.117   8.903  18.125  0.00  0.00    +0.000 A 
ATOM     19  C   UNL     1       0.740  10.019  18.886  0.00  0.00    +0.000 A 
ATOM     20  C   UNL     1      -0.012  11.166  18.275  0.00  0.00    +0.000 C 
ATOM     21  C   UNL     1       1.080  10.057  20.237  0.00  0.00    +0.000 A 
ATOM     22  C   UNL     1       1.776   8.986  20.765  0.00  0.00    +0.000 A 
ATOM     23  N   UNL     1       2.148   7.917  20.045  0.00  0.00    +0.000 NA
ATOM     24  H   UNL     1       2.112   6.800  16.973  0.00  0.00    +0.000 HD
ENDBRANCH  13  14
TORSDOF 1
ENDMDL
