MODEL 1
REMARK VINA RESULT:      -8.2      0.000      0.000
REMARK  Name = 
REMARK  9 active torsions:
REMARK  status: ('A' for Active; 'I' for Inactive)
REMARK    1  A    between atoms: C_1  and  O_2
REMARK    2  A    between atoms: O_2  and  C_3
REMARK    3  A    between atoms: C_6  and  C_7
REMARK    4  A    between atoms: C_7  and  C_8
REMARK    5  A    between atoms: C_8  and  N_9
REMARK    6  A    between atoms: C_16  and  N_17
REMARK    7  A    between atoms: N_17  and  C_18
REMARK    8  A    between atoms: C_28  and  O_29
REMARK    9  A    between atoms: O_29  and  C_30
REMARK                            x       y       z     vdW  Elec       q    Type
REMARK                         _______ _______ _______ _____ _____    ______ ____
ROOT
ATOM      1  N   UNL     1       1.047   9.388  19.654  0.00  0.00    +0.000 N 
ATOM      2  C   UNL     1       1.088   8.777  20.897  0.00  0.00    +0.000 C 
ATOM      3  O   UNL     1       0.645   9.273  21.931  0.00  0.00    +0.000 OA
ATOM      4  N   UNL     1       1.702   7.559  20.973  0.00  0.00    +0.000 N 
ATOM      5  C   UNL     1       2.361   6.895  19.986  0.00  0.00    +0.000 C 
ATOM      6  O   UNL     1       2.909   5.815  20.189  0.00  0.00    +0.000 OA
ATOM      7  C   UNL     1       2.370   7.590  18.689  0.00  0.00    +0.000 C 
ATOM      8  C   UNL     1       2.895   7.005  17.596  0.00  0.00    +0.000 C 
ATOM      9  C   UNL     1       1.824   8.962  18.584  0.00  0.00    +0.000 C 
ATOM     10  O   UNL     1       2.107   9.671  17.621  0.00  0.00    +0.000 OA
ATOM     11  H   UNL     1       1.720   7.136  21.890  0.00  0.00    +0.000 HD
ENDROOT
BRANCH   8  12
ATOM     12  N   UNL     1       3.512   5.779  17.511  0.00  0.00    +0.000 N 
ATOM     13  H   UNL     1       3.029   5.015  17.991  0.00  0.00    +0.000 HD
BRANCH  12  14
ATOM     14  C   UNL     1       4.711   5.429  16.865  0.00  0.00    +0.000 A 
ATOM     15  C   UNL     1       4.753   4.202  16.183  0.00  0.00    +0.000 A 
ATOM     16  C   UNL     1       5.923   3.749  15.566  0.00  0.00    +0.000 A 
ATOM     17  C   UNL     1       7.082   4.519  15.618  0.00  0.00    +0.000 A 
ATOM     18  C   UNL     1       7.067   5.737  16.293  0.00  0.00    +0.000 A 
ATOM     19  C   UNL     1       5.898   6.176  16.916  0.00  0.00    +0.000 A 
ATOM     20  F   UNL     1       5.934   7.369  17.532  0.00  0.00    +0.000 F 
ENDBRANCH  12  14
ENDBRANCH   8  12
BRANCH   1  21
ATOM     21  C   UNL     1       0.466  10.737  19.603  0.00  0.00    +0.000 C 
BRANCH  21  22
ATOM     22  C   UNL     1      -1.048  10.805  19.840  0.00  0.00    +0.000 C 
BRANCH  22  26
ATOM     23  C   UNL     1      -3.409  10.575  16.226  0.00  0.00    +0.000 A 
ATOM     24  C   UNL     1      -2.156   9.946  16.305  0.00  0.00    +0.000 A 
ATOM     25  C   UNL     1      -1.380  10.033  17.462  0.00  0.00    +0.000 A 
ATOM     26  C   UNL     1      -1.828  10.784  18.550  0.00  0.00    +0.000 A 
ATOM     27  C   UNL     1      -3.022  11.501  18.426  0.00  0.00    +0.000 A 
ATOM     28  C   UNL     1      -3.821  11.409  17.276  0.00  0.00    +0.000 A 
BRANCH  23  30
ATOM     29  C   UNL     1      -3.544  10.012  13.934  0.00  0.00    +0.000 C 
ATOM     30  O   UNL     1      -4.216  10.396  15.134  0.00  0.00    +0.000 OA
ENDBRANCH  23  30
BRANCH  28  31
ATOM     31  O   UNL     1      -4.956  12.167  17.386  0.00  0.00    +0.000 OA
ATOM     32  C   UNL     1      -6.138  11.575  17.897  0.00  0.00    +0.000 C 
ENDBRANCH  28  31
ENDBRANCH  22  26
ENDBRANCH  21  22
ENDBRANCH   1  21
TORSDOF 7
ENDMDL
MODEL 2
REMARK VINA RESULT:      -8.2      3.096      8.572
REMARK  Name = 
REMARK  9 active torsions:
REMARK  status: ('A' for Active; 'I' for Inactive)
REMARK    1  A    between atoms: C_1  and  O_2
REMARK    2  A    between atoms: O_2  and  C_3
REMARK    3  A    between atoms: C_6  and  C_7
REMARK    4  A    between atoms: C_7  and  C_8
REMARK    5  A    between atoms: C_8  and  N_9
REMARK    6  A    between atoms: C_16  and  N_17
REMARK    7  A    between atoms: N_17  and  C_18
REMARK    8  A    between atoms: C_28  and  O_29
REMARK    9  A    between atoms: O_29  and  C_30
REMARK                            x       y       z     vdW  Elec       q    Type
REMARK                         _______ _______ _______ _____ _____    ______ ____
ROOT
ATOM      1  N   UNL     1       2.526   4.843  19.376  0.00  0.00    +0.000 N 
ATOM      2  C   UNL     1       2.261   4.933  20.734  0.00  0.00    +0.000 C 
ATOM      3  O   UNL     1       2.241   3.975  21.503  0.00  0.00    +0.000 OA
ATOM      4  N   UNL     1       1.965   6.170  21.231  0.00  0.00    +0.000 N 
ATOM      5  C   UNL     1       1.811   7.332  20.539  0.00  0.00    +0.000 C 
ATOM      6  O   UNL     1       1.504   8.380  21.099  0.00  0.00    +0.000 OA
ATOM      7  C   UNL     1       2.024   7.206  19.089  0.00  0.00    +0.000 C 
ATOM      8  C   UNL     1       2.009   8.291  18.292  0.00  0.00    +0.000 C 
ATOM      9  C   UNL     1       2.231   5.869  18.486  0.00  0.00    +0.000 C 
ATOM     10  O   UNL     1       2.088   5.704  17.277  0.00  0.00    +0.000 OA
ATOM     11  H   UNL     1       1.774   6.208  22.222  0.00  0.00    +0.000 HD
ENDROOT
BRANCH   8  12
ATOM     12  N   UNL     1       1.759   9.595  18.650  0.00  0.00    +0.000 N 
ATOM     13  H   UNL     1       2.541  10.081  19.096  0.00  0.00    +0.000 HD
BRANCH  12  14
ATOM     14  C   UNL     1       0.582  10.350  18.496  0.00  0.00    +0.000 A 
ATOM     15  C   UNL     1      -0.518   9.729  17.882  0.00  0.00    +0.000 A 
ATOM     16  C   UNL     1      -1.705  10.425  17.635  0.00  0.00    +0.000 A 
ATOM     17  C   UNL     1      -1.817  11.764  17.998  0.00  0.00    +0.000 A 
ATOM     18  C   UNL     1      -0.739  12.403  18.603  0.00  0.00    +0.000 A 
ATOM     19  C   UNL     1       0.447  11.705  18.836  0.00  0.00    +0.000 A 
ATOM     20  F   UNL     1       1.447  12.364  19.444  0.00  0.00    +0.000 F 
ENDBRANCH  12  14
ENDBRANCH   8  12
BRANCH   1  21
ATOM     21  C   UNL     1       2.752   3.495  18.838  0.00  0.00    +0.000 C 
BRANCH  21  22
ATOM     22  C   UNL     1       4.224   3.077  18.724  0.00  0.00    +0.000 C 
BRANCH  22  26
ATOM     23  C   UNL     1       6.913   6.173  17.357  0.00  0.00    +0.000 A 
ATOM     24  C   UNL     1       6.739   5.929  18.729  0.00  0.00    +0.000 A 
ATOM     25  C   UNL     1       5.858   4.944  19.177  0.00  0.00    +0.000 A 
ATOM     26  C   UNL     1       5.104   4.209  18.260  0.00  0.00    +0.000 A 
ATOM     27  C   UNL     1       5.195   4.532  16.903  0.00  0.00    +0.000 A 
ATOM     28  C   UNL     1       6.089   5.507  16.436  0.00  0.00    +0.000 A 
BRANCH  23  30
ATOM     29  C   UNL     1       7.861   8.328  17.575  0.00  0.00    +0.000 C 
ATOM     30  O   UNL     1       7.858   7.061  16.916  0.00  0.00    +0.000 OA
ENDBRANCH  23  30
BRANCH  28  31
ATOM     31  O   UNL     1       6.033   5.636  15.074  0.00  0.00    +0.000 OA
ATOM     32  C   UNL     1       6.756   4.726  14.262  0.00  0.00    +0.000 C 
ENDBRANCH  28  31
ENDBRANCH  22  26
ENDBRANCH  21  22
ENDBRANCH   1  21
TORSDOF 7
ENDMDL
MODEL 3
REMARK VINA RESULT:      -8.1      0.900      1.252
REMARK  Name = 
REMARK  9 active torsions:
REMARK  status: ('A' for Active; 'I' for Inactive)
REMARK    1  A    between atoms: C_1  and  O_2
REMARK    2  A    between atoms: O_2  and  C_3
REMARK    3  A    between atoms: C_6  and  C_7
REMARK    4  A    between atoms: C_7  and  C_8
REMARK    5  A    between atoms: C_8  and  N_9
REMARK    6  A    between atoms: C_16  and  N_17
REMARK    7  A    between atoms: N_17  and  C_18
REMARK    8  A    between atoms: C_28  and  O_29
REMARK    9  A    between atoms: O_29  and  C_30
REMARK                            x       y       z     vdW  Elec       q    Type
REMARK                         _______ _______ _______ _____ _____    ______ ____
ROOT
ATOM      1  N   UNL     1       0.922   9.554  19.696  0.00  0.00    +0.000 N 
ATOM      2  C   UNL     1       0.923   8.974  20.955  0.00  0.00    +0.000 C 
ATOM      3  O   UNL     1       0.469   9.505  21.965  0.00  0.00    +0.000 OA
ATOM      4  N   UNL     1       1.508   7.746  21.074  0.00  0.00    +0.000 N 
ATOM      5  C   UNL     1       2.174   7.043  20.118  0.00  0.00    +0.000 C 
ATOM      6  O   UNL     1       2.693   5.957  20.360  0.00  0.00    +0.000 OA
ATOM      7  C   UNL     1       2.227   7.705  18.806  0.00  0.00    +0.000 C 
ATOM      8  C   UNL     1       2.762   7.081  17.739  0.00  0.00    +0.000 C 
ATOM      9  C   UNL     1       1.713   9.085  18.654  0.00  0.00    +0.000 C 
ATOM     10  O   UNL     1       2.032   9.763  17.680  0.00  0.00    +0.000 OA
ATOM     11  H   UNL     1       1.497   7.346  22.002  0.00  0.00    +0.000 HD
ENDROOT
BRANCH   8  12
ATOM     12  N   UNL     1       3.354   5.840  17.698  0.00  0.00    +0.000 N 
ATOM     13  H   UNL     1       2.814   5.087  18.132  0.00  0.00    +0.000 HD
BRANCH  12  14
ATOM     14  C   UNL     1       4.594   5.464  17.153  0.00  0.00    +0.000 A 
ATOM     15  C   UNL     1       5.633   6.408  17.179  0.00  0.00    +0.000 A 
ATOM     16  C   UNL     1       6.879   6.138  16.604  0.00  0.00    +0.000 A 
ATOM     17  C   UNL     1       7.112   4.912  15.988  0.00  0.00    +0.000 A 
ATOM     18  C   UNL     1       6.095   3.961  15.944  0.00  0.00    +0.000 A 
ATOM     19  C   UNL     1       4.851   4.243  16.511  0.00  0.00    +0.000 A 
ATOM     20  F   UNL     1       3.915   3.281  16.460  0.00  0.00    +0.000 F 
ENDBRANCH  12  14
ENDBRANCH   8  12
BRANCH   1  21
ATOM     21  C   UNL     1       0.373  10.913  19.599  0.00  0.00    +0.000 C 
BRANCH  21  22
ATOM     22  C   UNL     1      -1.148  11.017  19.770  0.00  0.00    +0.000 C 
BRANCH  22  26
ATOM     23  C   UNL     1      -3.375  10.449  16.109  0.00  0.00    +0.000 A 
ATOM     24  C   UNL     1      -2.126   9.833  16.291  0.00  0.00    +0.000 A 
ATOM     25  C   UNL     1      -1.394  10.029  17.463  0.00  0.00    +0.000 A 
ATOM     26  C   UNL     1      -1.880  10.875  18.460  0.00  0.00    +0.000 A 
ATOM     27  C   UNL     1      -3.068  11.575  18.227  0.00  0.00    +0.000 A 
ATOM     28  C   UNL     1      -3.824  11.376  17.062  0.00  0.00    +0.000 A 
BRANCH  23  30
ATOM     29  C   UNL     1      -3.425  10.039  13.781  0.00  0.00    +0.000 C 
ATOM     30  O   UNL     1      -4.142  10.169  15.009  0.00  0.00    +0.000 OA
ENDBRANCH  23  30
BRANCH  28  31
ATOM     31  O   UNL     1      -4.961  12.139  17.059  0.00  0.00    +0.000 OA
ATOM     32  C   UNL     1      -6.093  11.698  17.790  0.00  0.00    +0.000 C 
ENDBRANCH  28  31
ENDBRANCH  22  26
ENDBRANCH  21  22
ENDBRANCH   1  21
TORSDOF 7
ENDMDL
MODEL 4
REMARK VINA RESULT:      -7.9      3.570      9.469
REMARK  Name = 
REMARK  9 active torsions:
REMARK  status: ('A' for Active; 'I' for Inactive)
REMARK    1  A    between atoms: C_1  and  O_2
REMARK    2  A    between atoms: O_2  and  C_3
REMARK    3  A    between atoms: C_6  and  C_7
REMARK    4  A    between atoms: C_7  and  C_8
REMARK    5  A    between atoms: C_8  and  N_9
REMARK    6  A    between atoms: C_16  and  N_17
REMARK    7  A    between atoms: N_17  and  C_18
REMARK    8  A    between atoms: C_28  and  O_29
REMARK    9  A    between atoms: O_29  and  C_30
REMARK                            x       y       z     vdW  Elec       q    Type
REMARK                         _______ _______ _______ _____ _____    ______ ____
ROOT
ATOM      1  N   UNL     1       1.865   7.831  18.792  0.00  0.00    +0.000 N 
ATOM      2  C   UNL     1       2.284   8.677  17.777  0.00  0.00    +0.000 C 
ATOM      3  O   UNL     1       2.937   8.320  16.800  0.00  0.00    +0.000 OA
ATOM      4  N   UNL     1       1.978  10.002  17.905  0.00  0.00    +0.000 N 
ATOM      5  C   UNL     1       1.377  10.622  18.957  0.00  0.00    +0.000 C 
ATOM      6  O   UNL     1       1.190  11.835  18.970  0.00  0.00    +0.000 OA
ATOM      7  C   UNL     1       1.004   9.720  20.058  0.00  0.00    +0.000 C 
ATOM      8  C   UNL     1       0.309  10.176  21.117  0.00  0.00    +0.000 C 
ATOM      9  C   UNL     1       1.417   8.299  20.021  0.00  0.00    +0.000 C 
ATOM     10  O   UNL     1       1.404   7.622  21.046  0.00  0.00    +0.000 OA
ATOM     11  H   UNL     1       2.296  10.597  17.153  0.00  0.00    +0.000 HD
ENDROOT
BRANCH   8  12
ATOM     12  N   UNL     1      -0.095  11.467  21.367  0.00  0.00    +0.000 N 
ATOM     13  H   UNL     1       0.645  12.171  21.321  0.00  0.00    +0.000 HD
BRANCH  12  14
ATOM     14  C   UNL     1      -1.377  11.952  21.683  0.00  0.00    +0.000 A 
ATOM     15  C   UNL     1      -1.803  11.854  23.018  0.00  0.00    +0.000 A 
ATOM     16  C   UNL     1      -3.084  12.256  23.406  0.00  0.00    +0.000 A 
ATOM     17  C   UNL     1      -3.972  12.767  22.463  0.00  0.00    +0.000 A 
ATOM     18  C   UNL     1      -3.574  12.869  21.132  0.00  0.00    +0.000 A 
ATOM     19  C   UNL     1      -2.297  12.454  20.750  0.00  0.00    +0.000 A 
ATOM     20  F   UNL     1      -1.959  12.598  19.459  0.00  0.00    +0.000 F 
ENDBRANCH  12  14
ENDBRANCH   8  12
BRANCH   1  21
ATOM     21  C   UNL     1       2.279   6.425  18.688  0.00  0.00    +0.000 C 
BRANCH  21  22
ATOM     22  C   UNL     1       3.669   6.110  19.258  0.00  0.00    +0.000 C 
BRANCH  22  26
ATOM     23  C   UNL     1       6.277   4.793  16.073  0.00  0.00    +0.000 A 
ATOM     24  C   UNL     1       5.201   3.994  16.495  0.00  0.00    +0.000 A 
ATOM     25  C   UNL     1       4.368   4.406  17.536  0.00  0.00    +0.000 A 
ATOM     26  C   UNL     1       4.618   5.607  18.200  0.00  0.00    +0.000 A 
ATOM     27  C   UNL     1       5.754   6.344  17.853  0.00  0.00    +0.000 A 
ATOM     28  C   UNL     1       6.592   5.952  16.797  0.00  0.00    +0.000 A 
BRANCH  23  30
ATOM     29  C   UNL     1       6.279   4.017  13.839  0.00  0.00    +0.000 C 
ATOM     30  O   UNL     1       7.025   4.442  14.980  0.00  0.00    +0.000 OA
ENDBRANCH  23  30
BRANCH  28  31
ATOM     31  O   UNL     1       7.622   6.835  16.614  0.00  0.00    +0.000 OA
ATOM     32  C   UNL     1       7.772   7.920  17.513  0.00  0.00    +0.000 C 
ENDBRANCH  28  31
ENDBRANCH  22  26
ENDBRANCH  21  22
ENDBRANCH   1  21
TORSDOF 7
ENDMDL
MODEL 5
REMARK VINA RESULT:      -7.9      3.036      8.624
REMARK  Name = 
REMARK  9 active torsions:
REMARK  status: ('A' for Active; 'I' for Inactive)
REMARK    1  A    between atoms: C_1  and  O_2
REMARK    2  A    between atoms: O_2  and  C_3
REMARK    3  A    between atoms: C_6  and  C_7
REMARK    4  A    between atoms: C_7  and  C_8
REMARK    5  A    between atoms: C_8  and  N_9
REMARK    6  A    between atoms: C_16  and  N_17
REMARK    7  A    between atoms: N_17  and  C_18
REMARK    8  A    between atoms: C_28  and  O_29
REMARK    9  A    between atoms: O_29  and  C_30
REMARK                            x       y       z     vdW  Elec       q    Type
REMARK                         _______ _______ _______ _____ _____    ______ ____
ROOT
ATOM      1  N   UNL     1       2.624   5.059  19.528  0.00  0.00    +0.000 N 
ATOM      2  C   UNL     1       2.235   5.213  20.849  0.00  0.00    +0.000 C 
ATOM      3  O   UNL     1       2.174   4.298  21.667  0.00  0.00    +0.000 OA
ATOM      4  N   UNL     1       1.856   6.464  21.245  0.00  0.00    +0.000 N 
ATOM      5  C   UNL     1       1.730   7.580  20.477  0.00  0.00    +0.000 C 
ATOM      6  O   UNL     1       1.341   8.645  20.946  0.00  0.00    +0.000 OA
ATOM      7  C   UNL     1       2.078   7.383  19.061  0.00  0.00    +0.000 C 
ATOM      8  C   UNL     1       2.101   8.421  18.205  0.00  0.00    +0.000 C 
ATOM      9  C   UNL     1       2.380   6.023  18.558  0.00  0.00    +0.000 C 
ATOM     10  O   UNL     1       2.353   5.788  17.352  0.00  0.00    +0.000 OA
ATOM     11  H   UNL     1       1.575   6.549  22.212  0.00  0.00    +0.000 HD
ENDROOT
BRANCH   8  12
ATOM     12  N   UNL     1       1.779   9.733  18.464  0.00  0.00    +0.000 N 
ATOM     13  H   UNL     1       2.571  10.336  18.701  0.00  0.00    +0.000 HD
BRANCH  12  14
ATOM     14  C   UNL     1       0.520  10.359  18.454  0.00  0.00    +0.000 A 
ATOM     15  C   UNL     1      -0.507   9.749  17.715  0.00  0.00    +0.000 A 
ATOM     16  C   UNL     1      -1.771  10.335  17.601  0.00  0.00    +0.000 A 
ATOM     17  C   UNL     1      -2.036  11.550  18.227  0.00  0.00    +0.000 A 
ATOM     18  C   UNL     1      -1.033  12.177  18.962  0.00  0.00    +0.000 A 
ATOM     19  C   UNL     1       0.231  11.591  19.060  0.00  0.00    +0.000 A 
ATOM     20  F   UNL     1       1.153  12.227  19.800  0.00  0.00    +0.000 F 
ENDBRANCH  12  14
ENDBRANCH   8  12
BRANCH   1  21
ATOM     21  C   UNL     1       2.941   3.693  19.091  0.00  0.00    +0.000 C 
BRANCH  21  22
ATOM     22  C   UNL     1       4.429   3.323  19.129  0.00  0.00    +0.000 C 
BRANCH  22  26
ATOM     23  C   UNL     1       6.445   5.034  15.710  0.00  0.00    +0.000 A 
ATOM     24  C   UNL     1       5.449   4.059  15.541  0.00  0.00    +0.000 A 
ATOM     25  C   UNL     1       4.809   3.489  16.642  0.00  0.00    +0.000 A 
ATOM     26  C   UNL     1       5.180   3.856  17.936  0.00  0.00    +0.000 A 
ATOM     27  C   UNL     1       6.248   4.742  18.103  0.00  0.00    +0.000 A 
ATOM     28  C   UNL     1       6.891   5.337  17.006  0.00  0.00    +0.000 A 
BRANCH  23  30
ATOM     29  C   UNL     1       7.330   4.829  13.527  0.00  0.00    +0.000 C 
ATOM     30  O   UNL     1       6.994   5.673  14.629  0.00  0.00    +0.000 OA
ENDBRANCH  23  30
BRANCH  28  31
ATOM     31  O   UNL     1       7.884   6.192  17.403  0.00  0.00    +0.000 OA
ATOM     32  C   UNL     1       7.592   7.570  17.555  0.00  0.00    +0.000 C 
ENDBRANCH  28  31
ENDBRANCH  22  26
ENDBRANCH  21  22
ENDBRANCH   1  21
TORSDOF 7
ENDMDL
MODEL 6
REMARK VINA RESULT:      -7.9      3.376      9.547
REMARK  Name = 
REMARK  9 active torsions:
REMARK  status: ('A' for Active; 'I' for Inactive)
REMARK    1  A    between atoms: C_1  and  O_2
REMARK    2  A    between atoms: O_2  and  C_3
REMARK    3  A    between atoms: C_6  and  C_7
REMARK    4  A    between atoms: C_7  and  C_8
REMARK    5  A    between atoms: C_8  and  N_9
REMARK    6  A    between atoms: C_16  and  N_17
REMARK    7  A    between atoms: N_17  and  C_18
REMARK    8  A    between atoms: C_28  and  O_29
REMARK    9  A    between atoms: O_29  and  C_30
REMARK                            x       y       z     vdW  Elec       q    Type
REMARK                         _______ _______ _______ _____ _____    ______ ____
ROOT
ATOM      1  N   UNL     1       1.736   8.451  19.151  0.00  0.00    +0.000 N 
ATOM      2  C   UNL     1       1.806   9.172  17.969  0.00  0.00    +0.000 C 
ATOM      3  O   UNL     1       2.545   8.893  17.028  0.00  0.00    +0.000 OA
ATOM      4  N   UNL     1       1.025  10.288  17.873  0.00  0.00    +0.000 N 
ATOM      5  C   UNL     1       0.237  10.839  18.835  0.00  0.00    +0.000 C 
ATOM      6  O   UNL     1      -0.392  11.875  18.638  0.00  0.00    +0.000 OA
ATOM      7  C   UNL     1       0.230  10.103  20.109  0.00  0.00    +0.000 C 
ATOM      8  C   UNL     1      -0.584  10.472  21.115  0.00  0.00    +0.000 C 
ATOM      9  C   UNL     1       1.147   8.957  20.303  0.00  0.00    +0.000 C 
ATOM     10  O   UNL     1       1.390   8.541  21.434  0.00  0.00    +0.000 OA
ATOM     11  H   UNL     1       1.096  10.796  17.003  0.00  0.00    +0.000 HD
ENDROOT
BRANCH   8  12
ATOM     12  N   UNL     1      -1.444  11.546  21.153  0.00  0.00    +0.000 N 
ATOM     13  H   UNL     1      -1.931  11.743  20.275  0.00  0.00    +0.000 HD
BRANCH  12  14
ATOM     14  C   UNL     1      -1.741  12.410  22.221  0.00  0.00    +0.000 A 
ATOM     15  C   UNL     1      -3.007  12.297  22.820  0.00  0.00    +0.000 A 
ATOM     16  C   UNL     1      -3.408  13.157  23.847  0.00  0.00    +0.000 A 
ATOM     17  C   UNL     1      -2.547  14.153  24.299  0.00  0.00    +0.000 A 
ATOM     18  C   UNL     1      -1.288  14.288  23.718  0.00  0.00    +0.000 A 
ATOM     19  C   UNL     1      -0.900  13.432  22.685  0.00  0.00    +0.000 A 
ATOM     20  F   UNL     1       0.333  13.593  22.178  0.00  0.00    +0.000 F 
ENDBRANCH  12  14
ENDBRANCH   8  12
BRANCH   1  21
ATOM     21  C   UNL     1       2.648   7.306  19.277  0.00  0.00    +0.000 C 
BRANCH  21  22
ATOM     22  C   UNL     1       2.352   6.129  18.339  0.00  0.00    +0.000 C 
BRANCH  22  26
ATOM     23  C   UNL     1       5.834   4.682  16.226  0.00  0.00    +0.000 A 
ATOM     24  C   UNL     1       4.832   3.794  16.647  0.00  0.00    +0.000 A 
ATOM     25  C   UNL     1       3.715   4.253  17.348  0.00  0.00    +0.000 A 
ATOM     26  C   UNL     1       3.598   5.605  17.672  0.00  0.00    +0.000 A 
ATOM     27  C   UNL     1       4.651   6.466  17.350  0.00  0.00    +0.000 A 
ATOM     28  C   UNL     1       5.772   6.024  16.631  0.00  0.00    +0.000 A 
BRANCH  23  30
ATOM     29  C   UNL     1       6.597   4.183  14.044  0.00  0.00    +0.000 C 
ATOM     30  O   UNL     1       6.873   4.249  15.444  0.00  0.00    +0.000 OA
ENDBRANCH  23  30
BRANCH  28  31
ATOM     31  O   UNL     1       6.661   7.040  16.401  0.00  0.00    +0.000 OA
ATOM     32  C   UNL     1       7.649   7.330  17.375  0.00  0.00    +0.000 C 
ENDBRANCH  28  31
ENDBRANCH  22  26
ENDBRANCH  21  22
ENDBRANCH   1  21
TORSDOF 7
ENDMDL
MODEL 7
REMARK VINA RESULT:      -7.9      4.127      9.994
REMARK  Name = 
REMARK  9 active torsions:
REMARK  status: ('A' for Active; 'I' for Inactive)
REMARK    1  A    between atoms: C_1  and  O_2
REMARK    2  A    between atoms: O_2  and  C_3
REMARK    3  A    between atoms: C_6  and  C_7
REMARK    4  A    between atoms: C_7  and  C_8
REMARK    5  A    between atoms: C_8  and  N_9
REMARK    6  A    between atoms: C_16  and  N_17
REMARK    7  A    between atoms: N_17  and  C_18
REMARK    8  A    between atoms: C_28  and  O_29
REMARK    9  A    between atoms: O_29  and  C_30
REMARK                            x       y       z     vdW  Elec       q    Type
REMARK                         _______ _______ _______ _____ _____    ______ ____
ROOT
ATOM      1  N   UNL     1       0.594   9.544  21.011  0.00  0.00    +0.000 N 
ATOM      2  C   UNL     1       0.549  10.138  19.759  0.00  0.00    +0.000 C 
ATOM      3  O   UNL     1       1.229   9.785  18.798  0.00  0.00    +0.000 OA
ATOM      4  N   UNL     1      -0.280  11.212  19.608  0.00  0.00    +0.000 N 
ATOM      5  C   UNL     1      -1.019  11.836  20.565  0.00  0.00    +0.000 C 
ATOM      6  O   UNL     1      -1.702  12.824  20.311  0.00  0.00    +0.000 OA
ATOM      7  C   UNL     1      -0.905  11.238  21.905  0.00  0.00    +0.000 C 
ATOM      8  C   UNL     1      -1.659  11.685  22.926  0.00  0.00    +0.000 C 
ATOM      9  C   UNL     1       0.068  10.149  22.146  0.00  0.00    +0.000 C 
ATOM     10  O   UNL     1       0.408   9.863  23.292  0.00  0.00    +0.000 OA
ATOM     11  H   UNL     1      -0.293  11.627  18.687  0.00  0.00    +0.000 HD
ENDROOT
BRANCH   8  12
ATOM     12  N   UNL     1      -2.556  12.728  22.918  0.00  0.00    +0.000 N 
ATOM     13  H   UNL     1      -2.138  13.659  22.847  0.00  0.00    +0.000 HD
BRANCH  12  14
ATOM     14  C   UNL     1      -3.959  12.695  23.000  0.00  0.00    +0.000 A 
ATOM     15  C   UNL     1      -4.686  12.774  21.800  0.00  0.00    +0.000 A 
ATOM     16  C   UNL     1      -6.083  12.809  21.794  0.00  0.00    +0.000 A 
ATOM     17  C   UNL     1      -6.788  12.767  22.994  0.00  0.00    +0.000 A 
ATOM     18  C   UNL     1      -6.090  12.694  24.197  0.00  0.00    +0.000 A 
ATOM     19  C   UNL     1      -4.694  12.670  24.195  0.00  0.00    +0.000 A 
ATOM     20  F   UNL     1      -4.074  12.576  25.382  0.00  0.00    +0.000 F 
ENDBRANCH  12  14
ENDBRANCH   8  12
BRANCH   1  21
ATOM     21  C   UNL     1       1.558   8.449  21.185  0.00  0.00    +0.000 C 
BRANCH  21  22
ATOM     22  C   UNL     1       0.955   7.038  21.155  0.00  0.00    +0.000 C 
BRANCH  22  26
ATOM     23  C   UNL     1       3.342   4.152  18.997  0.00  0.00    +0.000 A 
ATOM     24  C   UNL     1       2.787   3.832  20.247  0.00  0.00    +0.000 A 
ATOM     25  C   UNL     1       2.032   4.766  20.957  0.00  0.00    +0.000 A 
ATOM     26  C   UNL     1       1.850   6.052  20.447  0.00  0.00    +0.000 A 
ATOM     27  C   UNL     1       2.497   6.402  19.258  0.00  0.00    +0.000 A 
ATOM     28  C   UNL     1       3.245   5.469  18.524  0.00  0.00    +0.000 A 
BRANCH  23  30
ATOM     29  C   UNL     1       3.458   1.878  18.357  0.00  0.00    +0.000 C 
ATOM     30  O   UNL     1       3.988   3.201  18.251  0.00  0.00    +0.000 OA
ENDBRANCH  23  30
BRANCH  28  31
ATOM     31  O   UNL     1       3.762   6.019  17.382  0.00  0.00    +0.000 OA
ATOM     32  C   UNL     1       5.053   6.601  17.417  0.00  0.00    +0.000 C 
ENDBRANCH  28  31
ENDBRANCH  22  26
ENDBRANCH  21  22
ENDBRANCH   1  21
TORSDOF 7
ENDMDL
MODEL 8
REMARK VINA RESULT:      -7.9      3.644      9.506
REMARK  Name = 
REMARK  9 active torsions:
REMARK  status: ('A' for Active; 'I' for Inactive)
REMARK    1  A    between atoms: C_1  and  O_2
REMARK    2  A    between atoms: O_2  and  C_3
REMARK    3  A    between atoms: C_6  and  C_7
REMARK    4  A    between atoms: C_7  and  C_8
REMARK    5  A    between atoms: C_8  and  N_9
REMARK    6  A    between atoms: C_16  and  N_17
REMARK    7  A    between atoms: N_17  and  C_18
REMARK    8  A    between atoms: C_28  and  O_29
REMARK    9  A    between atoms: O_29  and  C_30
REMARK                            x       y       z     vdW  Elec       q    Type
REMARK                         _______ _______ _______ _____ _____    ______ ____
ROOT
ATOM      1  N   UNL     1       1.697   8.470  19.253  0.00  0.00    +0.000 N 
ATOM      2  C   UNL     1       1.751   9.187  18.068  0.00  0.00    +0.000 C 
ATOM      3  O   UNL     1       2.464   8.896  17.111  0.00  0.00    +0.000 OA
ATOM      4  N   UNL     1       0.984  10.314  17.987  0.00  0.00    +0.000 N 
ATOM      5  C   UNL     1       0.225  10.879  18.965  0.00  0.00    +0.000 C 
ATOM      6  O   UNL     1      -0.394  11.923  18.780  0.00  0.00    +0.000 OA
ATOM      7  C   UNL     1       0.236  10.145  20.240  0.00  0.00    +0.000 C 
ATOM      8  C   UNL     1      -0.550  10.528  21.264  0.00  0.00    +0.000 C 
ATOM      9  C   UNL     1       1.141   8.986  20.417  0.00  0.00    +0.000 C 
ATOM     10  O   UNL     1       1.403   8.570  21.543  0.00  0.00    +0.000 OA
ATOM     11  H   UNL     1       1.042  10.819  17.114  0.00  0.00    +0.000 HD
ENDROOT
BRANCH   8  12
ATOM     12  N   UNL     1      -1.393  11.614  21.318  0.00  0.00    +0.000 N 
ATOM     13  H   UNL     1      -2.202  11.567  20.693  0.00  0.00    +0.000 HD
BRANCH  12  14
ATOM     14  C   UNL     1      -1.297  12.776  22.103  0.00  0.00    +0.000 A 
ATOM     15  C   UNL     1      -0.334  13.732  21.741  0.00  0.00    +0.000 A 
ATOM     16  C   UNL     1      -0.130  14.887  22.502  0.00  0.00    +0.000 A 
ATOM     17  C   UNL     1      -0.890  15.112  23.647  0.00  0.00    +0.000 A 
ATOM     18  C   UNL     1      -1.848  14.176  24.029  0.00  0.00    +0.000 A 
ATOM     19  C   UNL     1      -2.037  13.020  23.270  0.00  0.00    +0.000 A 
ATOM     20  F   UNL     1      -2.990  12.163  23.672  0.00  0.00    +0.000 F 
ENDBRANCH  12  14
ENDBRANCH   8  12
BRANCH   1  21
ATOM     21  C   UNL     1       2.595   7.312  19.362  0.00  0.00    +0.000 C 
BRANCH  21  22
ATOM     22  C   UNL     1       2.215   6.107  18.493  0.00  0.00    +0.000 C 
BRANCH  22  26
ATOM     23  C   UNL     1       5.544   4.472  16.273  0.00  0.00    +0.000 A 
ATOM     24  C   UNL     1       4.494   3.645  16.702  0.00  0.00    +0.000 A 
ATOM     25  C   UNL     1       3.426   4.164  17.436  0.00  0.00    +0.000 A 
ATOM     26  C   UNL     1       3.408   5.514  17.787  0.00  0.00    +0.000 A 
ATOM     27  C   UNL     1       4.509   6.309  17.456  0.00  0.00    +0.000 A 
ATOM     28  C   UNL     1       5.581   5.807  16.704  0.00  0.00    +0.000 A 
BRANCH  23  30
ATOM     29  C   UNL     1       6.287   4.108  14.058  0.00  0.00    +0.000 C 
ATOM     30  O   UNL     1       6.534   3.986  15.459  0.00  0.00    +0.000 OA
ENDBRANCH  23  30
BRANCH  28  31
ATOM     31  O   UNL     1       6.530   6.766  16.470  0.00  0.00    +0.000 OA
ATOM     32  C   UNL     1       7.451   7.094  17.497  0.00  0.00    +0.000 C 
ENDBRANCH  28  31
ENDBRANCH  22  26
ENDBRANCH  21  22
ENDBRANCH   1  21
TORSDOF 7
ENDMDL
MODEL 9
REMARK VINA RESULT:      -7.9      3.828      9.719
REMARK  Name = 
REMARK  9 active torsions:
REMARK  status: ('A' for Active; 'I' for Inactive)
REMARK    1  A    between atoms: C_1  and  O_2
REMARK    2  A    between atoms: O_2  and  C_3
REMARK    3  A    between atoms: C_6  and  C_7
REMARK    4  A    between atoms: C_7  and  C_8
REMARK    5  A    between atoms: C_8  and  N_9
REMARK    6  A    between atoms: C_16  and  N_17
REMARK    7  A    between atoms: N_17  and  C_18
REMARK    8  A    between atoms: C_28  and  O_29
REMARK    9  A    between atoms: O_29  and  C_30
REMARK                            x       y       z     vdW  Elec       q    Type
REMARK                         _______ _______ _______ _____ _____    ______ ____
ROOT
ATOM      1  N   UNL     1       0.957   9.287  19.905  0.00  0.00    +0.000 N 
ATOM      2  C   UNL     1       0.756   9.712  18.601  0.00  0.00    +0.000 C 
ATOM      3  O   UNL     1       1.320   9.234  17.620  0.00  0.00    +0.000 OA
ATOM      4  N   UNL     1      -0.097  10.761  18.413  0.00  0.00    +0.000 N 
ATOM      5  C   UNL     1      -0.723  11.508  19.362  0.00  0.00    +0.000 C 
ATOM      6  O   UNL     1      -1.442  12.458  19.065  0.00  0.00    +0.000 OA
ATOM      7  C   UNL     1      -0.442  11.090  20.744  0.00  0.00    +0.000 C 
ATOM      8  C   UNL     1      -1.072  11.671  21.782  0.00  0.00    +0.000 C 
ATOM      9  C   UNL     1       0.566  10.038  21.007  0.00  0.00    +0.000 C 
ATOM     10  O   UNL     1       1.044   9.902  22.130  0.00  0.00    +0.000 OA
ATOM     11  H   UNL     1      -0.225  11.052  17.454  0.00  0.00    +0.000 HD
ENDROOT
BRANCH   8  12
ATOM     12  N   UNL     1      -1.975  12.708  21.747  0.00  0.00    +0.000 N 
ATOM     13  H   UNL     1      -1.668  13.534  21.228  0.00  0.00    +0.000 HD
BRANCH  12  14
ATOM     14  C   UNL     1      -3.254  12.794  22.326  0.00  0.00    +0.000 A 
ATOM     15  C   UNL     1      -3.346  12.698  23.724  0.00  0.00    +0.000 A 
ATOM     16  C   UNL     1      -4.583  12.713  24.377  0.00  0.00    +0.000 A 
ATOM     17  C   UNL     1      -5.759  12.826  23.641  0.00  0.00    +0.000 A 
ATOM     18  C   UNL     1      -5.693  12.918  22.253  0.00  0.00    +0.000 A 
ATOM     19  C   UNL     1      -4.455  12.890  21.608  0.00  0.00    +0.000 A 
ATOM     20  F   UNL     1      -4.450  13.007  20.270  0.00  0.00    +0.000 F 
ENDBRANCH  12  14
ENDBRANCH   8  12
BRANCH   1  21
ATOM     21  C   UNL     1       1.947   8.219  20.103  0.00  0.00    +0.000 C 
BRANCH  21  22
ATOM     22  C   UNL     1       1.434   6.984  20.855  0.00  0.00    +0.000 C 
BRANCH  22  26
ATOM     23  C   UNL     1       2.289   3.340  18.693  0.00  0.00    +0.000 A 
ATOM     24  C   UNL     1       1.533   3.311  19.875  0.00  0.00    +0.000 A 
ATOM     25  C   UNL     1       1.270   4.482  20.588  0.00  0.00    +0.000 A 
ATOM     26  C   UNL     1       1.792   5.700  20.151  0.00  0.00    +0.000 A 
ATOM     27  C   UNL     1       2.638   5.708  19.038  0.00  0.00    +0.000 A 
ATOM     28  C   UNL     1       2.897   4.542  18.301  0.00  0.00    +0.000 A 
BRANCH  23  30
ATOM     29  C   UNL     1       3.580   1.403  18.278  0.00  0.00    +0.000 C 
ATOM     30  O   UNL     1       2.453   2.210  17.936  0.00  0.00    +0.000 OA
ENDBRANCH  23  30
BRANCH  28  31
ATOM     31  O   UNL     1       3.723   4.789  17.237  0.00  0.00    +0.000 OA
ATOM     32  C   UNL     1       5.127   4.705  17.416  0.00  0.00    +0.000 C 
ENDBRANCH  28  31
ENDBRANCH  22  26
ENDBRANCH  21  22
ENDBRANCH   1  21
TORSDOF 7
ENDMDL
