MODEL 1
REMARK VINA RESULT:      -7.7      0.000      0.000
REMARK  Name = 
REMARK  6 active torsions:
REMARK  status: ('A' for Active; 'I' for Inactive)
REMARK    1  A    between atoms: C_1  and  C_2
REMARK    2  A    between atoms: C_2  and  C_3
REMARK    3  A    between atoms: C_3  and  C_4
REMARK    4  A    between atoms: C_3  and  C_5
REMARK    5  A    between atoms: N_9  and  C_10
REMARK    6  A    between atoms: C_12  and  C_13
REMARK                            x       y       z     vdW  Elec       q    Type
REMARK                         _______ _______ _______ _____ _____    ______ ____
ROOT
ATOM      1  C   UNL     1       6.628   4.518  15.411  0.00  0.00    +0.000 C 
ATOM      2  N   UNL     1       5.858   3.408  15.907  0.00  0.00    +0.000 N 
ATOM      3  C   UNL     1       4.873   3.799  16.784  0.00  0.00    +0.000 C 
ATOM      4  O   UNL     1       4.148   3.006  17.362  0.00  0.00    +0.000 OA
ATOM      5  N   UNL     1       4.894   5.161  16.888  0.00  0.00    +0.000 N 
ATOM      6  C   UNL     1       5.972   5.658  16.199  0.00  0.00    +0.000 C 
ATOM      7  O   UNL     1       6.353   6.821  16.190  0.00  0.00    +0.000 OA
ATOM      8  H   UNL     1       6.041   2.425  15.738  0.00  0.00    +0.000 HD
ENDROOT
BRANCH   5   9
ATOM      9  C   UNL     1       4.026   5.984  17.736  0.00  0.00    +0.000 C 
ATOM     10  C   UNL     1       2.589   5.427  17.922  0.00  0.00    +0.000 C 
ATOM     11  C   UNL     1       2.628   6.005  19.372  0.00  0.00    +0.000 C 
ATOM     12  C   UNL     1       4.172   5.829  19.270  0.00  0.00    +0.000 C 
BRANCH  11  13
ATOM     13  C   UNL     1       1.993   7.455  19.598  0.00  0.00    +0.000 A 
ATOM     14  C   UNL     1       1.926   8.384  18.539  0.00  0.00    +0.000 A 
ATOM     15  C   UNL     1       1.381   9.661  18.700  0.00  0.00    +0.000 A 
ATOM     16  C   UNL     1       0.876  10.051  19.935  0.00  0.00    +0.000 A 
ATOM     17  C   UNL     1       0.913   9.159  21.001  0.00  0.00    +0.000 A 
ATOM     18  C   UNL     1       1.459   7.883  20.829  0.00  0.00    +0.000 A 
ENDBRANCH  11  13
ENDBRANCH   5   9
BRANCH   1  19
ATOM     19  C   UNL     1       6.513   4.660  13.883  0.00  0.00    +0.000 C 
ATOM     20  C   UNL     1       7.780   5.260  13.248  0.00  0.00    +0.000 C 
BRANCH  19  22
ATOM     21  C   UNL     1       5.111   3.489  12.085  0.00  0.00    +0.000 C 
ATOM     22  C   UNL     1       6.166   3.336  13.172  0.00  0.00    +0.000 C 
ENDBRANCH  19  22
ENDBRANCH   1  19
TORSDOF 4
ENDMDL
MODEL 2
REMARK VINA RESULT:      -7.7      0.395      1.116
REMARK  Name = 
REMARK  6 active torsions:
REMARK  status: ('A' for Active; 'I' for Inactive)
REMARK    1  A    between atoms: C_1  and  C_2
REMARK    2  A    between atoms: C_2  and  C_3
REMARK    3  A    between atoms: C_3  and  C_4
REMARK    4  A    between atoms: C_3  and  C_5
REMARK    5  A    between atoms: N_9  and  C_10
REMARK    6  A    between atoms: C_12  and  C_13
REMARK                            x       y       z     vdW  Elec       q    Type
REMARK                         _______ _______ _______ _____ _____    ______ ____
ROOT
ATOM      1  C   UNL     1       6.636   4.700  15.562  0.00  0.00    +0.000 C 
ATOM      2  N   UNL     1       5.910   3.558  16.053  0.00  0.00    +0.000 N 
ATOM      3  C   UNL     1       4.913   3.907  16.934  0.00  0.00    +0.000 C 
ATOM      4  O   UNL     1       4.220   3.085  17.509  0.00  0.00    +0.000 OA
ATOM      5  N   UNL     1       4.882   5.269  17.044  0.00  0.00    +0.000 N 
ATOM      6  C   UNL     1       5.940   5.810  16.356  0.00  0.00    +0.000 C 
ATOM      7  O   UNL     1       6.276   6.986  16.352  0.00  0.00    +0.000 OA
ATOM      8  H   UNL     1       6.130   2.584  15.879  0.00  0.00    +0.000 HD
ENDROOT
BRANCH   5   9
ATOM      9  C   UNL     1       3.986   6.054  17.899  0.00  0.00    +0.000 C 
ATOM     10  C   UNL     1       2.518   5.551  17.929  0.00  0.00    +0.000 C 
ATOM     11  C   UNL     1       2.469   5.998  19.423  0.00  0.00    +0.000 C 
ATOM     12  C   UNL     1       4.007   5.760  19.418  0.00  0.00    +0.000 C 
BRANCH  11  13
ATOM     13  C   UNL     1       1.876   7.450  19.733  0.00  0.00    +0.000 A 
ATOM     14  C   UNL     1       1.403   7.775  21.022  0.00  0.00    +0.000 A 
ATOM     15  C   UNL     1       0.876   9.033  21.329  0.00  0.00    +0.000 A 
ATOM     16  C   UNL     1       0.810  10.016  20.349  0.00  0.00    +0.000 A 
ATOM     17  C   UNL     1       1.277   9.739  19.068  0.00  0.00    +0.000 A 
ATOM     18  C   UNL     1       1.804   8.478  18.772  0.00  0.00    +0.000 A 
ENDBRANCH  11  13
ENDBRANCH   5   9
BRANCH   1  19
ATOM     19  C   UNL     1       6.514   4.844  14.035  0.00  0.00    +0.000 C 
ATOM     20  C   UNL     1       7.862   5.150  13.359  0.00  0.00    +0.000 C 
BRANCH  19  22
ATOM     21  C   UNL     1       6.478   3.289  11.998  0.00  0.00    +0.000 C 
ATOM     22  C   UNL     1       5.872   3.617  13.355  0.00  0.00    +0.000 C 
ENDBRANCH  19  22
ENDBRANCH   1  19
TORSDOF 4
ENDMDL
MODEL 3
REMARK VINA RESULT:      -7.6      2.387      7.300
REMARK  Name = 
REMARK  6 active torsions:
REMARK  status: ('A' for Active; 'I' for Inactive)
REMARK    1  A    between atoms: C_1  and  C_2
REMARK    2  A    between atoms: C_2  and  C_3
REMARK    3  A    between atoms: C_3  and  C_4
REMARK    4  A    between atoms: C_3  and  C_5
REMARK    5  A    between atoms: N_9  and  C_10
REMARK    6  A    between atoms: C_12  and  C_13
REMARK                            x       y       z     vdW  Elec       q    Type
REMARK                         _______ _______ _______ _____ _____    ______ ____
ROOT
ATOM      1  C   UNL     1       2.676   4.733  19.916  0.00  0.00    +0.000 C 
ATOM      2  N   UNL     1       2.515   6.079  19.431  0.00  0.00    +0.000 N 
ATOM      3  C   UNL     1       3.226   6.310  18.276  0.00  0.00    +0.000 C 
ATOM      4  O   UNL     1       3.272   7.402  17.735  0.00  0.00    +0.000 OA
ATOM      5  N   UNL     1       3.848   5.152  17.904  0.00  0.00    +0.000 N 
ATOM      6  C   UNL     1       3.669   4.201  18.878  0.00  0.00    +0.000 C 
ATOM      7  O   UNL     1       4.196   3.097  18.918  0.00  0.00    +0.000 OA
ATOM      8  H   UNL     1       2.028   6.833  19.900  0.00  0.00    +0.000 HD
ENDROOT
BRANCH   5   9
ATOM      9  C   UNL     1       4.726   4.967  16.744  0.00  0.00    +0.000 C 
ATOM     10  C   UNL     1       5.400   6.268  16.232  0.00  0.00    +0.000 C 
ATOM     11  C   UNL     1       6.644   5.398  15.871  0.00  0.00    +0.000 C 
ATOM     12  C   UNL     1       6.161   4.452  17.010  0.00  0.00    +0.000 C 
BRANCH  11  13
ATOM     13  C   UNL     1       6.752   4.863  14.367  0.00  0.00    +0.000 A 
ATOM     14  C   UNL     1       7.678   5.430  13.467  0.00  0.00    +0.000 A 
ATOM     15  C   UNL     1       7.799   4.990  12.145  0.00  0.00    +0.000 A 
ATOM     16  C   UNL     1       6.992   3.959  11.680  0.00  0.00    +0.000 A 
ATOM     17  C   UNL     1       6.073   3.367  12.540  0.00  0.00    +0.000 A 
ATOM     18  C   UNL     1       5.962   3.813  13.861  0.00  0.00    +0.000 A 
ENDBRANCH  11  13
ENDBRANCH   5   9
BRANCH   1  19
ATOM     19  C   UNL     1       1.338   3.974  19.957  0.00  0.00    +0.000 C 
ATOM     20  C   UNL     1       1.122   3.088  18.718  0.00  0.00    +0.000 C 
BRANCH  19  22
ATOM     21  C   UNL     1       2.456   2.510  21.739  0.00  0.00    +0.000 C 
ATOM     22  C   UNL     1       1.158   3.121  21.229  0.00  0.00    +0.000 C 
ENDBRANCH  19  22
ENDBRANCH   1  19
TORSDOF 4
ENDMDL
MODEL 4
REMARK VINA RESULT:      -7.6      2.561      7.217
REMARK  Name = 
REMARK  6 active torsions:
REMARK  status: ('A' for Active; 'I' for Inactive)
REMARK    1  A    between atoms: C_1  and  C_2
REMARK    2  A    between atoms: C_2  and  C_3
REMARK    3  A    between atoms: C_3  and  C_4
REMARK    4  A    between atoms: C_3  and  C_5
REMARK    5  A    between atoms: N_9  and  C_10
REMARK    6  A    between atoms: C_12  and  C_13
REMARK                            x       y       z     vdW  Elec       q    Type
REMARK                         _______ _______ _______ _____ _____    ______ ____
ROOT
ATOM      1  C   UNL     1       3.218   4.263  20.349  0.00  0.00    +0.000 C 
ATOM      2  N   UNL     1       2.601   5.414  19.743  0.00  0.00    +0.000 N 
ATOM      3  C   UNL     1       3.127   5.703  18.506  0.00  0.00    +0.000 C 
ATOM      4  O   UNL     1       2.783   6.673  17.851  0.00  0.00    +0.000 OA
ATOM      5  N   UNL     1       4.068   4.762  18.198  0.00  0.00    +0.000 N 
ATOM      6  C   UNL     1       4.267   3.940  19.279  0.00  0.00    +0.000 C 
ATOM      7  O   UNL     1       5.125   3.073  19.383  0.00  0.00    +0.000 OA
ATOM      8  H   UNL     1       1.924   6.031  20.176  0.00  0.00    +0.000 HD
ENDROOT
BRANCH   5   9
ATOM      9  C   UNL     1       4.887   4.713  16.982  0.00  0.00    +0.000 C 
ATOM     10  C   UNL     1       5.267   6.102  16.404  0.00  0.00    +0.000 C 
ATOM     11  C   UNL     1       6.628   5.472  15.971  0.00  0.00    +0.000 C 
ATOM     12  C   UNL     1       6.409   4.486  17.155  0.00  0.00    +0.000 C 
BRANCH  11  13
ATOM     13  C   UNL     1       6.736   4.924  14.472  0.00  0.00    +0.000 A 
ATOM     14  C   UNL     1       5.880   3.898  14.018  0.00  0.00    +0.000 A 
ATOM     15  C   UNL     1       5.947   3.393  12.716  0.00  0.00    +0.000 A 
ATOM     16  C   UNL     1       6.878   3.904  11.819  0.00  0.00    +0.000 A 
ATOM     17  C   UNL     1       7.732   4.924  12.226  0.00  0.00    +0.000 A 
ATOM     18  C   UNL     1       7.655   5.424  13.529  0.00  0.00    +0.000 A 
ENDBRANCH  11  13
ENDBRANCH   5   9
BRANCH   1  19
ATOM     19  C   UNL     1       2.204   3.133  20.601  0.00  0.00    +0.000 C 
ATOM     20  C   UNL     1       1.911   2.924  22.096  0.00  0.00    +0.000 C 
BRANCH  19  22
ATOM     21  C   UNL     1       0.683   2.350  18.692  0.00  0.00    +0.000 C 
ATOM     22  C   UNL     1       0.874   3.327  19.844  0.00  0.00    +0.000 C 
ENDBRANCH  19  22
ENDBRANCH   1  19
TORSDOF 4
ENDMDL
MODEL 5
REMARK VINA RESULT:      -7.6      2.554      7.195
REMARK  Name = 
REMARK  6 active torsions:
REMARK  status: ('A' for Active; 'I' for Inactive)
REMARK    1  A    between atoms: C_1  and  C_2
REMARK    2  A    between atoms: C_2  and  C_3
REMARK    3  A    between atoms: C_3  and  C_4
REMARK    4  A    between atoms: C_3  and  C_5
REMARK    5  A    between atoms: N_9  and  C_10
REMARK    6  A    between atoms: C_12  and  C_13
REMARK                            x       y       z     vdW  Elec       q    Type
REMARK                         _______ _______ _______ _____ _____    ______ ____
ROOT
ATOM      1  C   UNL     1       3.335   4.163  20.421  0.00  0.00    +0.000 C 
ATOM      2  N   UNL     1       2.844   5.422  19.924  0.00  0.00    +0.000 N 
ATOM      3  C   UNL     1       3.375   5.746  18.697  0.00  0.00    +0.000 C 
ATOM      4  O   UNL     1       3.133   6.799  18.129  0.00  0.00    +0.000 OA
ATOM      5  N   UNL     1       4.193   4.730  18.290  0.00  0.00    +0.000 N 
ATOM      6  C   UNL     1       4.316   3.808  19.299  0.00  0.00    +0.000 C 
ATOM      7  O   UNL     1       5.069   2.843  19.310  0.00  0.00    +0.000 OA
ATOM      8  H   UNL     1       2.253   6.076  20.422  0.00  0.00    +0.000 HD
ENDROOT
BRANCH   5   9
ATOM      9  C   UNL     1       4.975   4.684  17.050  0.00  0.00    +0.000 C 
ATOM     10  C   UNL     1       5.304   6.074  16.443  0.00  0.00    +0.000 C 
ATOM     11  C   UNL     1       6.666   5.470  15.976  0.00  0.00    +0.000 C 
ATOM     12  C   UNL     1       6.506   4.494  17.179  0.00  0.00    +0.000 C 
BRANCH  11  13
ATOM     13  C   UNL     1       6.740   4.905  14.482  0.00  0.00    +0.000 A 
ATOM     14  C   UNL     1       7.681   5.419  13.564  0.00  0.00    +0.000 A 
ATOM     15  C   UNL     1       7.774   4.952  12.250  0.00  0.00    +0.000 A 
ATOM     16  C   UNL     1       6.924   3.945  11.809  0.00  0.00    +0.000 A 
ATOM     17  C   UNL     1       5.990   3.404  12.686  0.00  0.00    +0.000 A 
ATOM     18  C   UNL     1       5.907   3.877  14.000  0.00  0.00    +0.000 A 
ENDBRANCH  11  13
ENDBRANCH   5   9
BRANCH   1  19
ATOM     19  C   UNL     1       2.202   3.141  20.616  0.00  0.00    +0.000 C 
ATOM     20  C   UNL     1       1.812   2.964  22.094  0.00  0.00    +0.000 C 
BRANCH  19  22
ATOM     21  C   UNL     1       0.664   2.462  18.682  0.00  0.00    +0.000 C 
ATOM     22  C   UNL     1       0.939   3.466  19.792  0.00  0.00    +0.000 C 
ENDBRANCH  19  22
ENDBRANCH   1  19
TORSDOF 4
ENDMDL
MODEL 6
REMARK VINA RESULT:      -7.5      2.730      7.278
REMARK  Name = 
REMARK  6 active torsions:
REMARK  status: ('A' for Active; 'I' for Inactive)
REMARK    1  A    between atoms: C_1  and  C_2
REMARK    2  A    between atoms: C_2  and  C_3
REMARK    3  A    between atoms: C_3  and  C_4
REMARK    4  A    between atoms: C_3  and  C_5
REMARK    5  A    between atoms: N_9  and  C_10
REMARK    6  A    between atoms: C_12  and  C_13
REMARK                            x       y       z     vdW  Elec       q    Type
REMARK                         _______ _______ _______ _____ _____    ______ ____
ROOT
ATOM      1  C   UNL     1       2.542   2.081  19.726  0.00  0.00    +0.000 C 
ATOM      2  N   UNL     1       3.732   2.546  20.388  0.00  0.00    +0.000 N 
ATOM      3  C   UNL     1       4.651   3.073  19.511  0.00  0.00    +0.000 C 
ATOM      4  O   UNL     1       5.751   3.468  19.863  0.00  0.00    +0.000 OA
ATOM      5  N   UNL     1       4.126   3.036  18.251  0.00  0.00    +0.000 N 
ATOM      6  C   UNL     1       2.930   2.362  18.270  0.00  0.00    +0.000 C 
ATOM      7  O   UNL     1       2.262   2.044  17.296  0.00  0.00    +0.000 OA
ATOM      8  H   UNL     1       3.958   2.433  21.370  0.00  0.00    +0.000 HD
ENDROOT
BRANCH   5   9
ATOM      9  C   UNL     1       4.787   3.477  17.018  0.00  0.00    +0.000 C 
ATOM     10  C   UNL     1       4.043   4.606  16.256  0.00  0.00    +0.000 C 
ATOM     11  C   UNL     1       5.445   5.159  15.848  0.00  0.00    +0.000 C 
ATOM     12  C   UNL     1       5.956   4.483  17.154  0.00  0.00    +0.000 C 
BRANCH  11  13
ATOM     13  C   UNL     1       6.022   4.710  14.426  0.00  0.00    +0.000 A 
ATOM     14  C   UNL     1       7.230   5.250  13.937  0.00  0.00    +0.000 A 
ATOM     15  C   UNL     1       7.764   4.884  12.698  0.00  0.00    +0.000 A 
ATOM     16  C   UNL     1       7.103   3.954  11.904  0.00  0.00    +0.000 A 
ATOM     17  C   UNL     1       5.914   3.391  12.356  0.00  0.00    +0.000 A 
ATOM     18  C   UNL     1       5.390   3.762  13.598  0.00  0.00    +0.000 A 
ENDBRANCH  11  13
ENDBRANCH   5   9
BRANCH   1  19
ATOM     19  C   UNL     1       1.288   2.836  20.201  0.00  0.00    +0.000 C 
ATOM     20  C   UNL     1       1.181   2.900  21.734  0.00  0.00    +0.000 C 
BRANCH  19  22
ATOM     21  C   UNL     1       1.728   5.336  20.550  0.00  0.00    +0.000 C 
ATOM     22  C   UNL     1       1.177   4.262  19.623  0.00  0.00    +0.000 C 
ENDBRANCH  19  22
ENDBRANCH   1  19
TORSDOF 4
ENDMDL
MODEL 7
REMARK VINA RESULT:      -7.4      2.729      7.286
REMARK  Name = 
REMARK  6 active torsions:
REMARK  status: ('A' for Active; 'I' for Inactive)
REMARK    1  A    between atoms: C_1  and  C_2
REMARK    2  A    between atoms: C_2  and  C_3
REMARK    3  A    between atoms: C_3  and  C_4
REMARK    4  A    between atoms: C_3  and  C_5
REMARK    5  A    between atoms: N_9  and  C_10
REMARK    6  A    between atoms: C_12  and  C_13
REMARK                            x       y       z     vdW  Elec       q    Type
REMARK                         _______ _______ _______ _____ _____    ______ ____
ROOT
ATOM      1  C   UNL     1       2.579   2.089  19.665  0.00  0.00    +0.000 C 
ATOM      2  N   UNL     1       3.772   2.530  20.341  0.00  0.00    +0.000 N 
ATOM      3  C   UNL     1       4.702   3.058  19.477  0.00  0.00    +0.000 C 
ATOM      4  O   UNL     1       5.804   3.435  19.841  0.00  0.00    +0.000 OA
ATOM      5  N   UNL     1       4.183   3.048  18.213  0.00  0.00    +0.000 N 
ATOM      6  C   UNL     1       2.979   2.388  18.216  0.00  0.00    +0.000 C 
ATOM      7  O   UNL     1       2.312   2.094  17.233  0.00  0.00    +0.000 OA
ATOM      8  H   UNL     1       3.990   2.398  21.321  0.00  0.00    +0.000 HD
ENDROOT
BRANCH   5   9
ATOM      9  C   UNL     1       4.855   3.501  16.991  0.00  0.00    +0.000 C 
ATOM     10  C   UNL     1       4.149   4.676  16.263  0.00  0.00    +0.000 C 
ATOM     11  C   UNL     1       5.568   5.191  15.866  0.00  0.00    +0.000 C 
ATOM     12  C   UNL     1       6.059   4.461  17.151  0.00  0.00    +0.000 C 
BRANCH  11  13
ATOM     13  C   UNL     1       6.126   4.763  14.430  0.00  0.00    +0.000 A 
ATOM     14  C   UNL     1       5.429   3.826  13.638  0.00  0.00    +0.000 A 
ATOM     15  C   UNL     1       5.887   3.426  12.379  0.00  0.00    +0.000 A 
ATOM     16  C   UNL     1       7.065   3.958  11.867  0.00  0.00    +0.000 A 
ATOM     17  C   UNL     1       7.775   4.892  12.613  0.00  0.00    +0.000 A 
ATOM     18  C   UNL     1       7.307   5.287  13.870  0.00  0.00    +0.000 A 
ENDBRANCH  11  13
ENDBRANCH   5   9
BRANCH   1  19
ATOM     19  C   UNL     1       1.332   2.852  20.146  0.00  0.00    +0.000 C 
ATOM     20  C   UNL     1       1.198   2.860  21.678  0.00  0.00    +0.000 C 
BRANCH  19  22
ATOM     21  C   UNL     1       1.639   5.343  20.664  0.00  0.00    +0.000 C 
ATOM     22  C   UNL     1       1.262   4.301  19.621  0.00  0.00    +0.000 C 
ENDBRANCH  19  22
ENDBRANCH   1  19
TORSDOF 4
ENDMDL
MODEL 8
REMARK VINA RESULT:      -7.3      2.304      7.297
REMARK  Name = 
REMARK  6 active torsions:
REMARK  status: ('A' for Active; 'I' for Inactive)
REMARK    1  A    between atoms: C_1  and  C_2
REMARK    2  A    between atoms: C_2  and  C_3
REMARK    3  A    between atoms: C_3  and  C_4
REMARK    4  A    between atoms: C_3  and  C_5
REMARK    5  A    between atoms: N_9  and  C_10
REMARK    6  A    between atoms: C_12  and  C_13
REMARK                            x       y       z     vdW  Elec       q    Type
REMARK                         _______ _______ _______ _____ _____    ______ ____
ROOT
ATOM      1  C   UNL     1       2.953   5.459  20.175  0.00  0.00    +0.000 C 
ATOM      2  N   UNL     1       2.622   6.666  19.463  0.00  0.00    +0.000 N 
ATOM      3  C   UNL     1       3.231   6.735  18.232  0.00  0.00    +0.000 C 
ATOM      4  O   UNL     1       3.128   7.702  17.495  0.00  0.00    +0.000 OA
ATOM      5  N   UNL     1       3.947   5.589  18.032  0.00  0.00    +0.000 N 
ATOM      6  C   UNL     1       3.931   4.831  19.177  0.00  0.00    +0.000 C 
ATOM      7  O   UNL     1       4.572   3.809  19.378  0.00  0.00    +0.000 OA
ATOM      8  H   UNL     1       2.087   7.449  19.821  0.00  0.00    +0.000 HD
ENDROOT
BRANCH   5   9
ATOM      9  C   UNL     1       4.766   5.265  16.859  0.00  0.00    +0.000 C 
ATOM     10  C   UNL     1       5.529   6.473  16.252  0.00  0.00    +0.000 C 
ATOM     11  C   UNL     1       6.683   5.480  15.906  0.00  0.00    +0.000 C 
ATOM     12  C   UNL     1       6.162   4.645  17.112  0.00  0.00    +0.000 C 
BRANCH  11  13
ATOM     13  C   UNL     1       6.693   4.856  14.434  0.00  0.00    +0.000 A 
ATOM     14  C   UNL     1       5.725   3.904  14.049  0.00  0.00    +0.000 A 
ATOM     15  C   UNL     1       5.704   3.335  12.773  0.00  0.00    +0.000 A 
ATOM     16  C   UNL     1       6.656   3.707  11.830  0.00  0.00    +0.000 A 
ATOM     17  C   UNL     1       7.621   4.650  12.168  0.00  0.00    +0.000 A 
ATOM     18  C   UNL     1       7.631   5.215  13.447  0.00  0.00    +0.000 A 
ENDBRANCH  11  13
ENDBRANCH   5   9
BRANCH   1  19
ATOM     19  C   UNL     1       1.707   4.603  20.464  0.00  0.00    +0.000 C 
ATOM     20  C   UNL     1       1.238   3.807  19.234  0.00  0.00    +0.000 C 
BRANCH  19  22
ATOM     21  C   UNL     1       1.966   2.174  21.242  0.00  0.00    +0.000 C 
ATOM     22  C   UNL     1       1.892   3.638  21.653  0.00  0.00    +0.000 C 
ENDBRANCH  19  22
ENDBRANCH   1  19
TORSDOF 4
ENDMDL
MODEL 9
REMARK VINA RESULT:      -7.2      2.029      7.541
REMARK  Name = 
REMARK  6 active torsions:
REMARK  status: ('A' for Active; 'I' for Inactive)
REMARK    1  A    between atoms: C_1  and  C_2
REMARK    2  A    between atoms: C_2  and  C_3
REMARK    3  A    between atoms: C_3  and  C_4
REMARK    4  A    between atoms: C_3  and  C_5
REMARK    5  A    between atoms: N_9  and  C_10
REMARK    6  A    between atoms: C_12  and  C_13
REMARK                            x       y       z     vdW  Elec       q    Type
REMARK                         _______ _______ _______ _____ _____    ______ ____
ROOT
ATOM      1  C   UNL     1       4.168   4.572  19.516  0.00  0.00    +0.000 C 
ATOM      2  N   UNL     1       5.422   5.280  19.488  0.00  0.00    +0.000 N 
ATOM      3  C   UNL     1       6.043   5.202  18.264  0.00  0.00    +0.000 C 
ATOM      4  O   UNL     1       7.143   5.684  18.047  0.00  0.00    +0.000 OA
ATOM      5  N   UNL     1       5.243   4.498  17.409  0.00  0.00    +0.000 N 
ATOM      6  C   UNL     1       4.168   3.991  18.098  0.00  0.00    +0.000 C 
ATOM      7  O   UNL     1       3.329   3.215  17.662  0.00  0.00    +0.000 OA
ATOM      8  H   UNL     1       5.884   5.717  20.277  0.00  0.00    +0.000 HD
ENDROOT
BRANCH   5   9
ATOM      9  C   UNL     1       5.540   4.163  16.013  0.00  0.00    +0.000 C 
ATOM     10  C   UNL     1       5.315   5.325  15.008  0.00  0.00    +0.000 C 
ATOM     11  C   UNL     1       6.532   4.770  14.203  0.00  0.00    +0.000 C 
ATOM     12  C   UNL     1       7.022   4.204  15.568  0.00  0.00    +0.000 C 
BRANCH  11  13
ATOM     13  C   UNL     1       6.214   3.784  12.985  0.00  0.00    +0.000 A 
ATOM     14  C   UNL     1       4.894   3.623  12.515  0.00  0.00    +0.000 A 
ATOM     15  C   UNL     1       4.578   2.768  11.455  0.00  0.00    +0.000 A 
ATOM     16  C   UNL     1       5.582   2.044  10.824  0.00  0.00    +0.000 A 
ATOM     17  C   UNL     1       6.898   2.183  11.251  0.00  0.00    +0.000 A 
ATOM     18  C   UNL     1       7.204   3.043  12.311  0.00  0.00    +0.000 A 
ENDBRANCH  11  13
ENDBRANCH   5   9
BRANCH   1  19
ATOM     19  C   UNL     1       2.985   5.511  19.814  0.00  0.00    +0.000 C 
ATOM     20  C   UNL     1       2.596   6.374  18.602  0.00  0.00    +0.000 C 
BRANCH  19  22
ATOM     21  C   UNL     1       2.045   3.740  21.410  0.00  0.00    +0.000 C 
ATOM     22  C   UNL     1       1.736   4.772  20.335  0.00  0.00    +0.000 C 
ENDBRANCH  19  22
ENDBRANCH   1  19
TORSDOF 4
ENDMDL
