MODEL 1
REMARK VINA RESULT:      -8.6      0.000      0.000
REMARK  Name = 
REMARK  9 active torsions:
REMARK  status: ('A' for Active; 'I' for Inactive)
REMARK    1  A    between atoms: C_1  and  C_2
REMARK    2  A    between atoms: C_2  and  N_3
REMARK    3  A    between atoms: N_3  and  C_4
REMARK    4  A    between atoms: N_3  and  C_5
REMARK    5  A    between atoms: C_5  and  C_6
REMARK    6  A    between atoms: C_6  and  O_7
REMARK    7  A    between atoms: O_7  and  C_8
REMARK    8  A    between atoms: C_12  and  C_13
REMARK    9  A    between atoms: C_14  and  C_15
REMARK                            x       y       z     vdW  Elec       q    Type
REMARK                         _______ _______ _______ _____ _____    ______ ____
ROOT
ATOM      1  C   UNL     1       2.550   7.123  18.895  0.00  0.00    +0.000 A 
ATOM      2  C   UNL     1       3.384   7.526  17.861  0.00  0.00    +0.000 A 
ATOM      3  C   UNL     1       3.946   6.583  17.016  0.00  0.00    +0.000 A 
ATOM      4  C   UNL     1       3.819   5.206  17.257  0.00  0.00    +0.000 A 
ATOM      5  C   UNL     1       4.541   4.209  16.545  0.00  0.00    +0.000 A 
ATOM      6  C   UNL     1       4.223   2.873  16.808  0.00  0.00    +0.000 A 
ATOM      7  C   UNL     1       3.235   2.582  17.728  0.00  0.00    +0.000 A 
ATOM      8  N   UNL     1       2.607   3.507  18.476  0.00  0.00    +0.000 NA
ATOM      9  C   UNL     1       2.912   4.796  18.263  0.00  0.00    +0.000 A 
ATOM     10  C   UNL     1       2.305   5.759  19.065  0.00  0.00    +0.000 A 
ENDROOT
BRANCH   5  11
ATOM     11  C   UNL     1       5.602   4.510  15.567  0.00  0.00    +0.000 A 
ATOM     12  C   UNL     1       6.837   5.291  15.719  0.00  0.00    +0.000 A 
ATOM     13  N   UNL     1       7.516   5.362  14.549  0.00  0.00    +0.000 NA
ATOM     14  N   UNL     1       6.780   4.637  13.734  0.00  0.00    +0.000 N 
ATOM     15  C   UNL     1       5.614   4.155  14.229  0.00  0.00    +0.000 A 
ATOM     16  C   UNL     1       4.899   3.439  13.142  0.00  0.00    +0.000 C 
ATOM     17  C   UNL     1       6.058   3.127  12.156  0.00  0.00    +0.000 C 
ATOM     18  C   UNL     1       7.068   4.259  12.357  0.00  0.00    +0.000 C 
BRANCH  12  19
ATOM     19  C   UNL     1       7.352   5.977  16.910  0.00  0.00    +0.000 A 
ATOM     20  C   UNL     1       7.579   5.273  18.091  0.00  0.00    +0.000 A 
ATOM     21  C   UNL     1       8.089   5.954  19.193  0.00  0.00    +0.000 A 
ATOM     22  C   UNL     1       8.354   7.315  19.089  0.00  0.00    +0.000 A 
ATOM     23  C   UNL     1       8.095   7.940  17.880  0.00  0.00    +0.000 A 
ATOM     24  N   UNL     1       7.603   7.306  16.795  0.00  0.00    +0.000 NA
ENDBRANCH  12  19
ENDBRANCH   5  11
BRANCH   1  25
ATOM     25  O   UNL     1       1.920   7.977  19.765  0.00  0.00    +0.000 OA
BRANCH  25  26
ATOM     26  C   UNL     1       1.365   9.136  19.128  0.00  0.00    +0.000 C 
BRANCH  26  27
ATOM     27  C   UNL     1       0.598  10.005  20.128  0.00  0.00    +0.000 C 
BRANCH  27  28
ATOM     28  N   UNL     1      -0.673  10.551  19.590  0.00  0.00    +0.000 NA
ATOM     29  C   UNL     1      -0.848  10.247  18.167  0.00  0.00    +0.000 C 
BRANCH  28  31
ATOM     30  C   UNL     1       0.419  12.779  19.191  0.00  0.00    +0.000 C 
ATOM     31  C   UNL     1      -0.717  12.002  19.848  0.00  0.00    +0.000 C 
ENDBRANCH  28  31
ENDBRANCH  27  28
ENDBRANCH  26  27
ENDBRANCH  25  26
ENDBRANCH   1  25
TORSDOF 7
ENDMDL
MODEL 2
REMARK VINA RESULT:      -8.4      0.898      1.232
REMARK  Name = 
REMARK  9 active torsions:
REMARK  status: ('A' for Active; 'I' for Inactive)
REMARK    1  A    between atoms: C_1  and  C_2
REMARK    2  A    between atoms: C_2  and  N_3
REMARK    3  A    between atoms: N_3  and  C_4
REMARK    4  A    between atoms: N_3  and  C_5
REMARK    5  A    between atoms: C_5  and  C_6
REMARK    6  A    between atoms: C_6  and  O_7
REMARK    7  A    between atoms: O_7  and  C_8
REMARK    8  A    between atoms: C_12  and  C_13
REMARK    9  A    between atoms: C_14  and  C_15
REMARK                            x       y       z     vdW  Elec       q    Type
REMARK                         _______ _______ _______ _____ _____    ______ ____
ROOT
ATOM      1  C   UNL     1       2.550   6.753  19.107  0.00  0.00    +0.000 A 
ATOM      2  C   UNL     1       3.326   7.233  18.061  0.00  0.00    +0.000 A 
ATOM      3  C   UNL     1       3.905   6.348  17.166  0.00  0.00    +0.000 A 
ATOM      4  C   UNL     1       3.856   4.959  17.363  0.00  0.00    +0.000 A 
ATOM      5  C   UNL     1       4.602   4.025  16.593  0.00  0.00    +0.000 A 
ATOM      6  C   UNL     1       4.360   2.666  16.820  0.00  0.00    +0.000 A 
ATOM      7  C   UNL     1       3.421   2.294  17.761  0.00  0.00    +0.000 A 
ATOM      8  N   UNL     1       2.773   3.161  18.561  0.00  0.00    +0.000 NA
ATOM      9  C   UNL     1       3.006   4.470  18.383  0.00  0.00    +0.000 A 
ATOM     10  C   UNL     1       2.379   5.373  19.238  0.00  0.00    +0.000 A 
ENDROOT
BRANCH   5  11
ATOM     11  C   UNL     1       5.612   4.412  15.593  0.00  0.00    +0.000 A 
ATOM     12  C   UNL     1       6.807   5.256  15.729  0.00  0.00    +0.000 A 
ATOM     13  N   UNL     1       7.442   5.398  14.541  0.00  0.00    +0.000 NA
ATOM     14  N   UNL     1       6.721   4.656  13.728  0.00  0.00    +0.000 N 
ATOM     15  C   UNL     1       5.600   4.096  14.244  0.00  0.00    +0.000 A 
ATOM     16  C   UNL     1       4.891   3.372  13.159  0.00  0.00    +0.000 C 
ATOM     17  C   UNL     1       6.032   3.153  12.129  0.00  0.00    +0.000 C 
ATOM     18  C   UNL     1       6.984   4.334  12.332  0.00  0.00    +0.000 C 
BRANCH  12  19
ATOM     19  C   UNL     1       7.322   5.936  16.924  0.00  0.00    +0.000 A 
ATOM     20  C   UNL     1       7.591   5.219  18.087  0.00  0.00    +0.000 A 
ATOM     21  C   UNL     1       8.099   5.895  19.193  0.00  0.00    +0.000 A 
ATOM     22  C   UNL     1       8.321   7.265  19.109  0.00  0.00    +0.000 A 
ATOM     23  C   UNL     1       8.023   7.903  17.917  0.00  0.00    +0.000 A 
ATOM     24  N   UNL     1       7.531   7.274  16.829  0.00  0.00    +0.000 NA
ENDBRANCH  12  19
ENDBRANCH   5  11
BRANCH   1  25
ATOM     25  O   UNL     1       1.908   7.545  20.027  0.00  0.00    +0.000 OA
BRANCH  25  26
ATOM     26  C   UNL     1       1.661   8.878  19.561  0.00  0.00    +0.000 C 
BRANCH  26  27
ATOM     27  C   UNL     1       0.398   9.463  20.197  0.00  0.00    +0.000 C 
BRANCH  27  28
ATOM     28  N   UNL     1       0.662  10.249  21.429  0.00  0.00    +0.000 NA
ATOM     29  C   UNL     1       0.371   9.486  22.646  0.00  0.00    +0.000 C 
BRANCH  28  31
ATOM     30  C   UNL     1      -0.861  11.824  22.662  0.00  0.00    +0.000 C 
ATOM     31  C   UNL     1      -0.114  11.502  21.372  0.00  0.00    +0.000 C 
ENDBRANCH  28  31
ENDBRANCH  27  28
ENDBRANCH  26  27
ENDBRANCH  25  26
ENDBRANCH   1  25
TORSDOF 7
ENDMDL
MODEL 3
REMARK VINA RESULT:      -8.3      0.886      1.486
REMARK  Name = 
REMARK  9 active torsions:
REMARK  status: ('A' for Active; 'I' for Inactive)
REMARK    1  A    between atoms: C_1  and  C_2
REMARK    2  A    between atoms: C_2  and  N_3
REMARK    3  A    between atoms: N_3  and  C_4
REMARK    4  A    between atoms: N_3  and  C_5
REMARK    5  A    between atoms: C_5  and  C_6
REMARK    6  A    between atoms: C_6  and  O_7
REMARK    7  A    between atoms: O_7  and  C_8
REMARK    8  A    between atoms: C_12  and  C_13
REMARK    9  A    between atoms: C_14  and  C_15
REMARK                            x       y       z     vdW  Elec       q    Type
REMARK                         _______ _______ _______ _____ _____    ______ ____
ROOT
ATOM      1  C   UNL     1       2.451   7.391  18.749  0.00  0.00    +0.000 A 
ATOM      2  C   UNL     1       3.354   7.723  17.748  0.00  0.00    +0.000 A 
ATOM      3  C   UNL     1       3.916   6.728  16.966  0.00  0.00    +0.000 A 
ATOM      4  C   UNL     1       3.717   5.367  17.244  0.00  0.00    +0.000 A 
ATOM      5  C   UNL     1       4.431   4.316  16.604  0.00  0.00    +0.000 A 
ATOM      6  C   UNL     1       4.041   3.004  16.892  0.00  0.00    +0.000 A 
ATOM      7  C   UNL     1       2.996   2.787  17.767  0.00  0.00    +0.000 A 
ATOM      8  N   UNL     1       2.371   3.763  18.451  0.00  0.00    +0.000 NA
ATOM      9  C   UNL     1       2.743   5.030  18.213  0.00  0.00    +0.000 A 
ATOM     10  C   UNL     1       2.137   6.045  18.950  0.00  0.00    +0.000 A 
ENDROOT
BRANCH   5  11
ATOM     11  C   UNL     1       5.553   4.538  15.675  0.00  0.00    +0.000 A 
ATOM     12  C   UNL     1       6.855   5.184  15.897  0.00  0.00    +0.000 A 
ATOM     13  N   UNL     1       7.581   5.223  14.754  0.00  0.00    +0.000 NA
ATOM     14  N   UNL     1       6.807   4.603  13.889  0.00  0.00    +0.000 N 
ATOM     15  C   UNL     1       5.580   4.227  14.326  0.00  0.00    +0.000 A 
ATOM     16  C   UNL     1       4.839   3.623  13.190  0.00  0.00    +0.000 C 
ATOM     17  C   UNL     1       5.998   3.226  12.234  0.00  0.00    +0.000 C 
ATOM     18  C   UNL     1       7.108   4.242  12.510  0.00  0.00    +0.000 C 
BRANCH  12  19
ATOM     19  C   UNL     1       7.390   5.776  17.129  0.00  0.00    +0.000 A 
ATOM     20  C   UNL     1       7.633   7.145  17.210  0.00  0.00    +0.000 A 
ATOM     21  C   UNL     1       8.119   7.673  18.403  0.00  0.00    +0.000 A 
ATOM     22  C   UNL     1       8.352   6.822  19.478  0.00  0.00    +0.000 A 
ATOM     23  C   UNL     1       8.088   5.473  19.312  0.00  0.00    +0.000 A 
ATOM     24  N   UNL     1       7.615   4.934  18.169  0.00  0.00    +0.000 NA
ENDBRANCH  12  19
ENDBRANCH   5  11
BRANCH   1  25
ATOM     25  O   UNL     1       1.814   8.300  19.556  0.00  0.00    +0.000 OA
BRANCH  25  26
ATOM     26  C   UNL     1       1.202   9.377  18.834  0.00  0.00    +0.000 C 
BRANCH  26  27
ATOM     27  C   UNL     1       1.004  10.604  19.727  0.00  0.00    +0.000 C 
BRANCH  27  28
ATOM     28  N   UNL     1      -0.250  10.567  20.521  0.00  0.00    +0.000 NA
ATOM     29  C   UNL     1      -1.021  11.807  20.396  0.00  0.00    +0.000 C 
BRANCH  28  31
ATOM     30  C   UNL     1      -0.416   8.908  22.402  0.00  0.00    +0.000 C 
ATOM     31  C   UNL     1       0.083  10.269  21.925  0.00  0.00    +0.000 C 
ENDBRANCH  28  31
ENDBRANCH  27  28
ENDBRANCH  26  27
ENDBRANCH  25  26
ENDBRANCH   1  25
TORSDOF 7
ENDMDL
MODEL 4
REMARK VINA RESULT:      -8.2      1.529      1.862
REMARK  Name = 
REMARK  9 active torsions:
REMARK  status: ('A' for Active; 'I' for Inactive)
REMARK    1  A    between atoms: C_1  and  C_2
REMARK    2  A    between atoms: C_2  and  N_3
REMARK    3  A    between atoms: N_3  and  C_4
REMARK    4  A    between atoms: N_3  and  C_5
REMARK    5  A    between atoms: C_5  and  C_6
REMARK    6  A    between atoms: C_6  and  O_7
REMARK    7  A    between atoms: O_7  and  C_8
REMARK    8  A    between atoms: C_12  and  C_13
REMARK    9  A    between atoms: C_14  and  C_15
REMARK                            x       y       z     vdW  Elec       q    Type
REMARK                         _______ _______ _______ _____ _____    ______ ____
ROOT
ATOM      1  C   UNL     1       2.489   7.338  18.820  0.00  0.00    +0.000 A 
ATOM      2  C   UNL     1       3.385   7.680  17.816  0.00  0.00    +0.000 A 
ATOM      3  C   UNL     1       3.934   6.693  17.014  0.00  0.00    +0.000 A 
ATOM      4  C   UNL     1       3.730   5.329  17.274  0.00  0.00    +0.000 A 
ATOM      5  C   UNL     1       4.431   4.284  16.612  0.00  0.00    +0.000 A 
ATOM      6  C   UNL     1       4.036   2.970  16.884  0.00  0.00    +0.000 A 
ATOM      7  C   UNL     1       2.997   2.746  17.766  0.00  0.00    +0.000 A 
ATOM      8  N   UNL     1       2.384   3.716  18.469  0.00  0.00    +0.000 NA
ATOM      9  C   UNL     1       2.761   4.984  18.247  0.00  0.00    +0.000 A 
ATOM     10  C   UNL     1       2.169   5.991  19.004  0.00  0.00    +0.000 A 
ENDROOT
BRANCH   5  11
ATOM     11  C   UNL     1       5.546   4.513  15.676  0.00  0.00    +0.000 A 
ATOM     12  C   UNL     1       6.846   5.164  15.891  0.00  0.00    +0.000 A 
ATOM     13  N   UNL     1       7.565   5.209  14.744  0.00  0.00    +0.000 NA
ATOM     14  N   UNL     1       6.788   4.587  13.882  0.00  0.00    +0.000 N 
ATOM     15  C   UNL     1       5.565   4.205  14.326  0.00  0.00    +0.000 A 
ATOM     16  C   UNL     1       4.819   3.600  13.194  0.00  0.00    +0.000 C 
ATOM     17  C   UNL     1       5.973   3.210  12.230  0.00  0.00    +0.000 C 
ATOM     18  C   UNL     1       7.081   4.230  12.501  0.00  0.00    +0.000 C 
BRANCH  12  19
ATOM     19  C   UNL     1       7.386   5.755  17.121  0.00  0.00    +0.000 A 
ATOM     20  C   UNL     1       7.616   7.127  17.206  0.00  0.00    +0.000 A 
ATOM     21  C   UNL     1       8.108   7.654  18.398  0.00  0.00    +0.000 A 
ATOM     22  C   UNL     1       8.360   6.801  19.466  0.00  0.00    +0.000 A 
ATOM     23  C   UNL     1       8.108   5.450  19.296  0.00  0.00    +0.000 A 
ATOM     24  N   UNL     1       7.630   4.911  18.154  0.00  0.00    +0.000 NA
ENDBRANCH  12  19
ENDBRANCH   5  11
BRANCH   1  25
ATOM     25  O   UNL     1       1.865   8.240  19.647  0.00  0.00    +0.000 OA
BRANCH  25  26
ATOM     26  C   UNL     1       1.294   7.641  20.818  0.00  0.00    +0.000 C 
BRANCH  26  27
ATOM     27  C   UNL     1       0.100   8.450  21.329  0.00  0.00    +0.000 C 
BRANCH  27  28
ATOM     28  N   UNL     1       0.483   9.601  22.185  0.00  0.00    +0.000 NA
ATOM     29  C   UNL     1       1.762   9.383  22.867  0.00  0.00    +0.000 C 
BRANCH  28  31
ATOM     30  C   UNL     1      -1.277  11.225  22.949  0.00  0.00    +0.000 C 
ATOM     31  C   UNL     1      -0.607   9.868  23.141  0.00  0.00    +0.000 C 
ENDBRANCH  28  31
ENDBRANCH  27  28
ENDBRANCH  26  27
ENDBRANCH  25  26
ENDBRANCH   1  25
TORSDOF 7
ENDMDL
MODEL 5
REMARK VINA RESULT:      -8.1      0.809      1.294
REMARK  Name = 
REMARK  9 active torsions:
REMARK  status: ('A' for Active; 'I' for Inactive)
REMARK    1  A    between atoms: C_1  and  C_2
REMARK    2  A    between atoms: C_2  and  N_3
REMARK    3  A    between atoms: N_3  and  C_4
REMARK    4  A    between atoms: N_3  and  C_5
REMARK    5  A    between atoms: C_5  and  C_6
REMARK    6  A    between atoms: C_6  and  O_7
REMARK    7  A    between atoms: O_7  and  C_8
REMARK    8  A    between atoms: C_12  and  C_13
REMARK    9  A    between atoms: C_14  and  C_15
REMARK                            x       y       z     vdW  Elec       q    Type
REMARK                         _______ _______ _______ _____ _____    ______ ____
ROOT
ATOM      1  C   UNL     1       2.471   7.306  18.771  0.00  0.00    +0.000 A 
ATOM      2  C   UNL     1       3.369   7.651  17.771  0.00  0.00    +0.000 A 
ATOM      3  C   UNL     1       3.929   6.666  16.974  0.00  0.00    +0.000 A 
ATOM      4  C   UNL     1       3.732   5.301  17.236  0.00  0.00    +0.000 A 
ATOM      5  C   UNL     1       4.443   4.259  16.580  0.00  0.00    +0.000 A 
ATOM      6  C   UNL     1       4.054   2.943  16.854  0.00  0.00    +0.000 A 
ATOM      7  C   UNL     1       3.013   2.715  17.730  0.00  0.00    +0.000 A 
ATOM      8  N   UNL     1       2.390   3.682  18.429  0.00  0.00    +0.000 NA
ATOM      9  C   UNL     1       2.761   4.952  18.205  0.00  0.00    +0.000 A 
ATOM     10  C   UNL     1       2.159   5.958  18.957  0.00  0.00    +0.000 A 
ENDROOT
BRANCH   5  11
ATOM     11  C   UNL     1       5.561   4.492  15.649  0.00  0.00    +0.000 A 
ATOM     12  C   UNL     1       6.859   5.146  15.870  0.00  0.00    +0.000 A 
ATOM     13  N   UNL     1       7.582   5.195  14.726  0.00  0.00    +0.000 NA
ATOM     14  N   UNL     1       6.810   4.574  13.860  0.00  0.00    +0.000 N 
ATOM     15  C   UNL     1       5.586   4.187  14.298  0.00  0.00    +0.000 A 
ATOM     16  C   UNL     1       4.846   3.584  13.162  0.00  0.00    +0.000 C 
ATOM     17  C   UNL     1       6.004   3.199  12.201  0.00  0.00    +0.000 C 
ATOM     18  C   UNL     1       7.109   4.221  12.479  0.00  0.00    +0.000 C 
BRANCH  12  19
ATOM     19  C   UNL     1       7.393   5.735  17.104  0.00  0.00    +0.000 A 
ATOM     20  C   UNL     1       7.602   7.109  17.200  0.00  0.00    +0.000 A 
ATOM     21  C   UNL     1       8.089   7.634  18.394  0.00  0.00    +0.000 A 
ATOM     22  C   UNL     1       8.356   6.776  19.455  0.00  0.00    +0.000 A 
ATOM     23  C   UNL     1       8.125   5.423  19.275  0.00  0.00    +0.000 A 
ATOM     24  N   UNL     1       7.652   4.886  18.130  0.00  0.00    +0.000 NA
ENDBRANCH  12  19
ENDBRANCH   5  11
BRANCH   1  25
ATOM     25  O   UNL     1       1.837   8.206  19.592  0.00  0.00    +0.000 OA
BRANCH  25  26
ATOM     26  C   UNL     1       1.297   9.335  18.895  0.00  0.00    +0.000 C 
BRANCH  26  27
ATOM     27  C   UNL     1       0.617  10.310  19.858  0.00  0.00    +0.000 C 
BRANCH  27  28
ATOM     28  N   UNL     1       0.832  11.738  19.512  0.00  0.00    +0.000 NA
ATOM     29  C   UNL     1       1.434  12.490  20.617  0.00  0.00    +0.000 C 
BRANCH  28  31
ATOM     30  C   UNL     1      -1.652  11.413  19.315  0.00  0.00    +0.000 C 
ATOM     31  C   UNL     1      -0.451  12.325  19.086  0.00  0.00    +0.000 C 
ENDBRANCH  28  31
ENDBRANCH  27  28
ENDBRANCH  26  27
ENDBRANCH  25  26
ENDBRANCH   1  25
TORSDOF 7
ENDMDL
MODEL 6
REMARK VINA RESULT:      -8.0      3.994      9.450
REMARK  Name = 
REMARK  9 active torsions:
REMARK  status: ('A' for Active; 'I' for Inactive)
REMARK    1  A    between atoms: C_1  and  C_2
REMARK    2  A    between atoms: C_2  and  N_3
REMARK    3  A    between atoms: N_3  and  C_4
REMARK    4  A    between atoms: N_3  and  C_5
REMARK    5  A    between atoms: C_5  and  C_6
REMARK    6  A    between atoms: C_6  and  O_7
REMARK    7  A    between atoms: O_7  and  C_8
REMARK    8  A    between atoms: C_12  and  C_13
REMARK    9  A    between atoms: C_14  and  C_15
REMARK                            x       y       z     vdW  Elec       q    Type
REMARK                         _______ _______ _______ _____ _____    ______ ____
ROOT
ATOM      1  C   UNL     1       2.433   7.192  18.432  0.00  0.00    +0.000 A 
ATOM      2  C   UNL     1       2.430   8.403  17.755  0.00  0.00    +0.000 A 
ATOM      3  C   UNL     1       1.997   9.553  18.394  0.00  0.00    +0.000 A 
ATOM      4  C   UNL     1       1.417   9.515  19.672  0.00  0.00    +0.000 A 
ATOM      5  C   UNL     1       0.774  10.627  20.282  0.00  0.00    +0.000 A 
ATOM      6  C   UNL     1       0.351  10.479  21.607  0.00  0.00    +0.000 A 
ATOM      7  C   UNL     1       0.574   9.281  22.257  0.00  0.00    +0.000 A 
ATOM      8  N   UNL     1       1.096   8.190  21.668  0.00  0.00    +0.000 NA
ATOM      9  C   UNL     1       1.487   8.297  20.389  0.00  0.00    +0.000 A 
ATOM     10  C   UNL     1       1.984   7.161  19.754  0.00  0.00    +0.000 A 
ENDROOT
BRANCH   5  11
ATOM     11  C   UNL     1       0.525  11.906  19.594  0.00  0.00    +0.000 A 
ATOM     12  C   UNL     1      -0.581  12.310  18.715  0.00  0.00    +0.000 A 
ATOM     13  N   UNL     1      -0.400  13.568  18.249  0.00  0.00    +0.000 NA
ATOM     14  N   UNL     1       0.719  13.943  18.832  0.00  0.00    +0.000 N 
ATOM     15  C   UNL     1       1.358  13.012  19.583  0.00  0.00    +0.000 A 
ATOM     16  C   UNL     1       2.626  13.600  20.084  0.00  0.00    +0.000 C 
ATOM     17  C   UNL     1       2.337  15.121  19.965  0.00  0.00    +0.000 C 
ATOM     18  C   UNL     1       1.359  15.251  18.796  0.00  0.00    +0.000 C 
BRANCH  12  19
ATOM     19  C   UNL     1      -1.755  11.533  18.297  0.00  0.00    +0.000 A 
ATOM     20  C   UNL     1      -1.603  10.361  17.560  0.00  0.00    +0.000 A 
ATOM     21  C   UNL     1      -2.739   9.639  17.201  0.00  0.00    +0.000 A 
ATOM     22  C   UNL     1      -3.990  10.107  17.585  0.00  0.00    +0.000 A 
ATOM     23  C   UNL     1      -4.053  11.283  18.312  0.00  0.00    +0.000 A 
ATOM     24  N   UNL     1      -2.971  12.003  18.675  0.00  0.00    +0.000 NA
ENDBRANCH  12  19
ENDBRANCH   5  11
BRANCH   1  25
ATOM     25  O   UNL     1       2.871   6.003  17.901  0.00  0.00    +0.000 OA
BRANCH  25  26
ATOM     26  C   UNL     1       1.878   4.969  17.919  0.00  0.00    +0.000 C 
BRANCH  26  27
ATOM     27  C   UNL     1       2.476   3.633  18.364  0.00  0.00    +0.000 C 
BRANCH  27  28
ATOM     28  N   UNL     1       3.311   3.733  19.588  0.00  0.00    +0.000 NA
ATOM     29  C   UNL     1       4.735   3.527  19.306  0.00  0.00    +0.000 C 
BRANCH  28  31
ATOM     30  C   UNL     1       1.463   3.163  21.194  0.00  0.00    +0.000 C 
ATOM     31  C   UNL     1       2.808   2.774  20.588  0.00  0.00    +0.000 C 
ENDBRANCH  28  31
ENDBRANCH  27  28
ENDBRANCH  26  27
ENDBRANCH  25  26
ENDBRANCH   1  25
TORSDOF 7
ENDMDL
MODEL 7
REMARK VINA RESULT:      -7.8      3.090      5.396
REMARK  Name = 
REMARK  9 active torsions:
REMARK  status: ('A' for Active; 'I' for Inactive)
REMARK    1  A    between atoms: C_1  and  C_2
REMARK    2  A    between atoms: C_2  and  N_3
REMARK    3  A    between atoms: N_3  and  C_4
REMARK    4  A    between atoms: N_3  and  C_5
REMARK    5  A    between atoms: C_5  and  C_6
REMARK    6  A    between atoms: C_6  and  O_7
REMARK    7  A    between atoms: O_7  and  C_8
REMARK    8  A    between atoms: C_12  and  C_13
REMARK    9  A    between atoms: C_14  and  C_15
REMARK                            x       y       z     vdW  Elec       q    Type
REMARK                         _______ _______ _______ _____ _____    ______ ____
ROOT
ATOM      1  C   UNL     1       0.191   9.511  21.439  0.00  0.00    +0.000 A 
ATOM      2  C   UNL     1       0.707   8.332  21.958  0.00  0.00    +0.000 A 
ATOM      3  C   UNL     1       1.580   7.567  21.203  0.00  0.00    +0.000 A 
ATOM      4  C   UNL     1       1.854   7.867  19.859  0.00  0.00    +0.000 A 
ATOM      5  C   UNL     1       2.575   7.004  18.988  0.00  0.00    +0.000 A 
ATOM      6  C   UNL     1       2.879   7.487  17.711  0.00  0.00    +0.000 A 
ATOM      7  C   UNL     1       2.478   8.760  17.357  0.00  0.00    +0.000 A 
ATOM      8  N   UNL     1       1.717   9.553  18.134  0.00  0.00    +0.000 NA
ATOM      9  C   UNL     1       1.389   9.104  19.355  0.00  0.00    +0.000 A 
ATOM     10  C   UNL     1       0.562   9.895  20.148  0.00  0.00    +0.000 A 
ENDROOT
BRANCH   5  11
ATOM     11  C   UNL     1       3.001   5.642  19.354  0.00  0.00    +0.000 A 
ATOM     12  C   UNL     1       4.328   5.014  19.294  0.00  0.00    +0.000 A 
ATOM     13  N   UNL     1       4.273   3.718  19.682  0.00  0.00    +0.000 NA
ATOM     14  N   UNL     1       3.008   3.558  20.006  0.00  0.00    +0.000 N 
ATOM     15  C   UNL     1       2.183   4.611  19.786  0.00  0.00    +0.000 A 
ATOM     16  C   UNL     1       0.798   4.208  20.138  0.00  0.00    +0.000 C 
ATOM     17  C   UNL     1       1.052   2.999  21.080  0.00  0.00    +0.000 C 
ATOM     18  C   UNL     1       2.372   2.391  20.601  0.00  0.00    +0.000 C 
BRANCH  12  19
ATOM     19  C   UNL     1       5.602   5.598  18.857  0.00  0.00    +0.000 A 
ATOM     20  C   UNL     1       5.681   6.317  17.667  0.00  0.00    +0.000 A 
ATOM     21  C   UNL     1       6.902   6.875  17.296  0.00  0.00    +0.000 A 
ATOM     22  C   UNL     1       8.007   6.698  18.120  0.00  0.00    +0.000 A 
ATOM     23  C   UNL     1       7.845   5.965  19.283  0.00  0.00    +0.000 A 
ATOM     24  N   UNL     1       6.674   5.414  19.669  0.00  0.00    +0.000 NA
ENDBRANCH  12  19
ENDBRANCH   5  11
BRANCH   1  25
ATOM     25  O   UNL     1      -0.654  10.356  22.115  0.00  0.00    +0.000 OA
BRANCH  25  26
ATOM     26  C   UNL     1      -0.520  11.730  21.728  0.00  0.00    +0.000 C 
BRANCH  26  27
ATOM     27  C   UNL     1      -1.887  12.391  21.541  0.00  0.00    +0.000 C 
BRANCH  27  28
ATOM     28  N   UNL     1      -2.350  13.148  22.731  0.00  0.00    +0.000 NA
ATOM     29  C   UNL     1      -1.249  13.831  23.416  0.00  0.00    +0.000 C 
BRANCH  28  31
ATOM     30  C   UNL     1      -4.422  12.752  24.098  0.00  0.00    +0.000 C 
ATOM     31  C   UNL     1      -3.067  12.228  23.633  0.00  0.00    +0.000 C 
ENDBRANCH  28  31
ENDBRANCH  27  28
ENDBRANCH  26  27
ENDBRANCH  25  26
ENDBRANCH   1  25
TORSDOF 7
ENDMDL
MODEL 8
REMARK VINA RESULT:      -7.8      2.137      9.553
REMARK  Name = 
REMARK  9 active torsions:
REMARK  status: ('A' for Active; 'I' for Inactive)
REMARK    1  A    between atoms: C_1  and  C_2
REMARK    2  A    between atoms: C_2  and  N_3
REMARK    3  A    between atoms: N_3  and  C_4
REMARK    4  A    between atoms: N_3  and  C_5
REMARK    5  A    between atoms: C_5  and  C_6
REMARK    6  A    between atoms: C_6  and  O_7
REMARK    7  A    between atoms: O_7  and  C_8
REMARK    8  A    between atoms: C_12  and  C_13
REMARK    9  A    between atoms: C_14  and  C_15
REMARK                            x       y       z     vdW  Elec       q    Type
REMARK                         _______ _______ _______ _____ _____    ______ ____
ROOT
ATOM      1  C   UNL     1       2.488   7.306  18.349  0.00  0.00    +0.000 A 
ATOM      2  C   UNL     1       2.462   8.531  17.697  0.00  0.00    +0.000 A 
ATOM      3  C   UNL     1       2.001   9.657  18.358  0.00  0.00    +0.000 A 
ATOM      4  C   UNL     1       1.414   9.580  19.631  0.00  0.00    +0.000 A 
ATOM      5  C   UNL     1       0.744  10.665  20.261  0.00  0.00    +0.000 A 
ATOM      6  C   UNL     1       0.317  10.479  21.580  0.00  0.00    +0.000 A 
ATOM      7  C   UNL     1       0.562   9.274  22.206  0.00  0.00    +0.000 A 
ATOM      8  N   UNL     1       1.112   8.207  21.598  0.00  0.00    +0.000 NA
ATOM      9  C   UNL     1       1.508   8.349  20.323  0.00  0.00    +0.000 A 
ATOM     10  C   UNL     1       2.033   7.238  19.668  0.00  0.00    +0.000 A 
ENDROOT
BRANCH   5  11
ATOM     11  C   UNL     1       0.471  11.952  19.598  0.00  0.00    +0.000 A 
ATOM     12  C   UNL     1      -0.649  12.355  18.735  0.00  0.00    +0.000 A 
ATOM     13  N   UNL     1      -0.489  13.625  18.290  0.00  0.00    +0.000 NA
ATOM     14  N   UNL     1       0.628  14.005  18.872  0.00  0.00    +0.000 N 
ATOM     15  C   UNL     1       1.287  13.071  19.601  0.00  0.00    +0.000 A 
ATOM     16  C   UNL     1       2.550  13.668  20.103  0.00  0.00    +0.000 C 
ATOM     17  C   UNL     1       2.238  15.187  20.014  0.00  0.00    +0.000 C 
ATOM     18  C   UNL     1       1.249  15.323  18.855  0.00  0.00    +0.000 C 
BRANCH  12  19
ATOM     19  C   UNL     1      -1.813  11.569  18.312  0.00  0.00    +0.000 A 
ATOM     20  C   UNL     1      -1.648  10.395  17.579  0.00  0.00    +0.000 A 
ATOM     21  C   UNL     1      -2.777   9.664  17.216  0.00  0.00    +0.000 A 
ATOM     22  C   UNL     1      -4.034  10.124  17.589  0.00  0.00    +0.000 A 
ATOM     23  C   UNL     1      -4.110  11.302  18.313  0.00  0.00    +0.000 A 
ATOM     24  N   UNL     1      -3.035  12.031  18.681  0.00  0.00    +0.000 NA
ENDBRANCH  12  19
ENDBRANCH   5  11
BRANCH   1  25
ATOM     25  O   UNL     1       2.955   6.139  17.797  0.00  0.00    +0.000 OA
BRANCH  25  26
ATOM     26  C   UNL     1       4.380   6.004  17.866  0.00  0.00    +0.000 C 
BRANCH  26  27
ATOM     27  C   UNL     1       4.939   5.355  16.598  0.00  0.00    +0.000 C 
BRANCH  27  28
ATOM     28  N   UNL     1       6.258   5.896  16.184  0.00  0.00    +0.000 NA
ATOM     29  C   UNL     1       6.936   5.026  15.218  0.00  0.00    +0.000 C 
BRANCH  28  31
ATOM     30  C   UNL     1       7.617   7.544  17.508  0.00  0.00    +0.000 C 
ATOM     31  C   UNL     1       7.081   6.122  17.386  0.00  0.00    +0.000 C 
ENDBRANCH  28  31
ENDBRANCH  27  28
ENDBRANCH  26  27
ENDBRANCH  25  26
ENDBRANCH   1  25
TORSDOF 7
ENDMDL
MODEL 9
REMARK VINA RESULT:      -7.8      3.961      8.592
REMARK  Name = 
REMARK  9 active torsions:
REMARK  status: ('A' for Active; 'I' for Inactive)
REMARK    1  A    between atoms: C_1  and  C_2
REMARK    2  A    between atoms: C_2  and  N_3
REMARK    3  A    between atoms: N_3  and  C_4
REMARK    4  A    between atoms: N_3  and  C_5
REMARK    5  A    between atoms: C_5  and  C_6
REMARK    6  A    between atoms: C_6  and  O_7
REMARK    7  A    between atoms: O_7  and  C_8
REMARK    8  A    between atoms: C_12  and  C_13
REMARK    9  A    between atoms: C_14  and  C_15
REMARK                            x       y       z     vdW  Elec       q    Type
REMARK                         _______ _______ _______ _____ _____    ______ ____
ROOT
ATOM      1  C   UNL     1       3.015   6.936  18.374  0.00  0.00    +0.000 A 
ATOM      2  C   UNL     1       2.557   7.918  17.506  0.00  0.00    +0.000 A 
ATOM      3  C   UNL     1       1.731   8.926  17.976  0.00  0.00    +0.000 A 
ATOM      4  C   UNL     1       1.215   8.911  19.281  0.00  0.00    +0.000 A 
ATOM      5  C   UNL     1       0.209   9.804  19.743  0.00  0.00    +0.000 A 
ATOM      6  C   UNL     1      -0.120   9.754  21.102  0.00  0.00    +0.000 A 
ATOM      7  C   UNL     1       0.536   8.860  21.924  0.00  0.00    +0.000 A 
ATOM      8  N   UNL     1       1.424   7.948  21.488  0.00  0.00    +0.000 NA
ATOM      9  C   UNL     1       1.739   7.955  20.184  0.00  0.00    +0.000 A 
ATOM     10  C   UNL     1       2.618   6.984  19.712  0.00  0.00    +0.000 A 
ENDROOT
BRANCH   5  11
ATOM     11  C   UNL     1      -0.503  10.755  18.872  0.00  0.00    +0.000 A 
ATOM     12  C   UNL     1      -0.205  12.160  18.558  0.00  0.00    +0.000 A 
ATOM     13  N   UNL     1      -1.148  12.689  17.744  0.00  0.00    +0.000 NA
ATOM     14  N   UNL     1      -1.956  11.673  17.526  0.00  0.00    +0.000 N 
ATOM     15  C   UNL     1      -1.689  10.525  18.195  0.00  0.00    +0.000 A 
ATOM     16  C   UNL     1      -2.749   9.535  17.878  0.00  0.00    +0.000 C 
ATOM     17  C   UNL     1      -3.316  10.098  16.546  0.00  0.00    +0.000 C 
ATOM     18  C   UNL     1      -3.102  11.611  16.629  0.00  0.00    +0.000 C 
BRANCH  12  19
ATOM     19  C   UNL     1       0.909  12.991  19.031  0.00  0.00    +0.000 A 
ATOM     20  C   UNL     1       2.118  13.016  18.340  0.00  0.00    +0.000 A 
ATOM     21  C   UNL     1       3.144  13.834  18.806  0.00  0.00    +0.000 A 
ATOM     22  C   UNL     1       2.936  14.601  19.947  0.00  0.00    +0.000 A 
ATOM     23  C   UNL     1       1.707  14.515  20.577  0.00  0.00    +0.000 A 
ATOM     24  N   UNL     1       0.694  13.732  20.148  0.00  0.00    +0.000 NA
ENDBRANCH  12  19
ENDBRANCH   5  11
BRANCH   1  25
ATOM     25  O   UNL     1       3.860   5.914  18.017  0.00  0.00    +0.000 OA
BRANCH  25  26
ATOM     26  C   UNL     1       3.891   4.840  18.966  0.00  0.00    +0.000 C 
BRANCH  26  27
ATOM     27  C   UNL     1       3.388   3.535  18.344  0.00  0.00    +0.000 C 
BRANCH  27  28
ATOM     28  N   UNL     1       2.530   2.734  19.254  0.00  0.00    +0.000 NA
ATOM     29  C   UNL     1       1.147   2.647  18.776  0.00  0.00    +0.000 C 
BRANCH  28  31
ATOM     30  C   UNL     1       1.584   2.728  21.582  0.00  0.00    +0.000 C 
ATOM     31  C   UNL     1       2.605   3.308  20.610  0.00  0.00    +0.000 C 
ENDBRANCH  28  31
ENDBRANCH  27  28
ENDBRANCH  26  27
ENDBRANCH  25  26
ENDBRANCH   1  25
TORSDOF 7
ENDMDL
