MODEL 1
REMARK VINA RESULT:      -9.2      0.000      0.000
REMARK  Name = 
REMARK  9 active torsions:
REMARK  status: ('A' for Active; 'I' for Inactive)
REMARK    1  A    between atoms: C_1  and  O_2
REMARK    2  A    between atoms: O_2  and  C_3
REMARK    3  A    between atoms: C_7  and  C_8
REMARK    4  A    between atoms: N_10  and  C_11
REMARK    5  A    between atoms: C_18  and  C_19
REMARK    6  A    between atoms: CA_20  and  N_21
REMARK    7  A    between atoms: CA_20  and  C_30
REMARK    8  A    between atoms: C_22  and  C_24
REMARK    9  A    between atoms: C_30  and  OXT_32
REMARK                            x       y       z     vdW  Elec       q    Type
REMARK                         _______ _______ _______ _____ _____    ______ ____
ROOT
ATOM      1  C   UNL     1       5.129   5.209  16.581  0.00  0.00    +0.000 A 
ATOM      2  N   UNL     1       4.762   4.475  15.511  0.00  0.00    +0.000 NA
ATOM      3  N   UNL     1       5.795   4.563  14.637  0.00  0.00    +0.000 N 
ATOM      4  C   UNL     1       6.711   5.504  15.041  0.00  0.00    +0.000 A 
ATOM      5  C   UNL     1       6.285   5.973  16.254  0.00  0.00    +0.000 A 
ENDROOT
BRANCH   1  10
ATOM      6  C   UNL     1       3.593   3.912  19.796  0.00  0.00    +0.000 A 
ATOM      7  C   UNL     1       2.884   5.036  20.219  0.00  0.00    +0.000 A 
ATOM      8  C   UNL     1       2.906   6.211  19.469  0.00  0.00    +0.000 A 
ATOM      9  C   UNL     1       3.647   6.273  18.286  0.00  0.00    +0.000 A 
ATOM     10  C   UNL     1       4.380   5.161  17.847  0.00  0.00    +0.000 A 
ATOM     11  C   UNL     1       4.335   3.981  18.614  0.00  0.00    +0.000 A 
BRANCH   6  13
ATOM     12  C   UNL     1       2.324   2.755  21.451  0.00  0.00    +0.000 C 
ATOM     13  O   UNL     1       3.464   2.814  20.602  0.00  0.00    +0.000 OA
ENDBRANCH   6  13
ENDBRANCH   1  10
BRANCH   3  14
ATOM     14  C   UNL     1       5.856   3.813  13.436  0.00  0.00    +0.000 A 
ATOM     15  C   UNL     1       4.681   3.393  12.803  0.00  0.00    +0.000 A 
ATOM     16  C   UNL     1       4.759   2.740  11.568  0.00  0.00    +0.000 A 
ATOM     17  C   UNL     1       6.001   2.470  10.990  0.00  0.00    +0.000 A 
ATOM     18  C   UNL     1       7.173   2.842  11.643  0.00  0.00    +0.000 A 
ATOM     19  C   UNL     1       7.103   3.519  12.859  0.00  0.00    +0.000 A 
ENDBRANCH   3  14
BRANCH   5  20
ATOM     20  C   UNL     1       6.998   6.958  16.983  0.00  0.00    +0.000 C 
ATOM     21  CA  UNL     1       7.688   6.850  18.136  0.00  0.00    +0.000 C 
BRANCH  21  22
ATOM     22  N   UNL     1       8.366   7.938  18.692  0.00  0.00    +0.000 N 
ATOM     23  C   UNL     1       8.330   9.260  18.290  0.00  0.00    +0.000 C 
ATOM     24  O   UNL     1       7.599   9.701  17.410  0.00  0.00    +0.000 OA
ATOM     25  H   UNL     1       8.893   7.687  19.527  0.00  0.00    +0.000 HD
BRANCH  23  26
ATOM     26  C   UNL     1       9.259  10.205  18.975  0.00  0.00    +0.000 A 
ATOM     27  C   UNL     1      10.262  10.795  18.189  0.00  0.00    +0.000 A 
ATOM     28  C   UNL     1      11.191  11.665  18.759  0.00  0.00    +0.000 A 
ATOM     29  C   UNL     1      11.120  11.960  20.117  0.00  0.00    +0.000 A 
ATOM     30  C   UNL     1      10.111  11.401  20.901  0.00  0.00    +0.000 A 
ATOM     31  C   UNL     1       9.178  10.526  20.336  0.00  0.00    +0.000 A 
ENDBRANCH  23  26
ENDBRANCH  21  22
BRANCH  21  32
ATOM     32  C   UNL     1       7.903   5.600  18.951  0.00  0.00    +0.000 C 
ATOM     33  O   UNL     1       8.146   4.541  18.377  0.00  0.00    +0.000 OA
BRANCH  32  34
ATOM     34  OXT UNL     1       7.927   5.695  20.288  0.00  0.00    +0.000 OA
ATOM     35  HXT UNL     1       8.531   6.353  20.667  0.00  0.00    +0.000 HD
ENDBRANCH  32  34
ENDBRANCH  21  32
ENDBRANCH   5  20
TORSDOF 8
ENDMDL
MODEL 2
REMARK VINA RESULT:      -9.0      3.461      7.917
REMARK  Name = 
REMARK  9 active torsions:
REMARK  status: ('A' for Active; 'I' for Inactive)
REMARK    1  A    between atoms: C_1  and  O_2
REMARK    2  A    between atoms: O_2  and  C_3
REMARK    3  A    between atoms: C_7  and  C_8
REMARK    4  A    between atoms: N_10  and  C_11
REMARK    5  A    between atoms: C_18  and  C_19
REMARK    6  A    between atoms: CA_20  and  N_21
REMARK    7  A    between atoms: CA_20  and  C_30
REMARK    8  A    between atoms: C_22  and  C_24
REMARK    9  A    between atoms: C_30  and  OXT_32
REMARK                            x       y       z     vdW  Elec       q    Type
REMARK                         _______ _______ _______ _____ _____    ______ ____
ROOT
ATOM      1  C   UNL     1       2.198   6.621  19.623  0.00  0.00    +0.000 A 
ATOM      2  N   UNL     1       1.689   7.526  20.483  0.00  0.00    +0.000 NA
ATOM      3  N   UNL     1       1.568   8.675  19.772  0.00  0.00    +0.000 N 
ATOM      4  C   UNL     1       2.183   8.572  18.549  0.00  0.00    +0.000 A 
ATOM      5  C   UNL     1       2.642   7.287  18.445  0.00  0.00    +0.000 A 
ENDROOT
BRANCH   1  10
ATOM      6  C   UNL     1       2.396   2.856  19.222  0.00  0.00    +0.000 A 
ATOM      7  C   UNL     1       2.252   2.444  20.546  0.00  0.00    +0.000 A 
ATOM      8  C   UNL     1       2.097   3.381  21.567  0.00  0.00    +0.000 A 
ATOM      9  C   UNL     1       2.089   4.746  21.268  0.00  0.00    +0.000 A 
ATOM     10  C   UNL     1       2.246   5.187  19.946  0.00  0.00    +0.000 A 
ATOM     11  C   UNL     1       2.391   4.223  18.929  0.00  0.00    +0.000 A 
BRANCH   6  13
ATOM     12  C   UNL     1       3.759   1.167  18.233  0.00  0.00    +0.000 C 
ATOM     13  O   UNL     1       2.508   1.840  18.313  0.00  0.00    +0.000 OA
ENDBRANCH   6  13
ENDBRANCH   1  10
BRANCH   3  14
ATOM     14  C   UNL     1       0.937   9.837  20.286  0.00  0.00    +0.000 A 
ATOM     15  C   UNL     1       0.248   9.790  21.503  0.00  0.00    +0.000 A 
ATOM     16  C   UNL     1      -0.281  10.967  22.040  0.00  0.00    +0.000 A 
ATOM     17  C   UNL     1      -0.163  12.175  21.351  0.00  0.00    +0.000 A 
ATOM     18  C   UNL     1       0.479  12.214  20.115  0.00  0.00    +0.000 A 
ATOM     19  C   UNL     1       1.036  11.051  19.586  0.00  0.00    +0.000 A 
ENDBRANCH   3  14
BRANCH   5  20
ATOM     20  C   UNL     1       3.327   6.813  17.298  0.00  0.00    +0.000 C 
ATOM     21  CA  UNL     1       4.607   6.417  17.157  0.00  0.00    +0.000 C 
BRANCH  21  22
ATOM     22  N   UNL     1       5.100   5.939  15.941  0.00  0.00    +0.000 N 
ATOM     23  C   UNL     1       5.384   4.632  15.591  0.00  0.00    +0.000 C 
ATOM     24  O   UNL     1       5.151   3.656  16.296  0.00  0.00    +0.000 OA
ATOM     25  H   UNL     1       5.190   6.671  15.238  0.00  0.00    +0.000 HD
BRANCH  23  26
ATOM     26  C   UNL     1       6.030   4.406  14.266  0.00  0.00    +0.000 A 
ATOM     27  C   UNL     1       7.199   5.135  13.995  0.00  0.00    +0.000 A 
ATOM     28  C   UNL     1       7.847   5.008  12.766  0.00  0.00    +0.000 A 
ATOM     29  C   UNL     1       7.337   4.143  11.802  0.00  0.00    +0.000 A 
ATOM     30  C   UNL     1       6.192   3.395  12.072  0.00  0.00    +0.000 A 
ATOM     31  C   UNL     1       5.537   3.520  13.300  0.00  0.00    +0.000 A 
ENDBRANCH  23  26
ENDBRANCH  21  22
BRANCH  21  32
ATOM     32  C   UNL     1       5.659   6.350  18.235  0.00  0.00    +0.000 C 
ATOM     33  O   UNL     1       5.506   5.582  19.181  0.00  0.00    +0.000 OA
BRANCH  32  34
ATOM     34  OXT UNL     1       6.789   7.058  18.082  0.00  0.00    +0.000 OA
ATOM     35  HXT UNL     1       7.617   6.610  18.316  0.00  0.00    +0.000 HD
ENDBRANCH  32  34
ENDBRANCH  21  32
ENDBRANCH   5  20
TORSDOF 8
ENDMDL
MODEL 3
REMARK VINA RESULT:      -8.8      3.301      7.989
REMARK  Name = 
REMARK  9 active torsions:
REMARK  status: ('A' for Active; 'I' for Inactive)
REMARK    1  A    between atoms: C_1  and  O_2
REMARK    2  A    between atoms: O_2  and  C_3
REMARK    3  A    between atoms: C_7  and  C_8
REMARK    4  A    between atoms: N_10  and  C_11
REMARK    5  A    between atoms: C_18  and  C_19
REMARK    6  A    between atoms: CA_20  and  N_21
REMARK    7  A    between atoms: CA_20  and  C_30
REMARK    8  A    between atoms: C_22  and  C_24
REMARK    9  A    between atoms: C_30  and  OXT_32
REMARK                            x       y       z     vdW  Elec       q    Type
REMARK                         _______ _______ _______ _____ _____    ______ ____
ROOT
ATOM      1  C   UNL     1       2.179   6.492  19.666  0.00  0.00    +0.000 A 
ATOM      2  N   UNL     1       1.709   7.395  20.549  0.00  0.00    +0.000 NA
ATOM      3  N   UNL     1       1.606   8.558  19.859  0.00  0.00    +0.000 N 
ATOM      4  C   UNL     1       2.197   8.460  18.624  0.00  0.00    +0.000 A 
ATOM      5  C   UNL     1       2.620   7.165  18.492  0.00  0.00    +0.000 A 
ENDROOT
BRANCH   1  10
ATOM      6  C   UNL     1       3.291   2.870  19.825  0.00  0.00    +0.000 A 
ATOM      7  C   UNL     1       2.193   2.286  20.455  0.00  0.00    +0.000 A 
ATOM      8  C   UNL     1       1.097   3.062  20.832  0.00  0.00    +0.000 A 
ATOM      9  C   UNL     1       1.095   4.437  20.584  0.00  0.00    +0.000 A 
ATOM     10  C   UNL     1       2.194   5.051  19.965  0.00  0.00    +0.000 A 
ATOM     11  C   UNL     1       3.286   4.246  19.583  0.00  0.00    +0.000 A 
BRANCH   6  13
ATOM     12  C   UNL     1       4.010   1.073  18.431  0.00  0.00    +0.000 C 
ATOM     13  O   UNL     1       4.285   1.997  19.478  0.00  0.00    +0.000 OA
ENDBRANCH   6  13
ENDBRANCH   1  10
BRANCH   3  14
ATOM     14  C   UNL     1       1.016   9.728  20.403  0.00  0.00    +0.000 A 
ATOM     15  C   UNL     1       0.998  10.919  19.669  0.00  0.00    +0.000 A 
ATOM     16  C   UNL     1       0.325  12.033  20.181  0.00  0.00    +0.000 A 
ATOM     17  C   UNL     1      -0.289  11.974  21.433  0.00  0.00    +0.000 A 
ATOM     18  C   UNL     1      -0.229  10.804  22.187  0.00  0.00    +0.000 A 
ATOM     19  C   UNL     1       0.414   9.680  21.672  0.00  0.00    +0.000 A 
ENDBRANCH   3  14
BRANCH   5  20
ATOM     20  C   UNL     1       3.272   6.692  17.325  0.00  0.00    +0.000 C 
ATOM     21  CA  UNL     1       4.584   6.494  17.087  0.00  0.00    +0.000 C 
BRANCH  21  22
ATOM     22  N   UNL     1       5.042   5.979  15.872  0.00  0.00    +0.000 N 
ATOM     23  C   UNL     1       5.401   4.676  15.580  0.00  0.00    +0.000 C 
ATOM     24  O   UNL     1       5.279   3.731  16.351  0.00  0.00    +0.000 OA
ATOM     25  H   UNL     1       5.039   6.672  15.126  0.00  0.00    +0.000 HD
BRANCH  23  26
ATOM     26  C   UNL     1       5.988   4.417  14.234  0.00  0.00    +0.000 A 
ATOM     27  C   UNL     1       5.277   3.554  13.384  0.00  0.00    +0.000 A 
ATOM     28  C   UNL     1       5.774   3.233  12.120  0.00  0.00    +0.000 A 
ATOM     29  C   UNL     1       6.980   3.780  11.692  0.00  0.00    +0.000 A 
ATOM     30  C   UNL     1       7.679   4.659  12.518  0.00  0.00    +0.000 A 
ATOM     31  C   UNL     1       7.189   4.983  13.786  0.00  0.00    +0.000 A 
ENDBRANCH  23  26
ENDBRANCH  21  22
BRANCH  21  32
ATOM     32  C   UNL     1       5.723   6.708  18.052  0.00  0.00    +0.000 C 
ATOM     33  O   UNL     1       5.846   5.956  19.015  0.00  0.00    +0.000 OA
BRANCH  32  34
ATOM     34  OXT UNL     1       6.634   7.653  17.778  0.00  0.00    +0.000 OA
ATOM     35  HXT UNL     1       6.320   8.571  17.768  0.00  0.00    +0.000 HD
ENDBRANCH  32  34
ENDBRANCH  21  32
ENDBRANCH   5  20
TORSDOF 8
ENDMDL
MODEL 4
REMARK VINA RESULT:      -8.8      3.509      7.917
REMARK  Name = 
REMARK  9 active torsions:
REMARK  status: ('A' for Active; 'I' for Inactive)
REMARK    1  A    between atoms: C_1  and  O_2
REMARK    2  A    between atoms: O_2  and  C_3
REMARK    3  A    between atoms: C_7  and  C_8
REMARK    4  A    between atoms: N_10  and  C_11
REMARK    5  A    between atoms: C_18  and  C_19
REMARK    6  A    between atoms: CA_20  and  N_21
REMARK    7  A    between atoms: CA_20  and  C_30
REMARK    8  A    between atoms: C_22  and  C_24
REMARK    9  A    between atoms: C_30  and  OXT_32
REMARK                            x       y       z     vdW  Elec       q    Type
REMARK                         _______ _______ _______ _____ _____    ______ ____
ROOT
ATOM      1  C   UNL     1       2.073   6.194  19.724  0.00  0.00    +0.000 A 
ATOM      2  N   UNL     1       1.586   7.033  20.660  0.00  0.00    +0.000 NA
ATOM      3  N   UNL     1       1.564   8.257  20.076  0.00  0.00    +0.000 N 
ATOM      4  C   UNL     1       2.221   8.246  18.870  0.00  0.00    +0.000 A 
ATOM      5  C   UNL     1       2.604   6.952  18.642  0.00  0.00    +0.000 A 
ENDROOT
BRANCH   1  10
ATOM      6  C   UNL     1       2.928   2.676  20.850  0.00  0.00    +0.000 A 
ATOM      7  C   UNL     1       1.980   1.937  20.143  0.00  0.00    +0.000 A 
ATOM      8  C   UNL     1       1.063   2.575  19.309  0.00  0.00    +0.000 A 
ATOM      9  C   UNL     1       1.085   3.966  19.179  0.00  0.00    +0.000 A 
ATOM     10  C   UNL     1       2.019   4.733  19.890  0.00  0.00    +0.000 A 
ATOM     11  C   UNL     1       2.943   4.067  20.719  0.00  0.00    +0.000 A 
BRANCH   6  13
ATOM     12  C   UNL     1       4.957   1.427  20.968  0.00  0.00    +0.000 C 
ATOM     13  O   UNL     1       3.789   1.930  21.607  0.00  0.00    +0.000 OA
ENDBRANCH   6  13
ENDBRANCH   1  10
BRANCH   3  14
ATOM     14  C   UNL     1       0.986   9.396  20.693  0.00  0.00    +0.000 A 
ATOM     15  C   UNL     1       0.937  10.619  20.017  0.00  0.00    +0.000 A 
ATOM     16  C   UNL     1       0.275  11.704  20.601  0.00  0.00    +0.000 A 
ATOM     17  C   UNL     1      -0.297  11.582  21.869  0.00  0.00    +0.000 A 
ATOM     18  C   UNL     1      -0.205  10.379  22.565  0.00  0.00    +0.000 A 
ATOM     19  C   UNL     1       0.426   9.285  21.977  0.00  0.00    +0.000 A 
ENDBRANCH   3  14
BRANCH   5  20
ATOM     20  C   UNL     1       3.304   6.560  17.473  0.00  0.00    +0.000 C 
ATOM     21  CA  UNL     1       4.595   6.203  17.318  0.00  0.00    +0.000 C 
BRANCH  21  22
ATOM     22  N   UNL     1       5.103   5.806  16.078  0.00  0.00    +0.000 N 
ATOM     23  C   UNL     1       5.396   4.525  15.648  0.00  0.00    +0.000 C 
ATOM     24  O   UNL     1       5.157   3.504  16.285  0.00  0.00    +0.000 OA
ATOM     25  H   UNL     1       5.199   6.582  15.426  0.00  0.00    +0.000 HD
BRANCH  23  26
ATOM     26  C   UNL     1       6.059   4.387  14.319  0.00  0.00    +0.000 A 
ATOM     27  C   UNL     1       7.192   5.183  14.087  0.00  0.00    +0.000 A 
ATOM     28  C   UNL     1       7.851   5.140  12.858  0.00  0.00    +0.000 A 
ATOM     29  C   UNL     1       7.389   4.293  11.855  0.00  0.00    +0.000 A 
ATOM     30  C   UNL     1       6.280   3.479  12.085  0.00  0.00    +0.000 A 
ATOM     31  C   UNL     1       5.614   3.520  13.313  0.00  0.00    +0.000 A 
ENDBRANCH  23  26
ENDBRANCH  21  22
BRANCH  21  32
ATOM     32  C   UNL     1       5.644   6.100  18.395  0.00  0.00    +0.000 C 
ATOM     33  O   UNL     1       5.451   5.360  19.356  0.00  0.00    +0.000 OA
BRANCH  32  34
ATOM     34  OXT UNL     1       6.810   6.742  18.227  0.00  0.00    +0.000 OA
ATOM     35  HXT UNL     1       6.763   7.638  17.858  0.00  0.00    +0.000 HD
ENDBRANCH  32  34
ENDBRANCH  21  32
ENDBRANCH   5  20
TORSDOF 8
ENDMDL
MODEL 5
REMARK VINA RESULT:      -8.8      0.444      1.094
REMARK  Name = 
REMARK  9 active torsions:
REMARK  status: ('A' for Active; 'I' for Inactive)
REMARK    1  A    between atoms: C_1  and  O_2
REMARK    2  A    between atoms: O_2  and  C_3
REMARK    3  A    between atoms: C_7  and  C_8
REMARK    4  A    between atoms: N_10  and  C_11
REMARK    5  A    between atoms: C_18  and  C_19
REMARK    6  A    between atoms: CA_20  and  N_21
REMARK    7  A    between atoms: CA_20  and  C_30
REMARK    8  A    between atoms: C_22  and  C_24
REMARK    9  A    between atoms: C_30  and  OXT_32
REMARK                            x       y       z     vdW  Elec       q    Type
REMARK                         _______ _______ _______ _____ _____    ______ ____
ROOT
ATOM      1  C   UNL     1       5.135   5.289  16.474  0.00  0.00    +0.000 A 
ATOM      2  N   UNL     1       4.765   4.549  15.410  0.00  0.00    +0.000 NA
ATOM      3  N   UNL     1       5.820   4.583  14.558  0.00  0.00    +0.000 N 
ATOM      4  C   UNL     1       6.760   5.498  14.966  0.00  0.00    +0.000 A 
ATOM      5  C   UNL     1       6.326   6.004  16.160  0.00  0.00    +0.000 A 
ENDROOT
BRANCH   1  10
ATOM      6  C   UNL     1       3.519   4.121  19.700  0.00  0.00    +0.000 A 
ATOM      7  C   UNL     1       2.807   5.263  20.064  0.00  0.00    +0.000 A 
ATOM      8  C   UNL     1       2.852   6.409  19.271  0.00  0.00    +0.000 A 
ATOM      9  C   UNL     1       3.619   6.422  18.103  0.00  0.00    +0.000 A 
ATOM     10  C   UNL     1       4.358   5.292  17.723  0.00  0.00    +0.000 A 
ATOM     11  C   UNL     1       4.289   4.142  18.533  0.00  0.00    +0.000 A 
BRANCH   6  13
ATOM     12  C   UNL     1       4.346   2.025  20.481  0.00  0.00    +0.000 C 
ATOM     13  O   UNL     1       3.367   3.055  20.543  0.00  0.00    +0.000 OA
ENDBRANCH   6  13
ENDBRANCH   1  10
BRANCH   3  14
ATOM     14  C   UNL     1       5.879   3.809  13.372  0.00  0.00    +0.000 A 
ATOM     15  C   UNL     1       4.704   3.385  12.743  0.00  0.00    +0.000 A 
ATOM     16  C   UNL     1       4.782   2.707  11.522  0.00  0.00    +0.000 A 
ATOM     17  C   UNL     1       6.023   2.416  10.953  0.00  0.00    +0.000 A 
ATOM     18  C   UNL     1       7.196   2.792  11.604  0.00  0.00    +0.000 A 
ATOM     19  C   UNL     1       7.127   3.494  12.806  0.00  0.00    +0.000 A 
ENDBRANCH   3  14
BRANCH   5  20
ATOM     20  C   UNL     1       7.058   6.976  16.887  0.00  0.00    +0.000 C 
ATOM     21  CA  UNL     1       7.698   6.871  18.069  0.00  0.00    +0.000 C 
BRANCH  21  22
ATOM     22  N   UNL     1       8.408   7.942  18.619  0.00  0.00    +0.000 N 
ATOM     23  C   UNL     1       8.349   9.276  18.262  0.00  0.00    +0.000 C 
ATOM     24  O   UNL     1       7.568   9.743  17.440  0.00  0.00    +0.000 OA
ATOM     25  H   UNL     1       8.982   7.665  19.413  0.00  0.00    +0.000 HD
BRANCH  23  26
ATOM     26  C   UNL     1       9.315  10.201  18.922  0.00  0.00    +0.000 A 
ATOM     27  C   UNL     1       9.105  10.478  20.282  0.00  0.00    +0.000 A 
ATOM     28  C   UNL     1       9.944  11.359  20.966  0.00  0.00    +0.000 A 
ATOM     29  C   UNL     1      11.005  11.961  20.297  0.00  0.00    +0.000 A 
ATOM     30  C   UNL     1      11.239  11.672  18.954  0.00  0.00    +0.000 A 
ATOM     31  C   UNL     1      10.401  10.792  18.262  0.00  0.00    +0.000 A 
ENDBRANCH  23  26
ENDBRANCH  21  22
BRANCH  21  32
ATOM     32  C   UNL     1       7.822   5.638  18.927  0.00  0.00    +0.000 C 
ATOM     33  O   UNL     1       7.495   5.691  20.110  0.00  0.00    +0.000 OA
BRANCH  32  34
ATOM     34  OXT UNL     1       8.190   4.483  18.352  0.00  0.00    +0.000 OA
ATOM     35  HXT UNL     1       8.338   4.503  17.393  0.00  0.00    +0.000 HD
ENDBRANCH  32  34
ENDBRANCH  21  32
ENDBRANCH   5  20
TORSDOF 8
ENDMDL
MODEL 6
REMARK VINA RESULT:      -8.7      1.100      1.607
REMARK  Name = 
REMARK  9 active torsions:
REMARK  status: ('A' for Active; 'I' for Inactive)
REMARK    1  A    between atoms: C_1  and  O_2
REMARK    2  A    between atoms: O_2  and  C_3
REMARK    3  A    between atoms: C_7  and  C_8
REMARK    4  A    between atoms: N_10  and  C_11
REMARK    5  A    between atoms: C_18  and  C_19
REMARK    6  A    between atoms: CA_20  and  N_21
REMARK    7  A    between atoms: CA_20  and  C_30
REMARK    8  A    between atoms: C_22  and  C_24
REMARK    9  A    between atoms: C_30  and  OXT_32
REMARK                            x       y       z     vdW  Elec       q    Type
REMARK                         _______ _______ _______ _____ _____    ______ ____
ROOT
ATOM      1  C   UNL     1       5.086   5.505  16.503  0.00  0.00    +0.000 A 
ATOM      2  N   UNL     1       4.738   4.753  15.440  0.00  0.00    +0.000 NA
ATOM      3  N   UNL     1       5.839   4.708  14.649  0.00  0.00    +0.000 N 
ATOM      4  C   UNL     1       6.801   5.586  15.084  0.00  0.00    +0.000 A 
ATOM      5  C   UNL     1       6.327   6.150  16.238  0.00  0.00    +0.000 A 
ENDROOT
BRANCH   1  10
ATOM      6  C   UNL     1       2.673   6.826  19.113  0.00  0.00    +0.000 A 
ATOM      7  C   UNL     1       2.695   5.784  20.040  0.00  0.00    +0.000 A 
ATOM      8  C   UNL     1       3.485   4.656  19.820  0.00  0.00    +0.000 A 
ATOM      9  C   UNL     1       4.258   4.559  18.661  0.00  0.00    +0.000 A 
ATOM     10  C   UNL     1       4.242   5.586  17.705  0.00  0.00    +0.000 A 
ATOM     11  C   UNL     1       3.445   6.721  17.953  0.00  0.00    +0.000 A 
BRANCH   6  13
ATOM     12  C   UNL     1       1.617   8.079  20.845  0.00  0.00    +0.000 C 
ATOM     13  O   UNL     1       1.884   7.888  19.461  0.00  0.00    +0.000 OA
ENDBRANCH   6  13
ENDBRANCH   1  10
BRANCH   3  14
ATOM     14  C   UNL     1       5.924   3.896  13.490  0.00  0.00    +0.000 A 
ATOM     15  C   UNL     1       4.764   3.396  12.889  0.00  0.00    +0.000 A 
ATOM     16  C   UNL     1       4.862   2.679  11.692  0.00  0.00    +0.000 A 
ATOM     17  C   UNL     1       6.111   2.427  11.120  0.00  0.00    +0.000 A 
ATOM     18  C   UNL     1       7.270   2.881  11.745  0.00  0.00    +0.000 A 
ATOM     19  C   UNL     1       7.179   3.621  12.922  0.00  0.00    +0.000 A 
ENDBRANCH   3  14
BRANCH   5  20
ATOM     20  C   UNL     1       7.068   7.106  16.978  0.00  0.00    +0.000 C 
ATOM     21  CA  UNL     1       7.727   6.973  18.147  0.00  0.00    +0.000 C 
BRANCH  21  22
ATOM     22  N   UNL     1       8.441   8.032  18.713  0.00  0.00    +0.000 N 
ATOM     23  C   UNL     1       8.390   9.372  18.375  0.00  0.00    +0.000 C 
ATOM     24  O   UNL     1       7.613   9.854  17.557  0.00  0.00    +0.000 OA
ATOM     25  H   UNL     1       9.012   7.742  19.504  0.00  0.00    +0.000 HD
BRANCH  23  26
ATOM     26  C   UNL     1       9.360  10.282  19.049  0.00  0.00    +0.000 A 
ATOM     27  C   UNL     1      10.412  10.784  18.267  0.00  0.00    +0.000 A 
ATOM     28  C   UNL     1      11.382  11.615  18.829  0.00  0.00    +0.000 A 
ATOM     29  C   UNL     1      11.301  11.959  20.175  0.00  0.00    +0.000 A 
ATOM     30  C   UNL     1      10.244  11.487  20.954  0.00  0.00    +0.000 A 
ATOM     31  C   UNL     1       9.272  10.652  20.397  0.00  0.00    +0.000 A 
ENDBRANCH  23  26
ENDBRANCH  21  22
BRANCH  21  32
ATOM     32  C   UNL     1       7.869   5.718  18.970  0.00  0.00    +0.000 C 
ATOM     33  O   UNL     1       8.057   4.644  18.405  0.00  0.00    +0.000 OA
BRANCH  32  34
ATOM     34  OXT UNL     1       7.889   5.820  20.307  0.00  0.00    +0.000 OA
ATOM     35  HXT UNL     1       7.195   5.344  20.790  0.00  0.00    +0.000 HD
ENDBRANCH  32  34
ENDBRANCH  21  32
ENDBRANCH   5  20
TORSDOF 8
ENDMDL
MODEL 7
REMARK VINA RESULT:      -8.7      3.490      7.909
REMARK  Name = 
REMARK  9 active torsions:
REMARK  status: ('A' for Active; 'I' for Inactive)
REMARK    1  A    between atoms: C_1  and  O_2
REMARK    2  A    between atoms: O_2  and  C_3
REMARK    3  A    between atoms: C_7  and  C_8
REMARK    4  A    between atoms: N_10  and  C_11
REMARK    5  A    between atoms: C_18  and  C_19
REMARK    6  A    between atoms: CA_20  and  N_21
REMARK    7  A    between atoms: CA_20  and  C_30
REMARK    8  A    between atoms: C_22  and  C_24
REMARK    9  A    between atoms: C_30  and  OXT_32
REMARK                            x       y       z     vdW  Elec       q    Type
REMARK                         _______ _______ _______ _____ _____    ______ ____
ROOT
ATOM      1  C   UNL     1       2.072   6.123  19.684  0.00  0.00    +0.000 A 
ATOM      2  N   UNL     1       1.551   6.932  20.629  0.00  0.00    +0.000 NA
ATOM      3  N   UNL     1       1.501   8.164  20.066  0.00  0.00    +0.000 N 
ATOM      4  C   UNL     1       2.171   8.193  18.867  0.00  0.00    +0.000 A 
ATOM      5  C   UNL     1       2.593   6.915  18.621  0.00  0.00    +0.000 A 
ENDROOT
BRANCH   1  10
ATOM      6  C   UNL     1       2.985   2.615  20.796  0.00  0.00    +0.000 A 
ATOM      7  C   UNL     1       2.097   1.859  20.031  0.00  0.00    +0.000 A 
ATOM      8  C   UNL     1       1.202   2.482  19.162  0.00  0.00    +0.000 A 
ATOM      9  C   UNL     1       1.186   3.875  19.055  0.00  0.00    +0.000 A 
ATOM     10  C   UNL     1       2.058   4.659  19.824  0.00  0.00    +0.000 A 
ATOM     11  C   UNL     1       2.962   4.008  20.688  0.00  0.00    +0.000 A 
BRANCH   6  13
ATOM     12  C   UNL     1       5.045   1.429  20.996  0.00  0.00    +0.000 C 
ATOM     13  O   UNL     1       3.832   1.884  21.583  0.00  0.00    +0.000 OA
ENDBRANCH   6  13
ENDBRANCH   1  10
BRANCH   3  14
ATOM     14  C   UNL     1       0.885   9.275  20.696  0.00  0.00    +0.000 A 
ATOM     15  C   UNL     1       0.287   9.136  21.953  0.00  0.00    +0.000 A 
ATOM     16  C   UNL     1      -0.228  10.264  22.600  0.00  0.00    +0.000 A 
ATOM     17  C   UNL     1      -0.186  11.514  21.981  0.00  0.00    +0.000 A 
ATOM     18  C   UNL     1       0.363  11.646  20.708  0.00  0.00    +0.000 A 
ATOM     19  C   UNL     1       0.906  10.533  20.069  0.00  0.00    +0.000 A 
ENDBRANCH   3  14
BRANCH   5  20
ATOM     20  C   UNL     1       3.316   6.563  17.454  0.00  0.00    +0.000 C 
ATOM     21  CA  UNL     1       4.617   6.242  17.306  0.00  0.00    +0.000 C 
BRANCH  21  22
ATOM     22  N   UNL     1       5.150   5.882  16.066  0.00  0.00    +0.000 N 
ATOM     23  C   UNL     1       5.458   4.615  15.606  0.00  0.00    +0.000 C 
ATOM     24  O   UNL     1       5.215   3.576  16.211  0.00  0.00    +0.000 OA
ATOM     25  H   UNL     1       5.252   6.676  15.437  0.00  0.00    +0.000 HD
BRANCH  23  26
ATOM     26  C   UNL     1       6.144   4.518  14.286  0.00  0.00    +0.000 A 
ATOM     27  C   UNL     1       5.601   3.624  13.349  0.00  0.00    +0.000 A 
ATOM     28  C   UNL     1       6.202   3.449  12.102  0.00  0.00    +0.000 A 
ATOM     29  C   UNL     1       7.346   4.173  11.779  0.00  0.00    +0.000 A 
ATOM     30  C   UNL     1       7.877   5.083  12.692  0.00  0.00    +0.000 A 
ATOM     31  C   UNL     1       7.281   5.261  13.943  0.00  0.00    +0.000 A 
ENDBRANCH  23  26
ENDBRANCH  21  22
BRANCH  21  32
ATOM     32  C   UNL     1       5.656   6.147  18.394  0.00  0.00    +0.000 C 
ATOM     33  O   UNL     1       5.424   5.470  19.392  0.00  0.00    +0.000 OA
BRANCH  32  34
ATOM     34  OXT UNL     1       6.853   6.720  18.198  0.00  0.00    +0.000 OA
ATOM     35  HXT UNL     1       7.632   6.159  18.338  0.00  0.00    +0.000 HD
ENDBRANCH  32  34
ENDBRANCH  21  32
ENDBRANCH   5  20
TORSDOF 8
ENDMDL
MODEL 8
REMARK VINA RESULT:      -8.7      3.820      7.785
REMARK  Name = 
REMARK  9 active torsions:
REMARK  status: ('A' for Active; 'I' for Inactive)
REMARK    1  A    between atoms: C_1  and  O_2
REMARK    2  A    between atoms: O_2  and  C_3
REMARK    3  A    between atoms: C_7  and  C_8
REMARK    4  A    between atoms: N_10  and  C_11
REMARK    5  A    between atoms: C_18  and  C_19
REMARK    6  A    between atoms: CA_20  and  N_21
REMARK    7  A    between atoms: CA_20  and  C_30
REMARK    8  A    between atoms: C_22  and  C_24
REMARK    9  A    between atoms: C_30  and  OXT_32
REMARK                            x       y       z     vdW  Elec       q    Type
REMARK                         _______ _______ _______ _____ _____    ______ ____
ROOT
ATOM      1  C   UNL     1       2.228   6.277  19.799  0.00  0.00    +0.000 A 
ATOM      2  N   UNL     1       1.712   7.221  20.610  0.00  0.00    +0.000 NA
ATOM      3  N   UNL     1       1.636   8.347  19.858  0.00  0.00    +0.000 N 
ATOM      4  C   UNL     1       2.287   8.189  18.659  0.00  0.00    +0.000 A 
ATOM      5  C   UNL     1       2.722   6.893  18.614  0.00  0.00    +0.000 A 
ENDROOT
BRANCH   1  10
ATOM      6  C   UNL     1       2.311   2.496  19.529  0.00  0.00    +0.000 A 
ATOM      7  C   UNL     1       2.166   2.134  20.868  0.00  0.00    +0.000 A 
ATOM      8  C   UNL     1       2.047   3.111  21.856  0.00  0.00    +0.000 A 
ATOM      9  C   UNL     1       2.077   4.464  21.510  0.00  0.00    +0.000 A 
ATOM     10  C   UNL     1       2.237   4.854  20.172  0.00  0.00    +0.000 A 
ATOM     11  C   UNL     1       2.345   3.851  19.189  0.00  0.00    +0.000 A 
BRANCH   6  13
ATOM     12  C   UNL     1       3.674   1.095  18.161  0.00  0.00    +0.000 C 
ATOM     13  O   UNL     1       2.387   1.445  18.655  0.00  0.00    +0.000 OA
ENDBRANCH   6  13
ENDBRANCH   1  10
BRANCH   3  14
ATOM     14  C   UNL     1       1.015   9.537  20.312  0.00  0.00    +0.000 A 
ATOM     15  C   UNL     1       0.468   9.606  21.598  0.00  0.00    +0.000 A 
ATOM     16  C   UNL     1      -0.052  10.818  22.062  0.00  0.00    +0.000 A 
ATOM     17  C   UNL     1      -0.066  11.943  21.236  0.00  0.00    +0.000 A 
ATOM     18  C   UNL     1       0.433  11.864  19.938  0.00  0.00    +0.000 A 
ATOM     19  C   UNL     1       0.980  10.668  19.478  0.00  0.00    +0.000 A 
ENDBRANCH   3  14
BRANCH   5  20
ATOM     20  C   UNL     1       3.431   6.366  17.505  0.00  0.00    +0.000 C 
ATOM     21  CA  UNL     1       4.566   5.639  17.471  0.00  0.00    +0.000 C 
BRANCH  21  22
ATOM     22  N   UNL     1       5.103   5.170  16.270  0.00  0.00    +0.000 N 
ATOM     23  C   UNL     1       6.327   5.479  15.705  0.00  0.00    +0.000 C 
ATOM     24  O   UNL     1       7.188   6.167  16.243  0.00  0.00    +0.000 OA
ATOM     25  H   UNL     1       4.511   4.474  15.820  0.00  0.00    +0.000 HD
BRANCH  23  26
ATOM     26  C   UNL     1       6.603   4.942  14.342  0.00  0.00    +0.000 A 
ATOM     27  C   UNL     1       5.733   3.951  13.859  0.00  0.00    +0.000 A 
ATOM     28  C   UNL     1       5.940   3.373  12.606  0.00  0.00    +0.000 A 
ATOM     29  C   UNL     1       7.013   3.787  11.822  0.00  0.00    +0.000 A 
ATOM     30  C   UNL     1       7.867   4.790  12.281  0.00  0.00    +0.000 A 
ATOM     31  C   UNL     1       7.666   5.371  13.536  0.00  0.00    +0.000 A 
ENDBRANCH  23  26
ENDBRANCH  21  22
BRANCH  21  32
ATOM     32  C   UNL     1       5.375   5.164  18.651  0.00  0.00    +0.000 C 
ATOM     33  O   UNL     1       5.649   5.955  19.551  0.00  0.00    +0.000 OA
BRANCH  32  34
ATOM     34  OXT UNL     1       5.688   3.863  18.741  0.00  0.00    +0.000 OA
ATOM     35  HXT UNL     1       5.356   3.389  19.518  0.00  0.00    +0.000 HD
ENDBRANCH  32  34
ENDBRANCH  21  32
ENDBRANCH   5  20
TORSDOF 8
ENDMDL
MODEL 9
REMARK VINA RESULT:      -8.7      3.828      7.814
REMARK  Name = 
REMARK  9 active torsions:
REMARK  status: ('A' for Active; 'I' for Inactive)
REMARK    1  A    between atoms: C_1  and  O_2
REMARK    2  A    between atoms: O_2  and  C_3
REMARK    3  A    between atoms: C_7  and  C_8
REMARK    4  A    between atoms: N_10  and  C_11
REMARK    5  A    between atoms: C_18  and  C_19
REMARK    6  A    between atoms: CA_20  and  N_21
REMARK    7  A    between atoms: CA_20  and  C_30
REMARK    8  A    between atoms: C_22  and  C_24
REMARK    9  A    between atoms: C_30  and  OXT_32
REMARK                            x       y       z     vdW  Elec       q    Type
REMARK                         _______ _______ _______ _____ _____    ______ ____
ROOT
ATOM      1  C   UNL     1       2.073   6.113  19.810  0.00  0.00    +0.000 A 
ATOM      2  N   UNL     1       1.598   7.027  20.679  0.00  0.00    +0.000 NA
ATOM      3  N   UNL     1       1.625   8.209  20.014  0.00  0.00    +0.000 N 
ATOM      4  C   UNL     1       2.300   8.096  18.824  0.00  0.00    +0.000 A 
ATOM      5  C   UNL     1       2.645   6.779  18.690  0.00  0.00    +0.000 A 
ENDROOT
BRANCH   1  10
ATOM      6  C   UNL     1       2.883   2.625  21.059  0.00  0.00    +0.000 A 
ATOM      7  C   UNL     1       1.830   1.898  20.504  0.00  0.00    +0.000 A 
ATOM      8  C   UNL     1       0.859   2.534  19.733  0.00  0.00    +0.000 A 
ATOM      9  C   UNL     1       0.931   3.912  19.513  0.00  0.00    +0.000 A 
ATOM     10  C   UNL     1       1.971   4.668  20.072  0.00  0.00    +0.000 A 
ATOM     11  C   UNL     1       2.948   4.004  20.840  0.00  0.00    +0.000 A 
BRANCH   6  13
ATOM     12  C   UNL     1       4.961   1.455  21.087  0.00  0.00    +0.000 C 
ATOM     13  O   UNL     1       3.786   1.880  21.767  0.00  0.00    +0.000 OA
ENDBRANCH   6  13
ENDBRANCH   1  10
BRANCH   3  14
ATOM     14  C   UNL     1       1.074   9.404  20.543  0.00  0.00    +0.000 A 
ATOM     15  C   UNL     1       1.014  10.562  19.761  0.00  0.00    +0.000 A 
ATOM     16  C   UNL     1       0.377  11.701  20.266  0.00  0.00    +0.000 A 
ATOM     17  C   UNL     1      -0.158  11.699  21.555  0.00  0.00    +0.000 A 
ATOM     18  C   UNL     1      -0.054  10.562  22.353  0.00  0.00    +0.000 A 
ATOM     19  C   UNL     1       0.552   9.414  21.847  0.00  0.00    +0.000 A 
ENDBRANCH   3  14
BRANCH   5  20
ATOM     20  C   UNL     1       3.351   6.288  17.563  0.00  0.00    +0.000 C 
ATOM     21  CA  UNL     1       4.509   5.600  17.500  0.00  0.00    +0.000 C 
BRANCH  21  22
ATOM     22  N   UNL     1       5.039   5.161  16.284  0.00  0.00    +0.000 N 
ATOM     23  C   UNL     1       6.301   5.395  15.770  0.00  0.00    +0.000 C 
ATOM     24  O   UNL     1       7.203   5.969  16.373  0.00  0.00    +0.000 OA
ATOM     25  H   UNL     1       4.402   4.551  15.775  0.00  0.00    +0.000 HD
BRANCH  23  26
ATOM     26  C   UNL     1       6.570   4.923  14.382  0.00  0.00    +0.000 A 
ATOM     27  C   UNL     1       5.720   3.930  13.871  0.00  0.00    +0.000 A 
ATOM     28  C   UNL     1       5.922   3.409  12.592  0.00  0.00    +0.000 A 
ATOM     29  C   UNL     1       6.971   3.885  11.811  0.00  0.00    +0.000 A 
ATOM     30  C   UNL     1       7.805   4.890  12.299  0.00  0.00    +0.000 A 
ATOM     31  C   UNL     1       7.609   5.414  13.580  0.00  0.00    +0.000 A 
ENDBRANCH  23  26
ENDBRANCH  21  22
BRANCH  21  32
ATOM     32  C   UNL     1       5.355   5.141  18.660  0.00  0.00    +0.000 C 
ATOM     33  O   UNL     1       5.546   5.902  19.605  0.00  0.00    +0.000 OA
BRANCH  32  34
ATOM     34  OXT UNL     1       5.795   3.874  18.679  0.00  0.00    +0.000 OA
ATOM     35  HXT UNL     1       5.145   3.192  18.914  0.00  0.00    +0.000 HD
ENDBRANCH  32  34
ENDBRANCH  21  32
ENDBRANCH   5  20
TORSDOF 8
ENDMDL
