MODEL 1
REMARK VINA RESULT:      -6.6      0.000      0.000
REMARK  Name = 
REMARK  8 active torsions:
REMARK  status: ('A' for Active; 'I' for Inactive)
REMARK    1  A    between atoms: C_1  and  C_2
REMARK    2  A    between atoms: C_2  and  O_3
REMARK    3  A    between atoms: O_3  and  C_4
REMARK    4  A    between atoms: C_4  and  C_6
REMARK    5  A    between atoms: N_8  and  C_9
REMARK    6  A    between atoms: C_14  and  C_15
REMARK    7  A    between atoms: C_18  and  C_19
REMARK    8  A    between atoms: C_26  and  C_27
REMARK                            x       y       z     vdW  Elec       q    Type
REMARK                         _______ _______ _______ _____ _____    ______ ____
ROOT
ATOM      1  C   UNL     1      -1.163  11.338  18.560  0.00  0.00    +0.000 A 
ATOM      2  N   UNL     1      -0.741  10.109  18.508  0.00  0.00    +0.000 NA
ATOM      3  N   UNL     1       0.619  10.231  18.705  0.00  0.00    +0.000 N 
ATOM      4  C   UNL     1       0.975  11.567  18.871  0.00  0.00    +0.000 A 
ATOM      5  N   UNL     1       2.112  12.159  19.049  0.00  0.00    +0.000 NA
ATOM      6  C   UNL     1       2.117  13.546  19.086  0.00  0.00    +0.000 A 
ATOM      7  C   UNL     1       1.011  14.314  19.025  0.00  0.00    +0.000 A 
ATOM      8  C   UNL     1      -0.295  13.621  19.023  0.00  0.00    +0.000 A 
ATOM      9  O   UNL     1      -1.326  14.199  19.352  0.00  0.00    +0.000 OA
ATOM     10  N   UNL     1      -0.191  12.269  18.788  0.00  0.00    +0.000 N 
ENDROOT
BRANCH   3  11
ATOM     11  C   UNL     1       1.395   9.046  18.834  0.00  0.00    +0.000 A 
ATOM     12  C   UNL     1       2.183   8.587  17.760  0.00  0.00    +0.000 A 
ATOM     13  C   UNL     1       2.994   7.450  17.876  0.00  0.00    +0.000 A 
ATOM     14  C   UNL     1       3.031   6.734  19.064  0.00  0.00    +0.000 A 
ATOM     15  C   UNL     1       2.260   7.155  20.142  0.00  0.00    +0.000 A 
ATOM     16  C   UNL     1       1.440   8.297  20.045  0.00  0.00    +0.000 A 
ATOM     17  C   UNL     1       0.636   8.658  21.270  0.00  0.00    +0.000 C 
ENDBRANCH   3  11
BRANCH   6  18
ATOM     18  C   UNL     1       3.448  14.179  19.193  0.00  0.00    +0.000 A 
ATOM     19  C   UNL     1       4.197  14.459  18.039  0.00  0.00    +0.000 A 
ATOM     20  C   UNL     1       5.450  15.071  18.140  0.00  0.00    +0.000 A 
ATOM     21  C   UNL     1       5.957  15.410  19.393  0.00  0.00    +0.000 A 
ATOM     22 CL   UNL     1       7.490  16.183  19.516  0.00  0.00    +0.000 Cl
ATOM     23  C   UNL     1       5.225  15.132  20.547  0.00  0.00    +0.000 A 
ATOM     24  C   UNL     1       3.972  14.518  20.448  0.00  0.00    +0.000 A 
ENDBRANCH   6  18
BRANCH   1  25
ATOM     25  C   UNL     1      -2.602  11.721  18.395  0.00  0.00    +0.000 C 
ATOM     26  O   UNL     1      -3.349  11.891  19.338  0.00  0.00    +0.000 OA
BRANCH  25  27
ATOM     27  O   UNL     1      -2.865  11.797  17.077  0.00  0.00    +0.000 OA
BRANCH  27  29
ATOM     28  C   UNL     1      -3.041   9.913  15.673  0.00  0.00    +0.000 C 
ATOM     29  C   UNL     1      -3.817  10.859  16.569  0.00  0.00    +0.000 C 
ENDBRANCH  27  29
ENDBRANCH  25  27
ENDBRANCH   1  25
BRANCH   7  30
ATOM     30  C   UNL     1       0.987  15.833  19.049  0.00  0.00    +0.000 C 
ATOM     31  N   UNL     1       0.967  17.095  19.069  0.00  0.00    +0.000 NA
ENDBRANCH   7  30
TORSDOF 6
ENDMDL
MODEL 2
REMARK VINA RESULT:      -6.4      0.625      1.163
REMARK  Name = 
REMARK  8 active torsions:
REMARK  status: ('A' for Active; 'I' for Inactive)
REMARK    1  A    between atoms: C_1  and  C_2
REMARK    2  A    between atoms: C_2  and  O_3
REMARK    3  A    between atoms: O_3  and  C_4
REMARK    4  A    between atoms: C_4  and  C_6
REMARK    5  A    between atoms: N_8  and  C_9
REMARK    6  A    between atoms: C_14  and  C_15
REMARK    7  A    between atoms: C_18  and  C_19
REMARK    8  A    between atoms: C_26  and  C_27
REMARK                            x       y       z     vdW  Elec       q    Type
REMARK                         _______ _______ _______ _____ _____    ______ ____
ROOT
ATOM      1  C   UNL     1      -1.337  11.556  19.059  0.00  0.00    +0.000 A 
ATOM      2  N   UNL     1      -0.953  10.318  18.953  0.00  0.00    +0.000 NA
ATOM      3  N   UNL     1       0.423  10.407  19.003  0.00  0.00    +0.000 N 
ATOM      4  C   UNL     1       0.826  11.733  19.139  0.00  0.00    +0.000 A 
ATOM      5  N   UNL     1       1.990  12.297  19.198  0.00  0.00    +0.000 NA
ATOM      6  C   UNL     1       2.031  13.683  19.243  0.00  0.00    +0.000 A 
ATOM      7  C   UNL     1       0.943  14.477  19.306  0.00  0.00    +0.000 A 
ATOM      8  C   UNL     1      -0.371  13.814  19.441  0.00  0.00    +0.000 A 
ATOM      9  O   UNL     1      -1.347  14.412  19.883  0.00  0.00    +0.000 OA
ATOM     10  N   UNL     1      -0.325  12.462  19.187  0.00  0.00    +0.000 N 
ENDROOT
BRANCH   3  11
ATOM     11  C   UNL     1       1.180   9.204  19.040  0.00  0.00    +0.000 A 
ATOM     12  C   UNL     1       1.841   8.740  17.885  0.00  0.00    +0.000 A 
ATOM     13  C   UNL     1       2.633   7.584  17.906  0.00  0.00    +0.000 A 
ATOM     14  C   UNL     1       2.776   6.853  19.078  0.00  0.00    +0.000 A 
ATOM     15  C   UNL     1       2.131   7.278  20.233  0.00  0.00    +0.000 A 
ATOM     16  C   UNL     1       1.333   8.440  20.233  0.00  0.00    +0.000 A 
ATOM     17  C   UNL     1       0.669   8.804  21.538  0.00  0.00    +0.000 C 
ENDBRANCH   3  11
BRANCH   6  18
ATOM     18  C   UNL     1       3.380  14.285  19.211  0.00  0.00    +0.000 A 
ATOM     19  C   UNL     1       4.030  14.637  20.405  0.00  0.00    +0.000 A 
ATOM     20  C   UNL     1       5.312  15.194  20.375  0.00  0.00    +0.000 A 
ATOM     21  C   UNL     1       5.951  15.397  19.154  0.00  0.00    +0.000 A 
ATOM     22 CL   UNL     1       7.539  16.063  19.118  0.00  0.00    +0.000 Cl
ATOM     23  C   UNL     1       5.314  15.057  17.961  0.00  0.00    +0.000 A 
ATOM     24  C   UNL     1       4.031  14.501  17.989  0.00  0.00    +0.000 A 
ENDBRANCH   6  18
BRANCH   1  25
ATOM     25  C   UNL     1      -2.776  11.973  19.052  0.00  0.00    +0.000 C 
ATOM     26  O   UNL     1      -3.378  12.275  20.064  0.00  0.00    +0.000 OA
BRANCH  25  27
ATOM     27  O   UNL     1      -3.222  11.914  17.783  0.00  0.00    +0.000 OA
BRANCH  27  29
ATOM     28  C   UNL     1      -5.536  11.750  17.369  0.00  0.00    +0.000 C 
ATOM     29  C   UNL     1      -4.253  10.957  17.521  0.00  0.00    +0.000 C 
ENDBRANCH  27  29
ENDBRANCH  25  27
ENDBRANCH   1  25
BRANCH   7  30
ATOM     30  C   UNL     1       0.958  15.996  19.343  0.00  0.00    +0.000 C 
ATOM     31  N   UNL     1       0.971  17.257  19.373  0.00  0.00    +0.000 NA
ENDBRANCH   7  30
TORSDOF 6
ENDMDL
MODEL 3
REMARK VINA RESULT:      -6.2      1.819      2.438
REMARK  Name = 
REMARK  8 active torsions:
REMARK  status: ('A' for Active; 'I' for Inactive)
REMARK    1  A    between atoms: C_1  and  C_2
REMARK    2  A    between atoms: C_2  and  O_3
REMARK    3  A    between atoms: O_3  and  C_4
REMARK    4  A    between atoms: C_4  and  C_6
REMARK    5  A    between atoms: N_8  and  C_9
REMARK    6  A    between atoms: C_14  and  C_15
REMARK    7  A    between atoms: C_18  and  C_19
REMARK    8  A    between atoms: C_26  and  C_27
REMARK                            x       y       z     vdW  Elec       q    Type
REMARK                         _______ _______ _______ _____ _____    ______ ____
ROOT
ATOM      1  C   UNL     1      -1.228  12.009  20.295  0.00  0.00    +0.000 A 
ATOM      2  N   UNL     1      -0.964  10.776  19.978  0.00  0.00    +0.000 NA
ATOM      3  N   UNL     1       0.380  10.807  19.672  0.00  0.00    +0.000 N 
ATOM      4  C   UNL     1       0.889  12.095  19.818  0.00  0.00    +0.000 A 
ATOM      5  N   UNL     1       2.062  12.606  19.619  0.00  0.00    +0.000 NA
ATOM      6  C   UNL     1       2.202  13.977  19.780  0.00  0.00    +0.000 A 
ATOM      7  C   UNL     1       1.221  14.800  20.200  0.00  0.00    +0.000 A 
ATOM      8  C   UNL     1      -0.054  14.176  20.614  0.00  0.00    +0.000 A 
ATOM      9  O   UNL     1      -0.842  14.761  21.352  0.00  0.00    +0.000 OA
ATOM     10  N   UNL     1      -0.161  12.858  20.234  0.00  0.00    +0.000 N 
ENDROOT
BRANCH   3  11
ATOM     11  C   UNL     1       1.043   9.579  19.396  0.00  0.00    +0.000 A 
ATOM     12  C   UNL     1       1.461   9.270  18.087  0.00  0.00    +0.000 A 
ATOM     13  C   UNL     1       2.158   8.089  17.797  0.00  0.00    +0.000 A 
ATOM     14  C   UNL     1       2.446   7.180  18.805  0.00  0.00    +0.000 A 
ATOM     15  C   UNL     1       2.041   7.450  20.107  0.00  0.00    +0.000 A 
ATOM     16  C   UNL     1       1.342   8.633  20.419  0.00  0.00    +0.000 A 
ATOM     17  C   UNL     1       0.939   8.821  21.861  0.00  0.00    +0.000 C 
ENDBRANCH   3  11
BRANCH   6  18
ATOM     18  C   UNL     1       3.533  14.528  19.448  0.00  0.00    +0.000 A 
ATOM     19  C   UNL     1       3.904  14.734  18.110  0.00  0.00    +0.000 A 
ATOM     20  C   UNL     1       5.157  15.268  17.797  0.00  0.00    +0.000 A 
ATOM     21  C   UNL     1       6.043  15.603  18.819  0.00  0.00    +0.000 A 
ATOM     22 CL   UNL     1       7.578  16.281  18.435  0.00  0.00    +0.000 Cl
ATOM     23  C   UNL     1       5.689  15.398  20.152  0.00  0.00    +0.000 A 
ATOM     24  C   UNL     1       4.435  14.862  20.467  0.00  0.00    +0.000 A 
ENDBRANCH   6  18
BRANCH   1  25
ATOM     25  C   UNL     1      -2.590  12.478  20.706  0.00  0.00    +0.000 C 
ATOM     26  O   UNL     1      -3.366  13.005  19.932  0.00  0.00    +0.000 OA
BRANCH  25  27
ATOM     27  O   UNL     1      -2.737  12.233  22.022  0.00  0.00    +0.000 OA
BRANCH  27  29
ATOM     28  C   UNL     1      -3.779  12.506  24.118  0.00  0.00    +0.000 C 
ATOM     29  C   UNL     1      -3.935  12.728  22.626  0.00  0.00    +0.000 C 
ENDBRANCH  27  29
ENDBRANCH  25  27
ENDBRANCH   1  25
BRANCH   7  30
ATOM     30  C   UNL     1       1.342  16.305  20.371  0.00  0.00    +0.000 C 
ATOM     31  N   UNL     1       1.443  17.555  20.514  0.00  0.00    +0.000 NA
ENDBRANCH   7  30
TORSDOF 6
ENDMDL
MODEL 4
REMARK VINA RESULT:      -6.2      1.029      1.660
REMARK  Name = 
REMARK  8 active torsions:
REMARK  status: ('A' for Active; 'I' for Inactive)
REMARK    1  A    between atoms: C_1  and  C_2
REMARK    2  A    between atoms: C_2  and  O_3
REMARK    3  A    between atoms: O_3  and  C_4
REMARK    4  A    between atoms: C_4  and  C_6
REMARK    5  A    between atoms: N_8  and  C_9
REMARK    6  A    between atoms: C_14  and  C_15
REMARK    7  A    between atoms: C_18  and  C_19
REMARK    8  A    between atoms: C_26  and  C_27
REMARK                            x       y       z     vdW  Elec       q    Type
REMARK                         _______ _______ _______ _____ _____    ______ ____
ROOT
ATOM      1  C   UNL     1      -1.358  11.539  19.024  0.00  0.00    +0.000 A 
ATOM      2  N   UNL     1      -0.970  10.301  18.933  0.00  0.00    +0.000 NA
ATOM      3  N   UNL     1       0.405  10.394  18.990  0.00  0.00    +0.000 N 
ATOM      4  C   UNL     1       0.804  11.723  19.113  0.00  0.00    +0.000 A 
ATOM      5  N   UNL     1       1.966  12.291  19.172  0.00  0.00    +0.000 NA
ATOM      6  C   UNL     1       2.003  13.677  19.203  0.00  0.00    +0.000 A 
ATOM      7  C   UNL     1       0.913  14.468  19.252  0.00  0.00    +0.000 A 
ATOM      8  C   UNL     1      -0.400  13.803  19.387  0.00  0.00    +0.000 A 
ATOM      9  O   UNL     1      -1.380  14.403  19.818  0.00  0.00    +0.000 OA
ATOM     10  N   UNL     1      -0.349  12.449  19.148  0.00  0.00    +0.000 N 
ENDROOT
BRANCH   3  11
ATOM     11  C   UNL     1       1.165   9.193  19.042  0.00  0.00    +0.000 A 
ATOM     12  C   UNL     1       1.834   8.719  17.897  0.00  0.00    +0.000 A 
ATOM     13  C   UNL     1       2.629   7.566  17.933  0.00  0.00    +0.000 A 
ATOM     14  C   UNL     1       2.767   6.848  19.113  0.00  0.00    +0.000 A 
ATOM     15  C   UNL     1       2.114   7.283  20.260  0.00  0.00    +0.000 A 
ATOM     16  C   UNL     1       1.313   8.441  20.244  0.00  0.00    +0.000 A 
ATOM     17  C   UNL     1       0.640   8.817  21.541  0.00  0.00    +0.000 C 
ENDBRANCH   3  11
BRANCH   6  18
ATOM     18  C   UNL     1       3.351  14.282  19.171  0.00  0.00    +0.000 A 
ATOM     19  C   UNL     1       3.989  14.532  17.945  0.00  0.00    +0.000 A 
ATOM     20  C   UNL     1       5.259  15.117  17.914  0.00  0.00    +0.000 A 
ATOM     21  C   UNL     1       5.893  15.459  19.107  0.00  0.00    +0.000 A 
ATOM     22 CL   UNL     1       7.446  16.200  19.069  0.00  0.00    +0.000 Cl
ATOM     23  C   UNL     1       5.272  15.212  20.331  0.00  0.00    +0.000 A 
ATOM     24  C   UNL     1       4.003  14.625  20.363  0.00  0.00    +0.000 A 
ENDBRANCH   6  18
BRANCH   1  25
ATOM     25  C   UNL     1      -2.798  11.952  19.006  0.00  0.00    +0.000 C 
ATOM     26  O   UNL     1      -3.445  12.040  17.980  0.00  0.00    +0.000 OA
BRANCH  25  27
ATOM     27  O   UNL     1      -3.174  12.211  20.273  0.00  0.00    +0.000 OA
BRANCH  27  29
ATOM     28  C   UNL     1      -4.741  12.802  21.930  0.00  0.00    +0.000 C 
ATOM     29  C   UNL     1      -4.470  12.795  20.438  0.00  0.00    +0.000 C 
ENDBRANCH  27  29
ENDBRANCH  25  27
ENDBRANCH   1  25
BRANCH   7  30
ATOM     30  C   UNL     1       0.924  15.988  19.273  0.00  0.00    +0.000 C 
ATOM     31  N   UNL     1       0.933  17.249  19.290  0.00  0.00    +0.000 NA
ENDBRANCH   7  30
TORSDOF 6
ENDMDL
MODEL 5
REMARK VINA RESULT:      -5.9      0.619      1.603
REMARK  Name = 
REMARK  8 active torsions:
REMARK  status: ('A' for Active; 'I' for Inactive)
REMARK    1  A    between atoms: C_1  and  C_2
REMARK    2  A    between atoms: C_2  and  O_3
REMARK    3  A    between atoms: O_3  and  C_4
REMARK    4  A    between atoms: C_4  and  C_6
REMARK    5  A    between atoms: N_8  and  C_9
REMARK    6  A    between atoms: C_14  and  C_15
REMARK    7  A    between atoms: C_18  and  C_19
REMARK    8  A    between atoms: C_26  and  C_27
REMARK                            x       y       z     vdW  Elec       q    Type
REMARK                         _______ _______ _______ _____ _____    ______ ____
ROOT
ATOM      1  C   UNL     1      -1.512  11.534  19.192  0.00  0.00    +0.000 A 
ATOM      2  N   UNL     1      -1.157  10.287  19.293  0.00  0.00    +0.000 NA
ATOM      3  N   UNL     1       0.211  10.358  19.450  0.00  0.00    +0.000 N 
ATOM      4  C   UNL     1       0.641  11.683  19.436  0.00  0.00    +0.000 A 
ATOM      5  N   UNL     1       1.812  12.229  19.517  0.00  0.00    +0.000 NA
ATOM      6  C   UNL     1       1.890  13.607  19.374  0.00  0.00    +0.000 A 
ATOM      7  C   UNL     1       0.825  14.420  19.232  0.00  0.00    +0.000 A 
ATOM      8  C   UNL     1      -0.515  13.806  19.341  0.00  0.00    +0.000 A 
ATOM      9  O   UNL     1      -1.507  14.477  19.610  0.00  0.00    +0.000 OA
ATOM     10  N   UNL     1      -0.488  12.431  19.282  0.00  0.00    +0.000 N 
ENDROOT
BRANCH   3  11
ATOM     11  C   UNL     1       0.927   9.159  19.718  0.00  0.00    +0.000 A 
ATOM     12  C   UNL     1       0.761   8.485  20.944  0.00  0.00    +0.000 A 
ATOM     13  C   UNL     1       1.417   7.276  21.214  0.00  0.00    +0.000 A 
ATOM     14  C   UNL     1       2.266   6.715  20.271  0.00  0.00    +0.000 A 
ATOM     15  C   UNL     1       2.460   7.357  19.054  0.00  0.00    +0.000 A 
ATOM     16  C   UNL     1       1.807   8.571  18.763  0.00  0.00    +0.000 A 
ATOM     17  C   UNL     1       2.096   9.190  17.417  0.00  0.00    +0.000 C 
ENDBRANCH   3  11
BRANCH   6  18
ATOM     18  C   UNL     1       3.254  14.175  19.377  0.00  0.00    +0.000 A 
ATOM     19  C   UNL     1       3.875  14.525  20.586  0.00  0.00    +0.000 A 
ATOM     20  C   UNL     1       5.172  15.050  20.590  0.00  0.00    +0.000 A 
ATOM     21  C   UNL     1       5.853  15.221  19.387  0.00  0.00    +0.000 A 
ATOM     22 CL   UNL     1       7.457  15.847  19.393  0.00  0.00    +0.000 Cl
ATOM     23  C   UNL     1       5.245  14.883  18.179  0.00  0.00    +0.000 A 
ATOM     24  C   UNL     1       3.948  14.359  18.173  0.00  0.00    +0.000 A 
ENDBRANCH   6  18
BRANCH   1  25
ATOM     25  C   UNL     1      -2.933  11.971  19.003  0.00  0.00    +0.000 C 
ATOM     26  O   UNL     1      -3.659  12.269  19.931  0.00  0.00    +0.000 OA
BRANCH  25  27
ATOM     27  O   UNL     1      -3.209  11.933  17.685  0.00  0.00    +0.000 OA
BRANCH  27  29
ATOM     28  C   UNL     1      -3.392  10.620  15.737  0.00  0.00    +0.000 C 
ATOM     29  C   UNL     1      -3.789  10.720  17.197  0.00  0.00    +0.000 C 
ENDBRANCH  27  29
ENDBRANCH  25  27
ENDBRANCH   1  25
BRANCH   7  30
ATOM     30  C   UNL     1       0.881  15.929  19.059  0.00  0.00    +0.000 C 
ATOM     31  N   UNL     1       0.928  17.182  18.916  0.00  0.00    +0.000 NA
ENDBRANCH   7  30
TORSDOF 6
ENDMDL
MODEL 6
REMARK VINA RESULT:      -5.9      0.908      1.561
REMARK  Name = 
REMARK  8 active torsions:
REMARK  status: ('A' for Active; 'I' for Inactive)
REMARK    1  A    between atoms: C_1  and  C_2
REMARK    2  A    between atoms: C_2  and  O_3
REMARK    3  A    between atoms: O_3  and  C_4
REMARK    4  A    between atoms: C_4  and  C_6
REMARK    5  A    between atoms: N_8  and  C_9
REMARK    6  A    between atoms: C_14  and  C_15
REMARK    7  A    between atoms: C_18  and  C_19
REMARK    8  A    between atoms: C_26  and  C_27
REMARK                            x       y       z     vdW  Elec       q    Type
REMARK                         _______ _______ _______ _____ _____    ______ ____
ROOT
ATOM      1  C   UNL     1      -1.512  11.664  19.430  0.00  0.00    +0.000 A 
ATOM      2  N   UNL     1      -1.173  10.411  19.499  0.00  0.00    +0.000 NA
ATOM      3  N   UNL     1       0.203  10.458  19.581  0.00  0.00    +0.000 N 
ATOM      4  C   UNL     1       0.654  11.775  19.554  0.00  0.00    +0.000 A 
ATOM      5  N   UNL     1       1.836  12.301  19.575  0.00  0.00    +0.000 NA
ATOM      6  C   UNL     1       1.930  13.679  19.439  0.00  0.00    +0.000 A 
ATOM      7  C   UNL     1       0.873  14.511  19.363  0.00  0.00    +0.000 A 
ATOM      8  C   UNL     1      -0.469  13.918  19.542  0.00  0.00    +0.000 A 
ATOM      9  O   UNL     1      -1.433  14.603  19.871  0.00  0.00    +0.000 OA
ATOM     10  N   UNL     1      -0.469  12.544  19.470  0.00  0.00    +0.000 N 
ENDROOT
BRANCH   3  11
ATOM     11  C   UNL     1       0.912   9.244  19.798  0.00  0.00    +0.000 A 
ATOM     12  C   UNL     1       0.774   8.543  21.012  0.00  0.00    +0.000 A 
ATOM     13  C   UNL     1       1.423   7.320  21.234  0.00  0.00    +0.000 A 
ATOM     14  C   UNL     1       2.237   6.772  20.252  0.00  0.00    +0.000 A 
ATOM     15  C   UNL     1       2.402   7.442  19.045  0.00  0.00    +0.000 A 
ATOM     16  C   UNL     1       1.756   8.670  18.803  0.00  0.00    +0.000 A 
ATOM     17  C   UNL     1       2.013   9.318  17.465  0.00  0.00    +0.000 C 
ENDBRANCH   3  11
BRANCH   6  18
ATOM     18  C   UNL     1       3.302  14.224  19.371  0.00  0.00    +0.000 A 
ATOM     19  C   UNL     1       3.946  14.373  18.132  0.00  0.00    +0.000 A 
ATOM     20  C   UNL     1       5.239  14.901  18.066  0.00  0.00    +0.000 A 
ATOM     21  C   UNL     1       5.891  15.287  19.236  0.00  0.00    +0.000 A 
ATOM     22 CL   UNL     1       7.474  15.958  19.153  0.00  0.00    +0.000 Cl
ATOM     23  C   UNL     1       5.264  15.139  20.472  0.00  0.00    +0.000 A 
ATOM     24  C   UNL     1       3.971  14.609  20.540  0.00  0.00    +0.000 A 
ENDBRANCH   6  18
BRANCH   1  25
ATOM     25  C   UNL     1      -2.933  12.127  19.323  0.00  0.00    +0.000 C 
ATOM     26  O   UNL     1      -3.571  12.518  20.280  0.00  0.00    +0.000 OA
BRANCH  25  27
ATOM     27  O   UNL     1      -3.320  11.994  18.040  0.00  0.00    +0.000 OA
BRANCH  27  29
ATOM     28  C   UNL     1      -5.552  12.119  17.295  0.00  0.00    +0.000 C 
ATOM     29  C   UNL     1      -4.477  11.183  17.812  0.00  0.00    +0.000 C 
ENDBRANCH  27  29
ENDBRANCH  25  27
ENDBRANCH   1  25
BRANCH   7  30
ATOM     30  C   UNL     1       0.946  16.021  19.201  0.00  0.00    +0.000 C 
ATOM     31  N   UNL     1       1.007  17.273  19.066  0.00  0.00    +0.000 NA
ENDBRANCH   7  30
TORSDOF 6
ENDMDL
MODEL 7
REMARK VINA RESULT:      -5.9      3.226      4.914
REMARK  Name = 
REMARK  8 active torsions:
REMARK  status: ('A' for Active; 'I' for Inactive)
REMARK    1  A    between atoms: C_1  and  C_2
REMARK    2  A    between atoms: C_2  and  O_3
REMARK    3  A    between atoms: O_3  and  C_4
REMARK    4  A    between atoms: C_4  and  C_6
REMARK    5  A    between atoms: N_8  and  C_9
REMARK    6  A    between atoms: C_14  and  C_15
REMARK    7  A    between atoms: C_18  and  C_19
REMARK    8  A    between atoms: C_26  and  C_27
REMARK                            x       y       z     vdW  Elec       q    Type
REMARK                         _______ _______ _______ _____ _____    ______ ____
ROOT
ATOM      1  C   UNL     1      -3.771  12.853  21.384  0.00  0.00    +0.000 A 
ATOM      2  N   UNL     1      -4.139  12.173  20.339  0.00  0.00    +0.000 NA
ATOM      3  N   UNL     1      -3.046  12.261  19.502  0.00  0.00    +0.000 N 
ATOM      4  C   UNL     1      -2.034  13.015  20.090  0.00  0.00    +0.000 A 
ATOM      5  N   UNL     1      -0.862  13.386  19.683  0.00  0.00    +0.000 NA
ATOM      6  C   UNL     1      -0.132  14.229  20.508  0.00  0.00    +0.000 A 
ATOM      7  C   UNL     1      -0.526  14.625  21.735  0.00  0.00    +0.000 A 
ATOM      8  C   UNL     1      -1.771  14.034  22.269  0.00  0.00    +0.000 A 
ATOM      9  O   UNL     1      -2.007  14.020  23.473  0.00  0.00    +0.000 OA
ATOM     10  N   UNL     1      -2.514  13.379  21.313  0.00  0.00    +0.000 N 
ENDROOT
BRANCH   3  11
ATOM     11  C   UNL     1      -3.054  11.512  18.292  0.00  0.00    +0.000 A 
ATOM     12  C   UNL     1      -4.035  11.751  17.310  0.00  0.00    +0.000 A 
ATOM     13  C   UNL     1      -4.037  11.062  16.089  0.00  0.00    +0.000 A 
ATOM     14  C   UNL     1      -3.067  10.105  15.824  0.00  0.00    +0.000 A 
ATOM     15  C   UNL     1      -2.089   9.838  16.775  0.00  0.00    +0.000 A 
ATOM     16  C   UNL     1      -2.069  10.524  18.006  0.00  0.00    +0.000 A 
ATOM     17  C   UNL     1      -0.971  10.148  18.971  0.00  0.00    +0.000 C 
ENDBRANCH   3  11
BRANCH   6  18
ATOM     18  C   UNL     1       1.156  14.704  19.960  0.00  0.00    +0.000 A 
ATOM     19  C   UNL     1       1.206  15.860  19.164  0.00  0.00    +0.000 A 
ATOM     20  C   UNL     1       2.426  16.317  18.657  0.00  0.00    +0.000 A 
ATOM     21  C   UNL     1       3.600  15.624  18.946  0.00  0.00    +0.000 A 
ATOM     22 CL   UNL     1       5.105  16.199  18.340  0.00  0.00    +0.000 Cl
ATOM     23  C   UNL     1       3.562  14.472  19.730  0.00  0.00    +0.000 A 
ATOM     24  C   UNL     1       2.343  14.012  20.237  0.00  0.00    +0.000 A 
ENDBRANCH   6  18
BRANCH   1  25
ATOM     25  C   UNL     1      -4.644  13.047  22.586  0.00  0.00    +0.000 C 
ATOM     26  O   UNL     1      -4.701  12.242  23.495  0.00  0.00    +0.000 OA
BRANCH  25  27
ATOM     27  O   UNL     1      -5.316  14.204  22.432  0.00  0.00    +0.000 OA
BRANCH  27  29
ATOM     28  C   UNL     1      -7.148  14.704  23.827  0.00  0.00    +0.000 C 
ATOM     29  C   UNL     1      -5.657  14.900  23.634  0.00  0.00    +0.000 C 
ENDBRANCH  27  29
ENDBRANCH  25  27
ENDBRANCH   1  25
BRANCH   7  30
ATOM     30  C   UNL     1       0.247  15.557  22.653  0.00  0.00    +0.000 C 
ATOM     31  N   UNL     1       0.888  16.332  23.415  0.00  0.00    +0.000 NA
ENDBRANCH   7  30
TORSDOF 6
ENDMDL
MODEL 8
REMARK VINA RESULT:      -5.8      2.302      2.685
REMARK  Name = 
REMARK  8 active torsions:
REMARK  status: ('A' for Active; 'I' for Inactive)
REMARK    1  A    between atoms: C_1  and  C_2
REMARK    2  A    between atoms: C_2  and  O_3
REMARK    3  A    between atoms: O_3  and  C_4
REMARK    4  A    between atoms: C_4  and  C_6
REMARK    5  A    between atoms: N_8  and  C_9
REMARK    6  A    between atoms: C_14  and  C_15
REMARK    7  A    between atoms: C_18  and  C_19
REMARK    8  A    between atoms: C_26  and  C_27
REMARK                            x       y       z     vdW  Elec       q    Type
REMARK                         _______ _______ _______ _____ _____    ______ ____
ROOT
ATOM      1  C   UNL     1      -1.025  11.892  21.489  0.00  0.00    +0.000 A 
ATOM      2  N   UNL     1      -0.820  10.756  20.891  0.00  0.00    +0.000 NA
ATOM      3  N   UNL     1       0.417  10.924  20.304  0.00  0.00    +0.000 N 
ATOM      4  C   UNL     1       0.924  12.192  20.577  0.00  0.00    +0.000 A 
ATOM      5  N   UNL     1       2.010  12.800  20.223  0.00  0.00    +0.000 NA
ATOM      6  C   UNL     1       2.161  14.124  20.608  0.00  0.00    +0.000 A 
ATOM      7  C   UNL     1       1.290  14.796  21.387  0.00  0.00    +0.000 A 
ATOM      8  C   UNL     1       0.156  14.031  21.948  0.00  0.00    +0.000 A 
ATOM      9  O   UNL     1      -0.451  14.422  22.941  0.00  0.00    +0.000 OA
ATOM     10  N   UNL     1      -0.015  12.801  21.356  0.00  0.00    +0.000 N 
ENDROOT
BRANCH   3  11
ATOM     11  C   UNL     1       1.018   9.809  19.657  0.00  0.00    +0.000 A 
ATOM     12  C   UNL     1       1.227   9.818  18.264  0.00  0.00    +0.000 A 
ATOM     13  C   UNL     1       1.861   8.754  17.608  0.00  0.00    +0.000 A 
ATOM     14  C   UNL     1       2.291   7.647  18.325  0.00  0.00    +0.000 A 
ATOM     15  C   UNL     1       2.093   7.601  19.700  0.00  0.00    +0.000 A 
ATOM     16  C   UNL     1       1.461   8.663  20.377  0.00  0.00    +0.000 A 
ATOM     17  C   UNL     1       1.286   8.506  21.868  0.00  0.00    +0.000 C 
ENDBRANCH   3  11
BRANCH   6  18
ATOM     18  C   UNL     1       3.370  14.806  20.100  0.00  0.00    +0.000 A 
ATOM     19  C   UNL     1       3.356  15.437  18.846  0.00  0.00    +0.000 A 
ATOM     20  C   UNL     1       4.495  16.094  18.371  0.00  0.00    +0.000 A 
ATOM     21  C   UNL     1       5.651  16.126  19.149  0.00  0.00    +0.000 A 
ATOM     22 CL   UNL     1       7.047  16.953  18.574  0.00  0.00    +0.000 Cl
ATOM     23  C   UNL     1       5.680  15.497  20.393  0.00  0.00    +0.000 A 
ATOM     24  C   UNL     1       4.541  14.839  20.869  0.00  0.00    +0.000 A 
ENDBRANCH   6  18
BRANCH   1  25
ATOM     25  C   UNL     1      -2.262  12.196  22.277  0.00  0.00    +0.000 C 
ATOM     26  O   UNL     1      -2.390  11.889  23.446  0.00  0.00    +0.000 OA
BRANCH  25  27
ATOM     27  O   UNL     1      -3.139  12.807  21.458  0.00  0.00    +0.000 OA
BRANCH  27  29
ATOM     28  C   UNL     1      -5.313  13.121  20.603  0.00  0.00    +0.000 C 
ATOM     29  C   UNL     1      -4.518  12.715  21.829  0.00  0.00    +0.000 C 
ENDBRANCH  27  29
ENDBRANCH  25  27
ENDBRANCH   1  25
BRANCH   7  30
ATOM     30  C   UNL     1       1.422  16.249  21.813  0.00  0.00    +0.000 C 
ATOM     31  N   UNL     1       1.532  17.455  22.166  0.00  0.00    +0.000 NA
ENDBRANCH   7  30
TORSDOF 6
ENDMDL
MODEL 9
REMARK VINA RESULT:      -5.8      2.682      3.387
REMARK  Name = 
REMARK  8 active torsions:
REMARK  status: ('A' for Active; 'I' for Inactive)
REMARK    1  A    between atoms: C_1  and  C_2
REMARK    2  A    between atoms: C_2  and  O_3
REMARK    3  A    between atoms: O_3  and  C_4
REMARK    4  A    between atoms: C_4  and  C_6
REMARK    5  A    between atoms: N_8  and  C_9
REMARK    6  A    between atoms: C_14  and  C_15
REMARK    7  A    between atoms: C_18  and  C_19
REMARK    8  A    between atoms: C_26  and  C_27
REMARK                            x       y       z     vdW  Elec       q    Type
REMARK                         _______ _______ _______ _____ _____    ______ ____
ROOT
ATOM      1  C   UNL     1      -1.178  12.352  21.313  0.00  0.00    +0.000 A 
ATOM      2  N   UNL     1      -1.011  11.215  20.705  0.00  0.00    +0.000 NA
ATOM      3  N   UNL     1       0.334  11.214  20.399  0.00  0.00    +0.000 N 
ATOM      4  C   UNL     1       0.942  12.385  20.844  0.00  0.00    +0.000 A 
ATOM      5  N   UNL     1       2.153  12.835  20.759  0.00  0.00    +0.000 NA
ATOM      6  C   UNL     1       2.400  14.111  21.243  0.00  0.00    +0.000 A 
ATOM      7  C   UNL     1       1.484  14.883  21.862  0.00  0.00    +0.000 A 
ATOM      8  C   UNL     1       0.162  14.279  22.130  0.00  0.00    +0.000 A 
ATOM      9  O   UNL     1      -0.583  14.729  22.996  0.00  0.00    +0.000 OA
ATOM     10  N   UNL     1      -0.047  13.104  21.445  0.00  0.00    +0.000 N 
ENDROOT
BRANCH   3  11
ATOM     11  C   UNL     1       0.899  10.040  19.827  0.00  0.00    +0.000 A 
ATOM     12  C   UNL     1       1.123   9.957  18.439  0.00  0.00    +0.000 A 
ATOM     13  C   UNL     1       1.723   8.832  17.856  0.00  0.00    +0.000 A 
ATOM     14  C   UNL     1       2.104   7.755  18.644  0.00  0.00    +0.000 A 
ATOM     15  C   UNL     1       1.890   7.800  20.017  0.00  0.00    +0.000 A 
ATOM     16  C   UNL     1       1.291   8.923  20.621  0.00  0.00    +0.000 A 
ATOM     17  C   UNL     1       1.095   8.863  22.116  0.00  0.00    +0.000 C 
ENDBRANCH   3  11
BRANCH   6  18
ATOM     18  C   UNL     1       3.772  14.620  21.038  0.00  0.00    +0.000 A 
ATOM     19  C   UNL     1       4.762  14.406  22.010  0.00  0.00    +0.000 A 
ATOM     20  C   UNL     1       6.064  14.875  21.809  0.00  0.00    +0.000 A 
ATOM     21  C   UNL     1       6.383  15.555  20.636  0.00  0.00    +0.000 A 
ATOM     22 CL   UNL     1       7.991  16.113  20.379  0.00  0.00    +0.000 Cl
ATOM     23  C   UNL     1       5.407  15.779  19.665  0.00  0.00    +0.000 A 
ATOM     24  C   UNL     1       4.104  15.311  19.865  0.00  0.00    +0.000 A 
ENDBRANCH   6  18
BRANCH   1  25
ATOM     25  C   UNL     1      -2.502  12.813  21.842  0.00  0.00    +0.000 C 
ATOM     26  O   UNL     1      -3.231  13.564  21.225  0.00  0.00    +0.000 OA
BRANCH  25  27
ATOM     27  O   UNL     1      -2.672  12.277  23.066  0.00  0.00    +0.000 OA
BRANCH  27  29
ATOM     28  C   UNL     1      -4.489  12.350  24.565  0.00  0.00    +0.000 C 
ATOM     29  C   UNL     1      -3.291  13.120  24.042  0.00  0.00    +0.000 C 
ENDBRANCH  27  29
ENDBRANCH  25  27
ENDBRANCH   1  25
BRANCH   7  30
ATOM     30  C   UNL     1       1.723  16.288  22.389  0.00  0.00    +0.000 C 
ATOM     31  N   UNL     1       1.921  17.455  22.826  0.00  0.00    +0.000 NA
ENDBRANCH   7  30
TORSDOF 6
ENDMDL
