MODEL 1
REMARK VINA RESULT:      -8.4      0.000      0.000
REMARK  Name = 
REMARK  6 active torsions:
REMARK  status: ('A' for Active; 'I' for Inactive)
REMARK    1  A    between atoms: C_1  and  C_2
REMARK    2  A    between atoms: C_5  and  C_6
REMARK    3  A    between atoms: C_10  and  C_11
REMARK    4  A    between atoms: C_15  and  C_16
REMARK    5  A    between atoms: N_18  and  C_19
REMARK    6  A    between atoms: C_22  and  O_23
REMARK                            x       y       z     vdW  Elec       q    Type
REMARK                         _______ _______ _______ _____ _____    ______ ____
ROOT
ATOM      1  C   UNL     1       0.435  10.370  19.823  0.00  0.00    +0.000 A 
ATOM      2  C   UNL     1       0.219  10.273  21.202  0.00  0.00    +0.000 A 
ATOM      3  C   UNL     1       0.663   9.163  21.919  0.00  0.00    +0.000 A 
ATOM      4  C   UNL     1       1.348   8.136  21.269  0.00  0.00    +0.000 A 
ATOM      5  C   UNL     1       1.593   8.199  19.890  0.00  0.00    +0.000 A 
ATOM      6  C   UNL     1       1.128   9.322  19.179  0.00  0.00    +0.000 A 
ENDROOT
BRANCH   1  12
ATOM      7  C   UNL     1       1.507  13.489  20.028  0.00  0.00    +0.000 C 
ATOM      8  C   UNL     1       0.470  12.901  19.144  0.00  0.00    +0.000 A 
ATOM      9  N   UNL     1      -0.174  13.699  18.284  0.00  0.00    +0.000 NA
ATOM     10  N   UNL     1      -1.064  12.895  17.697  0.00  0.00    +0.000 N 
ATOM     11  C   UNL     1      -1.015  11.601  18.126  0.00  0.00    +0.000 A 
ATOM     12  C   UNL     1       0.000  11.551  19.075  0.00  0.00    +0.000 A 
ATOM     13  H   UNL     1      -1.689  13.296  17.001  0.00  0.00    +0.000 HD
BRANCH  11  14
ATOM     14  C   UNL     1      -1.954  10.640  17.525  0.00  0.00    +0.000 C 
ATOM     15  F   UNL     1      -2.738  11.243  16.590  0.00  0.00    +0.000 F 
ATOM     16  F   UNL     1      -1.320   9.620  16.897  0.00  0.00    +0.000 F 
ATOM     17  F   UNL     1      -2.803  10.097  18.429  0.00  0.00    +0.000 F 
ENDBRANCH  11  14
ENDBRANCH   1  12
BRANCH   5  18
ATOM     18  C   UNL     1       2.365   7.058  19.270  0.00  0.00    +0.000 C 
ATOM     19  O   UNL     1       3.139   7.285  18.344  0.00  0.00    +0.000 OA
ATOM     20  N   UNL     1       2.160   5.794  19.772  0.00  0.00    +0.000 N 
ATOM     21  H   UNL     1       1.614   5.683  20.612  0.00  0.00    +0.000 HD
BRANCH  20  22
ATOM     22  C   UNL     1       2.822   4.573  19.301  0.00  0.00    +0.000 C 
ATOM     23  C   UNL     1       3.095   3.531  20.396  0.00  0.00    +0.000 C 
ATOM     24  C   UNL     1       3.949   2.387  19.850  0.00  0.00    +0.000 C 
ATOM     25  C   UNL     1       3.323   1.747  18.609  0.00  0.00    +0.000 C 
ATOM     26  C   UNL     1       2.980   2.786  17.540  0.00  0.00    +0.000 C 
ATOM     27  C   UNL     1       2.122   3.923  18.101  0.00  0.00    +0.000 C 
BRANCH  25  28
ATOM     28  O   UNL     1       4.225   0.788  18.064  0.00  0.00    +0.000 OA
ATOM     29  H   UNL     1       4.677   1.187  17.304  0.00  0.00    +0.000 HD
ENDBRANCH  25  28
ENDBRANCH  20  22
ENDBRANCH   5  18
TORSDOF 5
ENDMDL
MODEL 2
REMARK VINA RESULT:      -8.3      4.801      8.955
REMARK  Name = 
REMARK  6 active torsions:
REMARK  status: ('A' for Active; 'I' for Inactive)
REMARK    1  A    between atoms: C_1  and  C_2
REMARK    2  A    between atoms: C_5  and  C_6
REMARK    3  A    between atoms: C_10  and  C_11
REMARK    4  A    between atoms: C_15  and  C_16
REMARK    5  A    between atoms: N_18  and  C_19
REMARK    6  A    between atoms: C_22  and  O_23
REMARK                            x       y       z     vdW  Elec       q    Type
REMARK                         _______ _______ _______ _____ _____    ______ ____
ROOT
ATOM      1  C   UNL     1       4.447   5.394  17.305  0.00  0.00    +0.000 A 
ATOM      2  C   UNL     1       3.590   4.338  17.632  0.00  0.00    +0.000 A 
ATOM      3  C   UNL     1       2.318   4.582  18.149  0.00  0.00    +0.000 A 
ATOM      4  C   UNL     1       1.875   5.893  18.329  0.00  0.00    +0.000 A 
ATOM      5  C   UNL     1       2.700   6.980  18.006  0.00  0.00    +0.000 A 
ATOM      6  C   UNL     1       3.986   6.715  17.495  0.00  0.00    +0.000 A 
ENDROOT
BRANCH   1  12
ATOM      7  C   UNL     1       5.242   4.266  14.302  0.00  0.00    +0.000 C 
ATOM      8  C   UNL     1       6.124   4.668  15.426  0.00  0.00    +0.000 A 
ATOM      9  N   UNL     1       7.451   4.575  15.272  0.00  0.00    +0.000 NA
ATOM     10  N   UNL     1       7.943   4.941  16.458  0.00  0.00    +0.000 N 
ATOM     11  C   UNL     1       6.993   5.287  17.373  0.00  0.00    +0.000 A 
ATOM     12  C   UNL     1       5.770   5.139  16.730  0.00  0.00    +0.000 A 
ATOM     13  H   UNL     1       8.953   4.933  16.582  0.00  0.00    +0.000 HD
BRANCH  11  14
ATOM     14  C   UNL     1       7.446   5.716  18.707  0.00  0.00    +0.000 C 
ATOM     15  F   UNL     1       6.446   5.604  19.622  0.00  0.00    +0.000 F 
ATOM     16  F   UNL     1       8.477   4.967  19.169  0.00  0.00    +0.000 F 
ATOM     17  F   UNL     1       7.838   7.011  18.739  0.00  0.00    +0.000 F 
ENDBRANCH  11  14
ENDBRANCH   1  12
BRANCH   5  18
ATOM     18  C   UNL     1       2.133   8.365  18.207  0.00  0.00    +0.000 C 
ATOM     19  O   UNL     1       2.312   9.222  17.347  0.00  0.00    +0.000 OA
ATOM     20  N   UNL     1       1.435   8.613  19.367  0.00  0.00    +0.000 N 
ATOM     21  H   UNL     1       1.209   7.844  19.977  0.00  0.00    +0.000 HD
BRANCH  20  22
ATOM     22  C   UNL     1       0.813   9.890  19.730  0.00  0.00    +0.000 C 
ATOM     23  C   UNL     1      -0.439  10.245  18.914  0.00  0.00    +0.000 C 
ATOM     24  C   UNL     1      -0.903  11.667  19.230  0.00  0.00    +0.000 C 
ATOM     25  C   UNL     1      -1.130  11.875  20.729  0.00  0.00    +0.000 C 
ATOM     26  C   UNL     1       0.086  11.457  21.557  0.00  0.00    +0.000 C 
ATOM     27  C   UNL     1       0.536  10.030  21.232  0.00  0.00    +0.000 C 
BRANCH  25  28
ATOM     28  O   UNL     1      -1.422  13.248  20.977  0.00  0.00    +0.000 OA
ATOM     29  H   UNL     1      -1.940  13.592  20.232  0.00  0.00    +0.000 HD
ENDBRANCH  25  28
ENDBRANCH  20  22
ENDBRANCH   5  18
TORSDOF 5
ENDMDL
MODEL 3
REMARK VINA RESULT:      -8.3      4.406      8.707
REMARK  Name = 
REMARK  6 active torsions:
REMARK  status: ('A' for Active; 'I' for Inactive)
REMARK    1  A    between atoms: C_1  and  C_2
REMARK    2  A    between atoms: C_5  and  C_6
REMARK    3  A    between atoms: C_10  and  C_11
REMARK    4  A    between atoms: C_15  and  C_16
REMARK    5  A    between atoms: N_18  and  C_19
REMARK    6  A    between atoms: C_22  and  O_23
REMARK                            x       y       z     vdW  Elec       q    Type
REMARK                         _______ _______ _______ _____ _____    ______ ____
ROOT
ATOM      1  C   UNL     1       4.741   5.430  18.383  0.00  0.00    +0.000 A 
ATOM      2  C   UNL     1       4.038   4.547  19.209  0.00  0.00    +0.000 A 
ATOM      3  C   UNL     1       2.799   4.900  19.743  0.00  0.00    +0.000 A 
ATOM      4  C   UNL     1       2.234   6.141  19.442  0.00  0.00    +0.000 A 
ATOM      5  C   UNL     1       2.903   7.051  18.612  0.00  0.00    +0.000 A 
ATOM      6  C   UNL     1       4.158   6.682  18.090  0.00  0.00    +0.000 A 
ENDROOT
BRANCH   1  12
ATOM      7  C   UNL     1       7.765   5.521  19.714  0.00  0.00    +0.000 C 
ATOM      8  C   UNL     1       7.336   5.066  18.368  0.00  0.00    +0.000 A 
ATOM      9  N   UNL     1       8.264   4.624  17.509  0.00  0.00    +0.000 NA
ATOM     10  N   UNL     1       7.578   4.359  16.395  0.00  0.00    +0.000 N 
ATOM     11  C   UNL     1       6.238   4.593  16.497  0.00  0.00    +0.000 A 
ATOM     12  C   UNL     1       6.026   5.047  17.794  0.00  0.00    +0.000 A 
ATOM     13  H   UNL     1       8.090   4.016  15.586  0.00  0.00    +0.000 HD
BRANCH  11  14
ATOM     14  C   UNL     1       5.400   4.317  15.319  0.00  0.00    +0.000 C 
ATOM     15  F   UNL     1       5.136   5.460  14.629  0.00  0.00    +0.000 F 
ATOM     16  F   UNL     1       5.996   3.469  14.446  0.00  0.00    +0.000 F 
ATOM     17  F   UNL     1       4.195   3.789  15.640  0.00  0.00    +0.000 F 
ENDBRANCH  11  14
ENDBRANCH   1  12
BRANCH   5  18
ATOM     18  C   UNL     1       2.208   8.358  18.316  0.00  0.00    +0.000 C 
ATOM     19  O   UNL     1       2.342   8.878  17.212  0.00  0.00    +0.000 OA
ATOM     20  N   UNL     1       1.450   8.925  19.315  0.00  0.00    +0.000 N 
ATOM     21  H   UNL     1       1.270   8.397  20.153  0.00  0.00    +0.000 HD
BRANCH  20  22
ATOM     22  C   UNL     1       0.704  10.183  19.208  0.00  0.00    +0.000 C 
ATOM     23  C   UNL     1      -0.648  10.065  18.488  0.00  0.00    +0.000 C 
ATOM     24  C   UNL     1      -1.259  11.448  18.260  0.00  0.00    +0.000 C 
ATOM     25  C   UNL     1      -1.382  12.242  19.562  0.00  0.00    +0.000 C 
ATOM     26  C   UNL     1      -0.057  12.304  20.323  0.00  0.00    +0.000 C 
ATOM     27  C   UNL     1       0.540  10.912  20.547  0.00  0.00    +0.000 C 
BRANCH  25  28
ATOM     28  O   UNL     1      -1.823  13.565  19.270  0.00  0.00    +0.000 OA
ATOM     29  H   UNL     1      -1.603  13.767  18.347  0.00  0.00    +0.000 HD
ENDBRANCH  25  28
ENDBRANCH  20  22
ENDBRANCH   5  18
TORSDOF 5
ENDMDL
MODEL 4
REMARK VINA RESULT:      -8.3      4.812      9.034
REMARK  Name = 
REMARK  6 active torsions:
REMARK  status: ('A' for Active; 'I' for Inactive)
REMARK    1  A    between atoms: C_1  and  C_2
REMARK    2  A    between atoms: C_5  and  C_6
REMARK    3  A    between atoms: C_10  and  C_11
REMARK    4  A    between atoms: C_15  and  C_16
REMARK    5  A    between atoms: N_18  and  C_19
REMARK    6  A    between atoms: C_22  and  O_23
REMARK                            x       y       z     vdW  Elec       q    Type
REMARK                         _______ _______ _______ _____ _____    ______ ____
ROOT
ATOM      1  C   UNL     1       4.416   4.982  17.128  0.00  0.00    +0.000 A 
ATOM      2  C   UNL     1       3.535   3.896  17.111  0.00  0.00    +0.000 A 
ATOM      3  C   UNL     1       2.269   3.993  17.690  0.00  0.00    +0.000 A 
ATOM      4  C   UNL     1       1.858   5.190  18.279  0.00  0.00    +0.000 A 
ATOM      5  C   UNL     1       2.709   6.303  18.309  0.00  0.00    +0.000 A 
ATOM      6  C   UNL     1       3.987   6.184  17.730  0.00  0.00    +0.000 A 
ENDROOT
BRANCH   1  12
ATOM      7  C   UNL     1       5.181   4.231  14.002  0.00  0.00    +0.000 C 
ATOM      8  C   UNL     1       6.072   4.585  15.136  0.00  0.00    +0.000 A 
ATOM      9  N   UNL     1       7.395   4.613  14.934  0.00  0.00    +0.000 NA
ATOM     10  N   UNL     1       7.903   4.895  16.136  0.00  0.00    +0.000 N 
ATOM     11  C   UNL     1       6.964   5.071  17.110  0.00  0.00    +0.000 A 
ATOM     12  C   UNL     1       5.732   4.892  16.491  0.00  0.00    +0.000 A 
ATOM     13  H   UNL     1       8.914   4.954  16.229  0.00  0.00    +0.000 HD
BRANCH  11  14
ATOM     14  C   UNL     1       7.433   5.396  18.467  0.00  0.00    +0.000 C 
ATOM     15  F   UNL     1       8.512   4.640  18.805  0.00  0.00    +0.000 F 
ATOM     16  F   UNL     1       7.818   6.691  18.585  0.00  0.00    +0.000 F 
ATOM     17  F   UNL     1       6.499   5.161  19.418  0.00  0.00    +0.000 F 
ENDBRANCH  11  14
ENDBRANCH   1  12
BRANCH   5  18
ATOM     18  C   UNL     1       2.175   7.566  18.943  0.00  0.00    +0.000 C 
ATOM     19  O   UNL     1       2.020   7.613  20.160  0.00  0.00    +0.000 OA
ATOM     20  N   UNL     1       1.874   8.624  18.116  0.00  0.00    +0.000 N 
ATOM     21  H   UNL     1       2.139   8.578  17.146  0.00  0.00    +0.000 HD
BRANCH  20  22
ATOM     22  C   UNL     1       1.353   9.923  18.552  0.00  0.00    +0.000 C 
ATOM     23  C   UNL     1       2.147  11.134  18.041  0.00  0.00    +0.000 C 
ATOM     24  C   UNL     1       1.646  12.422  18.695  0.00  0.00    +0.000 C 
ATOM     25  C   UNL     1       0.141  12.615  18.503  0.00  0.00    +0.000 C 
ATOM     26  C   UNL     1      -0.655  11.385  18.943  0.00  0.00    +0.000 C 
ATOM     27  C   UNL     1      -0.145  10.105  18.277  0.00  0.00    +0.000 C 
BRANCH  25  28
ATOM     28  O   UNL     1      -0.291  13.750  19.249  0.00  0.00    +0.000 OA
ATOM     29  H   UNL     1      -0.018  14.552  18.775  0.00  0.00    +0.000 HD
ENDBRANCH  25  28
ENDBRANCH  20  22
ENDBRANCH   5  18
TORSDOF 5
ENDMDL
MODEL 5
REMARK VINA RESULT:      -8.2      4.758      8.834
REMARK  Name = 
REMARK  6 active torsions:
REMARK  status: ('A' for Active; 'I' for Inactive)
REMARK    1  A    between atoms: C_1  and  C_2
REMARK    2  A    between atoms: C_5  and  C_6
REMARK    3  A    between atoms: C_10  and  C_11
REMARK    4  A    between atoms: C_15  and  C_16
REMARK    5  A    between atoms: N_18  and  C_19
REMARK    6  A    between atoms: C_22  and  O_23
REMARK                            x       y       z     vdW  Elec       q    Type
REMARK                         _______ _______ _______ _____ _____    ______ ____
ROOT
ATOM      1  C   UNL     1       4.402   5.119  17.199  0.00  0.00    +0.000 A 
ATOM      2  C   UNL     1       3.492   4.057  17.220  0.00  0.00    +0.000 A 
ATOM      3  C   UNL     1       2.217   4.219  17.761  0.00  0.00    +0.000 A 
ATOM      4  C   UNL     1       1.826   5.457  18.275  0.00  0.00    +0.000 A 
ATOM      5  C   UNL     1       2.706   6.548  18.265  0.00  0.00    +0.000 A 
ATOM      6  C   UNL     1       3.993   6.364  17.724  0.00  0.00    +0.000 A 
ENDROOT
BRANCH   1  12
ATOM      7  C   UNL     1       5.216   4.196  14.131  0.00  0.00    +0.000 C 
ATOM      8  C   UNL     1       6.091   4.578  15.268  0.00  0.00    +0.000 A 
ATOM      9  N   UNL     1       7.418   4.557  15.098  0.00  0.00    +0.000 NA
ATOM     10  N   UNL     1       7.907   4.882  16.297  0.00  0.00    +0.000 N 
ATOM     11  C   UNL     1       6.951   5.132  17.239  0.00  0.00    +0.000 A 
ATOM     12  C   UNL     1       5.729   4.960  16.599  0.00  0.00    +0.000 A 
ATOM     13  H   UNL     1       8.917   4.916  16.412  0.00  0.00    +0.000 HD
BRANCH  11  14
ATOM     14  C   UNL     1       7.399   5.508  18.590  0.00  0.00    +0.000 C 
ATOM     15  F   UNL     1       8.461   4.753  18.980  0.00  0.00    +0.000 F 
ATOM     16  F   UNL     1       7.798   6.802  18.661  0.00  0.00    +0.000 F 
ATOM     17  F   UNL     1       6.443   5.325  19.531  0.00  0.00    +0.000 F 
ENDBRANCH  11  14
ENDBRANCH   1  12
BRANCH   5  18
ATOM     18  C   UNL     1       2.193   7.857  18.817  0.00  0.00    +0.000 C 
ATOM     19  O   UNL     1       2.295   8.878  18.143  0.00  0.00    +0.000 OA
ATOM     20  N   UNL     1       1.633   7.851  20.073  0.00  0.00    +0.000 N 
ATOM     21  H   UNL     1       1.459   6.969  20.528  0.00  0.00    +0.000 HD
BRANCH  20  22
ATOM     22  C   UNL     1       1.081   9.020  20.765  0.00  0.00    +0.000 C 
ATOM     23  C   UNL     1       0.182   9.912  19.895  0.00  0.00    +0.000 C 
ATOM     24  C   UNL     1      -0.189  11.194  20.641  0.00  0.00    +0.000 C 
ATOM     25  C   UNL     1      -0.832  10.901  21.998  0.00  0.00    +0.000 C 
ATOM     26  C   UNL     1       0.021   9.955  22.844  0.00  0.00    +0.000 C 
ATOM     27  C   UNL     1       0.381   8.675  22.085  0.00  0.00    +0.000 C 
BRANCH  25  28
ATOM     28  O   UNL     1      -1.026  12.123  22.704  0.00  0.00    +0.000 OA
ATOM     29  H   UNL     1      -0.496  12.097  23.516  0.00  0.00    +0.000 HD
ENDBRANCH  25  28
ENDBRANCH  20  22
ENDBRANCH   5  18
TORSDOF 5
ENDMDL
MODEL 6
REMARK VINA RESULT:      -8.2      4.838      9.022
REMARK  Name = 
REMARK  6 active torsions:
REMARK  status: ('A' for Active; 'I' for Inactive)
REMARK    1  A    between atoms: C_1  and  C_2
REMARK    2  A    between atoms: C_5  and  C_6
REMARK    3  A    between atoms: C_10  and  C_11
REMARK    4  A    between atoms: C_15  and  C_16
REMARK    5  A    between atoms: N_18  and  C_19
REMARK    6  A    between atoms: C_22  and  O_23
REMARK                            x       y       z     vdW  Elec       q    Type
REMARK                         _______ _______ _______ _____ _____    ______ ____
ROOT
ATOM      1  C   UNL     1       4.548   5.543  17.721  0.00  0.00    +0.000 A 
ATOM      2  C   UNL     1       3.825   4.575  18.426  0.00  0.00    +0.000 A 
ATOM      3  C   UNL     1       2.607   4.890  19.027  0.00  0.00    +0.000 A 
ATOM      4  C   UNL     1       2.082   6.178  18.916  0.00  0.00    +0.000 A 
ATOM      5  C   UNL     1       2.772   7.175  18.211  0.00  0.00    +0.000 A 
ATOM      6  C   UNL     1       4.006   6.843  17.619  0.00  0.00    +0.000 A 
ENDROOT
BRANCH   1  12
ATOM      7  C   UNL     1       5.068   4.372  14.674  0.00  0.00    +0.000 C 
ATOM      8  C   UNL     1       6.047   4.715  15.737  0.00  0.00    +0.000 A 
ATOM      9  N   UNL     1       7.352   4.538  15.495  0.00  0.00    +0.000 NA
ATOM     10  N   UNL     1       7.945   4.870  16.644  0.00  0.00    +0.000 N 
ATOM     11  C   UNL     1       7.081   5.275  17.620  0.00  0.00    +0.000 A 
ATOM     12  C   UNL     1       5.811   5.205  17.060  0.00  0.00    +0.000 A 
ATOM     13  H   UNL     1       8.958   4.797  16.701  0.00  0.00    +0.000 HD
BRANCH  11  14
ATOM     14  C   UNL     1       7.648   5.671  18.920  0.00  0.00    +0.000 C 
ATOM     15  F   UNL     1       8.119   6.947  18.878  0.00  0.00    +0.000 F 
ATOM     16  F   UNL     1       6.733   5.631  19.918  0.00  0.00    +0.000 F 
ATOM     17  F   UNL     1       8.695   4.899  19.295  0.00  0.00    +0.000 F 
ENDBRANCH  11  14
ENDBRANCH   1  12
BRANCH   5  18
ATOM     18  C   UNL     1       2.120   8.533  18.116  0.00  0.00    +0.000 C 
ATOM     19  O   UNL     1       2.261   9.202  17.096  0.00  0.00    +0.000 OA
ATOM     20  N   UNL     1       1.392   8.975  19.197  0.00  0.00    +0.000 N 
ATOM     21  H   UNL     1       1.202   8.337  19.954  0.00  0.00    +0.000 HD
BRANCH  20  22
ATOM     22  C   UNL     1       0.689  10.259  19.283  0.00  0.00    +0.000 C 
ATOM     23  C   UNL     1       1.564  11.487  18.990  0.00  0.00    +0.000 C 
ATOM     24  C   UNL     1       0.798  12.777  19.287  0.00  0.00    +0.000 C 
ATOM     25  C   UNL     1      -0.532  12.840  18.532  0.00  0.00    +0.000 C 
ATOM     26  C   UNL     1      -1.380  11.588  18.761  0.00  0.00    +0.000 C 
ATOM     27  C   UNL     1      -0.602  10.306  18.456  0.00  0.00    +0.000 C 
BRANCH  25  28
ATOM     28  O   UNL     1      -1.261  13.990  18.954  0.00  0.00    +0.000 OA
ATOM     29  H   UNL     1      -0.840  14.346  19.752  0.00  0.00    +0.000 HD
ENDBRANCH  25  28
ENDBRANCH  20  22
ENDBRANCH   5  18
TORSDOF 5
ENDMDL
MODEL 7
REMARK VINA RESULT:      -8.1      1.643      1.933
REMARK  Name = 
REMARK  6 active torsions:
REMARK  status: ('A' for Active; 'I' for Inactive)
REMARK    1  A    between atoms: C_1  and  C_2
REMARK    2  A    between atoms: C_5  and  C_6
REMARK    3  A    between atoms: C_10  and  C_11
REMARK    4  A    between atoms: C_15  and  C_16
REMARK    5  A    between atoms: N_18  and  C_19
REMARK    6  A    between atoms: C_22  and  O_23
REMARK                            x       y       z     vdW  Elec       q    Type
REMARK                         _______ _______ _______ _____ _____    ______ ____
ROOT
ATOM      1  C   UNL     1       0.180  10.414  20.050  0.00  0.00    +0.000 A 
ATOM      2  C   UNL     1      -0.178  10.404  21.402  0.00  0.00    +0.000 A 
ATOM      3  C   UNL     1       0.192   9.346  22.232  0.00  0.00    +0.000 A 
ATOM      4  C   UNL     1       0.946   8.287  21.724  0.00  0.00    +0.000 A 
ATOM      5  C   UNL     1       1.333   8.264  20.376  0.00  0.00    +0.000 A 
ATOM      6  C   UNL     1       0.941   9.335  19.549  0.00  0.00    +0.000 A 
ENDROOT
BRANCH   1  12
ATOM      7  C   UNL     1       1.173  13.564  20.195  0.00  0.00    +0.000 C 
ATOM      8  C   UNL     1       0.259  12.903  19.230  0.00  0.00    +0.000 A 
ATOM      9  N   UNL     1      -0.289  13.636  18.253  0.00  0.00    +0.000 NA
ATOM     10  N   UNL     1      -1.089  12.780  17.612  0.00  0.00    +0.000 N 
ATOM     11  C   UNL     1      -1.072  11.514  18.121  0.00  0.00    +0.000 A 
ATOM     12  C   UNL     1      -0.179  11.541  19.185  0.00  0.00    +0.000 A 
ATOM     13  H   UNL     1      -1.631  13.127  16.824  0.00  0.00    +0.000 HD
BRANCH  11  14
ATOM     14  C   UNL     1      -1.918  10.500  17.470  0.00  0.00    +0.000 C 
ATOM     15  F   UNL     1      -2.608  11.036  16.427  0.00  0.00    +0.000 F 
ATOM     16  F   UNL     1      -1.196   9.470  16.966  0.00  0.00    +0.000 F 
ATOM     17  F   UNL     1      -2.848   9.976  18.303  0.00  0.00    +0.000 F 
ENDBRANCH  11  14
ENDBRANCH   1  12
BRANCH   5  18
ATOM     18  C   UNL     1       2.169   7.095  19.915  0.00  0.00    +0.000 C 
ATOM     19  O   UNL     1       2.206   6.073  20.595  0.00  0.00    +0.000 OA
ATOM     20  N   UNL     1       2.872   7.229  18.739  0.00  0.00    +0.000 N 
ATOM     21  H   UNL     1       2.706   8.035  18.159  0.00  0.00    +0.000 HD
BRANCH  20  22
ATOM     22  C   UNL     1       3.728   6.202  18.138  0.00  0.00    +0.000 C 
ATOM     23  C   UNL     1       2.990   4.925  17.709  0.00  0.00    +0.000 C 
ATOM     24  C   UNL     1       3.985   3.850  17.272  0.00  0.00    +0.000 C 
ATOM     25  C   UNL     1       4.925   4.351  16.173  0.00  0.00    +0.000 C 
ATOM     26  C   UNL     1       5.611   5.662  16.561  0.00  0.00    +0.000 C 
ATOM     27  C   UNL     1       4.602   6.730  16.993  0.00  0.00    +0.000 C 
BRANCH  25  28
ATOM     28  O   UNL     1       5.914   3.361  15.907  0.00  0.00    +0.000 OA
ATOM     29  H   UNL     1       6.482   3.678  15.187  0.00  0.00    +0.000 HD
ENDBRANCH  25  28
ENDBRANCH  20  22
ENDBRANCH   5  18
TORSDOF 5
ENDMDL
MODEL 8
REMARK VINA RESULT:      -8.0      4.681      8.772
REMARK  Name = 
REMARK  6 active torsions:
REMARK  status: ('A' for Active; 'I' for Inactive)
REMARK    1  A    between atoms: C_1  and  C_2
REMARK    2  A    between atoms: C_5  and  C_6
REMARK    3  A    between atoms: C_10  and  C_11
REMARK    4  A    between atoms: C_15  and  C_16
REMARK    5  A    between atoms: N_18  and  C_19
REMARK    6  A    between atoms: C_22  and  O_23
REMARK                            x       y       z     vdW  Elec       q    Type
REMARK                         _______ _______ _______ _____ _____    ______ ____
ROOT
ATOM      1  C   UNL     1       4.546   6.136  17.901  0.00  0.00    +0.000 A 
ATOM      2  C   UNL     1       4.170   5.295  18.954  0.00  0.00    +0.000 A 
ATOM      3  C   UNL     1       3.102   5.626  19.787  0.00  0.00    +0.000 A 
ATOM      4  C   UNL     1       2.379   6.799  19.567  0.00  0.00    +0.000 A 
ATOM      5  C   UNL     1       2.719   7.665  18.518  0.00  0.00    +0.000 A 
ATOM      6  C   UNL     1       3.807   7.321  17.693  0.00  0.00    +0.000 A 
ENDROOT
BRANCH   1  12
ATOM      7  C   UNL     1       4.732   3.671  15.707  0.00  0.00    +0.000 C 
ATOM      8  C   UNL     1       5.729   4.719  16.040  0.00  0.00    +0.000 A 
ATOM      9  N   UNL     1       6.905   4.718  15.401  0.00  0.00    +0.000 NA
ATOM     10  N   UNL     1       7.582   5.723  15.961  0.00  0.00    +0.000 N 
ATOM     11  C   UNL     1       6.889   6.391  16.928  0.00  0.00    +0.000 A 
ATOM     12  C   UNL     1       5.646   5.773  17.005  0.00  0.00    +0.000 A 
ATOM     13  H   UNL     1       8.529   5.905  15.637  0.00  0.00    +0.000 HD
BRANCH  11  14
ATOM     14  C   UNL     1       7.554   7.523  17.594  0.00  0.00    +0.000 C 
ATOM     15  F   UNL     1       8.103   7.139  18.779  0.00  0.00    +0.000 F 
ATOM     16  F   UNL     1       8.563   8.040  16.852  0.00  0.00    +0.000 F 
ATOM     17  F   UNL     1       6.704   8.535  17.888  0.00  0.00    +0.000 F 
ENDBRANCH  11  14
ENDBRANCH   1  12
BRANCH   5  18
ATOM     18  C   UNL     1       1.868   8.899  18.334  0.00  0.00    +0.000 C 
ATOM     19  O   UNL     1       1.989   9.570  17.313  0.00  0.00    +0.000 OA
ATOM     20  N   UNL     1       0.986   9.228  19.337  0.00  0.00    +0.000 N 
ATOM     21  H   UNL     1       0.835   8.576  20.090  0.00  0.00    +0.000 HD
BRANCH  20  22
ATOM     22  C   UNL     1       0.081  10.382  19.331  0.00  0.00    +0.000 C 
ATOM     23  C   UNL     1      -1.167  10.210  18.451  0.00  0.00    +0.000 C 
ATOM     24  C   UNL     1      -1.945  11.523  18.359  0.00  0.00    +0.000 C 
ATOM     25  C   UNL     1      -2.303  12.075  19.741  0.00  0.00    +0.000 C 
ATOM     26  C   UNL     1      -1.077  12.181  20.650  0.00  0.00    +0.000 C 
ATOM     27  C   UNL     1      -0.310  10.859  20.735  0.00  0.00    +0.000 C 
BRANCH  25  28
ATOM     28  O   UNL     1      -2.899  13.361  19.598  0.00  0.00    +0.000 OA
ATOM     29  H   UNL     1      -3.808  13.245  19.276  0.00  0.00    +0.000 HD
ENDBRANCH  25  28
ENDBRANCH  20  22
ENDBRANCH   5  18
TORSDOF 5
ENDMDL
MODEL 9
REMARK VINA RESULT:      -8.0      4.464      8.744
REMARK  Name = 
REMARK  6 active torsions:
REMARK  status: ('A' for Active; 'I' for Inactive)
REMARK    1  A    between atoms: C_1  and  C_2
REMARK    2  A    between atoms: C_5  and  C_6
REMARK    3  A    between atoms: C_10  and  C_11
REMARK    4  A    between atoms: C_15  and  C_16
REMARK    5  A    between atoms: N_18  and  C_19
REMARK    6  A    between atoms: C_22  and  O_23
REMARK                            x       y       z     vdW  Elec       q    Type
REMARK                         _______ _______ _______ _____ _____    ______ ____
ROOT
ATOM      1  C   UNL     1       4.609   5.400  18.037  0.00  0.00    +0.000 A 
ATOM      2  C   UNL     1       3.769   4.426  18.588  0.00  0.00    +0.000 A 
ATOM      3  C   UNL     1       2.478   4.750  19.005  0.00  0.00    +0.000 A 
ATOM      4  C   UNL     1       2.000   6.053  18.859  0.00  0.00    +0.000 A 
ATOM      5  C   UNL     1       2.808   7.055  18.304  0.00  0.00    +0.000 A 
ATOM      6  C   UNL     1       4.113   6.714  17.898  0.00  0.00    +0.000 A 
ENDROOT
BRANCH   1  12
ATOM      7  C   UNL     1       7.493   5.551  19.645  0.00  0.00    +0.000 C 
ATOM      8  C   UNL     1       7.204   5.099  18.261  0.00  0.00    +0.000 A 
ATOM      9  N   UNL     1       8.218   4.689  17.490  0.00  0.00    +0.000 NA
ATOM     10  N   UNL     1       7.645   4.418  16.314  0.00  0.00    +0.000 N 
ATOM     11  C   UNL     1       6.296   4.618  16.293  0.00  0.00    +0.000 A 
ATOM     12  C   UNL     1       5.953   5.054  17.567  0.00  0.00    +0.000 A 
ATOM     13  H   UNL     1       8.239   4.097  15.553  0.00  0.00    +0.000 HD
BRANCH  11  14
ATOM     14  C   UNL     1       5.579   4.334  15.039  0.00  0.00    +0.000 C 
ATOM     15  F   UNL     1       5.351   5.477  14.337  0.00  0.00    +0.000 F 
ATOM     16  F   UNL     1       6.275   3.510  14.219  0.00  0.00    +0.000 F 
ATOM     17  F   UNL     1       4.364   3.773  15.243  0.00  0.00    +0.000 F 
ENDBRANCH  11  14
ENDBRANCH   1  12
BRANCH   5  18
ATOM     18  C   UNL     1       2.203   8.431  18.158  0.00  0.00    +0.000 C 
ATOM     19  O   UNL     1       2.389   9.066  17.124  0.00  0.00    +0.000 OA
ATOM     20  N   UNL     1       1.465   8.925  19.209  0.00  0.00    +0.000 N 
ATOM     21  H   UNL     1       1.237   8.314  19.977  0.00  0.00    +0.000 HD
BRANCH  20  22
ATOM     22  C   UNL     1       0.802  10.232  19.243  0.00  0.00    +0.000 C 
ATOM     23  C   UNL     1       1.686  11.408  18.801  0.00  0.00    +0.000 C 
ATOM     24  C   UNL     1       0.975  12.739  19.049  0.00  0.00    +0.000 C 
ATOM     25  C   UNL     1      -0.401  12.787  18.382  0.00  0.00    +0.000 C 
ATOM     26  C   UNL     1      -1.264  11.582  18.759  0.00  0.00    +0.000 C 
ATOM     27  C   UNL     1      -0.540  10.257  18.502  0.00  0.00    +0.000 C 
BRANCH  25  28
ATOM     28  O   UNL     1      -1.071  13.986  18.762  0.00  0.00    +0.000 OA
ATOM     29  H   UNL     1      -1.997  13.923  18.481  0.00  0.00    +0.000 HD
ENDBRANCH  25  28
ENDBRANCH  20  22
ENDBRANCH   5  18
TORSDOF 5
ENDMDL
