MODEL 1
REMARK VINA RESULT:      -7.0      0.000      0.000
REMARK  Name = 
REMARK  8 active torsions:
REMARK  status: ('A' for Active; 'I' for Inactive)
REMARK    1  A    between atoms: C_1  and  C_2
REMARK    2  A    between atoms: C_4  and  C_5
REMARK    3  A    between atoms: C_5  and  N_6
REMARK    4  A    between atoms: C_10  and  C_11
REMARK    5  A    between atoms: C_11  and  C_12
REMARK    6  A    between atoms: C_12  and  N_13
REMARK    7  A    between atoms: N_13  and  S_14
REMARK    8  A    between atoms: S_14  and  C_15
REMARK                            x       y       z     vdW  Elec       q    Type
REMARK                         _______ _______ _______ _____ _____    ______ ____
ROOT
ATOM      1  N   UNL     1       5.151   5.247  17.761  0.00  0.00    +0.000 NA
ATOM      2  C   UNL     1       4.979   6.569  17.157  0.00  0.00    +0.000 C 
ATOM      3  C   UNL     1       3.771   7.292  17.753  0.00  0.00    +0.000 C 
ATOM      4  C   UNL     1       2.503   6.462  17.587  0.00  0.00    +0.000 C 
ATOM      5  C   UNL     1       2.699   5.058  18.177  0.00  0.00    +0.000 C 
ATOM      6  C   UNL     1       3.967   4.399  17.599  0.00  0.00    +0.000 C 
ENDROOT
BRANCH   1   7
ATOM      7  C   UNL     1       6.380   4.559  17.311  0.00  0.00    +0.000 C 
BRANCH   7  11
ATOM      8  C   UNL     1       8.083   5.586  12.748  0.00  0.00    +0.000 C 
ATOM      9  C   UNL     1       7.326   4.998  13.876  0.00  0.00    +0.000 A 
ATOM     10  N   UNL     1       7.436   5.305  15.150  0.00  0.00    +0.000 NA
ATOM     11  C   UNL     1       6.540   4.494  15.820  0.00  0.00    +0.000 A 
ATOM     12  C   UNL     1       5.872   3.693  14.916  0.00  0.00    +0.000 A 
ATOM     13  N   UNL     1       6.387   4.015  13.693  0.00  0.00    +0.000 N 
ATOM     14  H   UNL     1       6.126   3.605  12.806  0.00  0.00    +0.000 HD
ENDBRANCH   7  11
ENDBRANCH   1   7
BRANCH   5  15
ATOM     15  C   UNL     1       1.445   4.195  17.925  0.00  0.00    +0.000 C 
BRANCH  15  16
ATOM     16  C   UNL     1       1.424   2.871  18.688  0.00  0.00    +0.000 C 
BRANCH  16  17
ATOM     17  N   UNL     1       0.844   3.067  20.023  0.00  0.00    +0.000 NA
ATOM     18  H   UNL     1       0.050   2.470  20.262  0.00  0.00    +0.000 HD
BRANCH  17  19
ATOM     19  S   UNL     1       1.906   3.176  21.322  0.00  0.00    +0.000 S 
ATOM     20  C   UNL     1       3.374   2.402  20.675  0.00  0.00    +0.000 C 
ATOM     21  O   UNL     1       2.165   4.582  21.511  0.00  0.00    +0.000 OA
ATOM     22  O   UNL     1       1.374   2.358  22.389  0.00  0.00    +0.000 OA
ENDBRANCH  17  19
ENDBRANCH  16  17
ENDBRANCH  15  16
ENDBRANCH   5  15
TORSDOF 6
ENDMDL
MODEL 2
REMARK VINA RESULT:      -6.9      1.867      2.107
REMARK  Name = 
REMARK  8 active torsions:
REMARK  status: ('A' for Active; 'I' for Inactive)
REMARK    1  A    between atoms: C_1  and  C_2
REMARK    2  A    between atoms: C_4  and  C_5
REMARK    3  A    between atoms: C_5  and  N_6
REMARK    4  A    between atoms: C_10  and  C_11
REMARK    5  A    between atoms: C_11  and  C_12
REMARK    6  A    between atoms: C_12  and  N_13
REMARK    7  A    between atoms: N_13  and  S_14
REMARK    8  A    between atoms: S_14  and  C_15
REMARK                            x       y       z     vdW  Elec       q    Type
REMARK                         _______ _______ _______ _____ _____    ______ ____
ROOT
ATOM      1  N   UNL     1       5.217   5.968  18.268  0.00  0.00    +0.000 NA
ATOM      2  C   UNL     1       4.594   6.554  17.081  0.00  0.00    +0.000 C 
ATOM      3  C   UNL     1       3.553   7.604  17.469  0.00  0.00    +0.000 C 
ATOM      4  C   UNL     1       2.492   7.008  18.388  0.00  0.00    +0.000 C 
ATOM      5  C   UNL     1       3.149   6.350  19.610  0.00  0.00    +0.000 C 
ATOM      6  C   UNL     1       4.239   5.353  19.168  0.00  0.00    +0.000 C 
ENDROOT
BRANCH   1   7
ATOM      7  C   UNL     1       6.321   5.039  17.946  0.00  0.00    +0.000 C 
BRANCH   7  11
ATOM      8  C   UNL     1       7.743   5.202  13.178  0.00  0.00    +0.000 C 
ATOM      9  C   UNL     1       7.080   4.816  14.444  0.00  0.00    +0.000 A 
ATOM     10  N   UNL     1       7.226   5.385  15.620  0.00  0.00    +0.000 NA
ATOM     11  C   UNL     1       6.418   4.678  16.492  0.00  0.00    +0.000 A 
ATOM     12  C   UNL     1       5.767   3.670  15.809  0.00  0.00    +0.000 A 
ATOM     13  N   UNL     1       6.204   3.763  14.518  0.00  0.00    +0.000 N 
ATOM     14  H   UNL     1       5.932   3.164  13.750  0.00  0.00    +0.000 HD
ENDBRANCH   7  11
ENDBRANCH   1   7
BRANCH   5  15
ATOM     15  C   UNL     1       2.078   5.670  20.487  0.00  0.00    +0.000 C 
BRANCH  15  16
ATOM     16  C   UNL     1       2.235   4.155  20.618  0.00  0.00    +0.000 C 
BRANCH  16  17
ATOM     17  N   UNL     1       1.059   3.475  20.056  0.00  0.00    +0.000 NA
ATOM     18  H   UNL     1       0.168   3.965  20.150  0.00  0.00    +0.000 HD
BRANCH  17  19
ATOM     19  S   UNL     1       1.207   2.817  18.517  0.00  0.00    +0.000 S 
ATOM     20  C   UNL     1       2.804   2.031  18.593  0.00  0.00    +0.000 C 
ATOM     21  O   UNL     1       0.190   1.798  18.417  0.00  0.00    +0.000 OA
ATOM     22  O   UNL     1       1.267   3.915  17.577  0.00  0.00    +0.000 OA
ENDBRANCH  17  19
ENDBRANCH  16  17
ENDBRANCH  15  16
ENDBRANCH   5  15
TORSDOF 6
ENDMDL
MODEL 3
REMARK VINA RESULT:      -6.8      3.312      4.245
REMARK  Name = 
REMARK  8 active torsions:
REMARK  status: ('A' for Active; 'I' for Inactive)
REMARK    1  A    between atoms: C_1  and  C_2
REMARK    2  A    between atoms: C_4  and  C_5
REMARK    3  A    between atoms: C_5  and  N_6
REMARK    4  A    between atoms: C_10  and  C_11
REMARK    5  A    between atoms: C_11  and  C_12
REMARK    6  A    between atoms: C_12  and  N_13
REMARK    7  A    between atoms: N_13  and  S_14
REMARK    8  A    between atoms: S_14  and  C_15
REMARK                            x       y       z     vdW  Elec       q    Type
REMARK                         _______ _______ _______ _____ _____    ______ ____
ROOT
ATOM      1  N   UNL     1       4.500   4.347  18.666  0.00  0.00    +0.000 NA
ATOM      2  C   UNL     1       3.995   3.328  19.587  0.00  0.00    +0.000 C 
ATOM      3  C   UNL     1       2.475   3.420  19.726  0.00  0.00    +0.000 C 
ATOM      4  C   UNL     1       2.052   4.811  20.186  0.00  0.00    +0.000 C 
ATOM      5  C   UNL     1       2.623   5.884  19.248  0.00  0.00    +0.000 C 
ATOM      6  C   UNL     1       4.146   5.706  19.085  0.00  0.00    +0.000 C 
ENDROOT
BRANCH   1   7
ATOM      7  C   UNL     1       5.949   4.220  18.399  0.00  0.00    +0.000 C 
BRANCH   7  11
ATOM      8  C   UNL     1       6.337   3.911  13.445  0.00  0.00    +0.000 C 
ATOM      9  C   UNL     1       6.474   4.359  14.850  0.00  0.00    +0.000 A 
ATOM     10  N   UNL     1       5.962   3.786  15.917  0.00  0.00    +0.000 NA
ATOM     11  C   UNL     1       6.349   4.564  16.993  0.00  0.00    +0.000 A 
ATOM     12  C   UNL     1       7.122   5.619  16.551  0.00  0.00    +0.000 A 
ATOM     13  N   UNL     1       7.183   5.482  15.193  0.00  0.00    +0.000 N 
ATOM     14  H   UNL     1       7.664   6.097  14.550  0.00  0.00    +0.000 HD
ENDBRANCH   7  11
ENDBRANCH   1   7
BRANCH   5  15
ATOM     15  C   UNL     1       2.268   7.291  19.771  0.00  0.00    +0.000 C 
BRANCH  15  16
ATOM     16  C   UNL     1       1.352   7.298  20.996  0.00  0.00    +0.000 C 
BRANCH  16  17
ATOM     17  N   UNL     1       1.558   8.528  21.772  0.00  0.00    +0.000 NA
ATOM     18  H   UNL     1       2.197   9.215  21.367  0.00  0.00    +0.000 HD
BRANCH  17  19
ATOM     19  S   UNL     1       0.194   9.291  22.391  0.00  0.00    +0.000 S 
ATOM     20  C   UNL     1       0.024  10.697  21.312  0.00  0.00    +0.000 C 
ATOM     21  O   UNL     1      -0.909   8.390  22.161  0.00  0.00    +0.000 OA
ATOM     22  O   UNL     1       0.522   9.755  23.722  0.00  0.00    +0.000 OA
ENDBRANCH  17  19
ENDBRANCH  16  17
ENDBRANCH  15  16
ENDBRANCH   5  15
TORSDOF 6
ENDMDL
MODEL 4
REMARK VINA RESULT:      -6.5      3.543      4.739
REMARK  Name = 
REMARK  8 active torsions:
REMARK  status: ('A' for Active; 'I' for Inactive)
REMARK    1  A    between atoms: C_1  and  C_2
REMARK    2  A    between atoms: C_4  and  C_5
REMARK    3  A    between atoms: C_5  and  N_6
REMARK    4  A    between atoms: C_10  and  C_11
REMARK    5  A    between atoms: C_11  and  C_12
REMARK    6  A    between atoms: C_12  and  N_13
REMARK    7  A    between atoms: N_13  and  S_14
REMARK    8  A    between atoms: S_14  and  C_15
REMARK                            x       y       z     vdW  Elec       q    Type
REMARK                         _______ _______ _______ _____ _____    ______ ____
ROOT
ATOM      1  N   UNL     1       4.693   4.714  17.951  0.00  0.00    +0.000 NA
ATOM      2  C   UNL     1       4.788   3.749  19.047  0.00  0.00    +0.000 C 
ATOM      3  C   UNL     1       3.423   3.516  19.694  0.00  0.00    +0.000 C 
ATOM      4  C   UNL     1       2.825   4.828  20.192  0.00  0.00    +0.000 C 
ATOM      5  C   UNL     1       2.770   5.858  19.054  0.00  0.00    +0.000 C 
ATOM      6  C   UNL     1       4.152   6.004  18.388  0.00  0.00    +0.000 C 
ENDROOT
BRANCH   1   7
ATOM      7  C   UNL     1       5.961   4.878  17.210  0.00  0.00    +0.000 C 
BRANCH   7  11
ATOM      8  C   UNL     1       8.279   9.248  17.774  0.00  0.00    +0.000 C 
ATOM      9  C   UNL     1       7.842   7.844  17.954  0.00  0.00    +0.000 A 
ATOM     10  N   UNL     1       6.962   7.190  17.228  0.00  0.00    +0.000 NA
ATOM     11  C   UNL     1       6.877   5.924  17.777  0.00  0.00    +0.000 A 
ATOM     12  C   UNL     1       7.741   5.823  18.849  0.00  0.00    +0.000 A 
ATOM     13  N   UNL     1       8.336   7.048  18.955  0.00  0.00    +0.000 N 
ATOM     14  H   UNL     1       9.019   7.324  19.647  0.00  0.00    +0.000 HD
ENDBRANCH   7  11
ENDBRANCH   1   7
BRANCH   5  15
ATOM     15  C   UNL     1       2.249   7.210  19.586  0.00  0.00    +0.000 C 
BRANCH  15  16
ATOM     16  C   UNL     1       1.553   7.129  20.945  0.00  0.00    +0.000 C 
BRANCH  16  17
ATOM     17  N   UNL     1       1.790   8.362  21.707  0.00  0.00    +0.000 NA
ATOM     18  H   UNL     1       2.515   8.984  21.345  0.00  0.00    +0.000 HD
BRANCH  17  19
ATOM     19  S   UNL     1       0.444   9.248  22.186  0.00  0.00    +0.000 S 
ATOM     20  C   UNL     1       0.582  10.715  21.187  0.00  0.00    +0.000 C 
ATOM     21  O   UNL     1      -0.707   8.495  21.753  0.00  0.00    +0.000 OA
ATOM     22  O   UNL     1       0.631   9.605  23.576  0.00  0.00    +0.000 OA
ENDBRANCH  17  19
ENDBRANCH  16  17
ENDBRANCH  15  16
ENDBRANCH   5  15
TORSDOF 6
ENDMDL
MODEL 5
REMARK VINA RESULT:      -6.5      3.624      4.714
REMARK  Name = 
REMARK  8 active torsions:
REMARK  status: ('A' for Active; 'I' for Inactive)
REMARK    1  A    between atoms: C_1  and  C_2
REMARK    2  A    between atoms: C_4  and  C_5
REMARK    3  A    between atoms: C_5  and  N_6
REMARK    4  A    between atoms: C_10  and  C_11
REMARK    5  A    between atoms: C_11  and  C_12
REMARK    6  A    between atoms: C_12  and  N_13
REMARK    7  A    between atoms: N_13  and  S_14
REMARK    8  A    between atoms: S_14  and  C_15
REMARK                            x       y       z     vdW  Elec       q    Type
REMARK                         _______ _______ _______ _____ _____    ______ ____
ROOT
ATOM      1  N   UNL     1       4.492   4.436  18.440  0.00  0.00    +0.000 NA
ATOM      2  C   UNL     1       3.739   3.265  17.989  0.00  0.00    +0.000 C 
ATOM      3  C   UNL     1       2.339   3.661  17.517  0.00  0.00    +0.000 C 
ATOM      4  C   UNL     1       1.578   4.391  18.619  0.00  0.00    +0.000 C 
ATOM      5  C   UNL     1       2.390   5.592  19.127  0.00  0.00    +0.000 C 
ATOM      6  C   UNL     1       3.815   5.154  19.523  0.00  0.00    +0.000 C 
ENDROOT
BRANCH   1   7
ATOM      7  C   UNL     1       5.895   4.126  18.786  0.00  0.00    +0.000 C 
BRANCH   7  11
ATOM      8  C   UNL     1       7.819   8.512  17.426  0.00  0.00    +0.000 C 
ATOM      9  C   UNL     1       7.590   7.218  18.109  0.00  0.00    +0.000 A 
ATOM     10  N   UNL     1       6.623   6.358  17.873  0.00  0.00    +0.000 NA
ATOM     11  C   UNL     1       6.814   5.313  18.757  0.00  0.00    +0.000 A 
ATOM     12  C   UNL     1       7.932   5.556  19.530  0.00  0.00    +0.000 A 
ATOM     13  N   UNL     1       8.405   6.769  19.116  0.00  0.00    +0.000 N 
ATOM     14  H   UNL     1       9.213   7.254  19.484  0.00  0.00    +0.000 HD
ENDBRANCH   7  11
ENDBRANCH   1   7
BRANCH   5  15
ATOM     15  C   UNL     1       1.656   6.270  20.302  0.00  0.00    +0.000 C 
BRANCH  15  16
ATOM     16  C   UNL     1       1.897   7.776  20.414  0.00  0.00    +0.000 C 
BRANCH  16  17
ATOM     17  N   UNL     1       1.658   8.224  21.793  0.00  0.00    +0.000 NA
ATOM     18  H   UNL     1       2.457   8.637  22.277  0.00  0.00    +0.000 HD
BRANCH  17  19
ATOM     19  S   UNL     1       0.267   9.120  22.086  0.00  0.00    +0.000 S 
ATOM     20  C   UNL     1       0.306  10.319  20.770  0.00  0.00    +0.000 C 
ATOM     21  O   UNL     1      -0.842   8.223  21.868  0.00  0.00    +0.000 OA
ATOM     22  O   UNL     1       0.447   9.801  23.350  0.00  0.00    +0.000 OA
ENDBRANCH  17  19
ENDBRANCH  16  17
ENDBRANCH  15  16
ENDBRANCH   5  15
TORSDOF 6
ENDMDL
MODEL 6
REMARK VINA RESULT:      -6.5      3.951      5.357
REMARK  Name = 
REMARK  8 active torsions:
REMARK  status: ('A' for Active; 'I' for Inactive)
REMARK    1  A    between atoms: C_1  and  C_2
REMARK    2  A    between atoms: C_4  and  C_5
REMARK    3  A    between atoms: C_5  and  N_6
REMARK    4  A    between atoms: C_10  and  C_11
REMARK    5  A    between atoms: C_11  and  C_12
REMARK    6  A    between atoms: C_12  and  N_13
REMARK    7  A    between atoms: N_13  and  S_14
REMARK    8  A    between atoms: S_14  and  C_15
REMARK                            x       y       z     vdW  Elec       q    Type
REMARK                         _______ _______ _______ _____ _____    ______ ____
ROOT
ATOM      1  N   UNL     1       4.701   5.414  16.893  0.00  0.00    +0.000 NA
ATOM      2  C   UNL     1       4.449   4.229  17.713  0.00  0.00    +0.000 C 
ATOM      3  C   UNL     1       2.962   4.097  18.044  0.00  0.00    +0.000 C 
ATOM      4  C   UNL     1       2.446   5.349  18.746  0.00  0.00    +0.000 C 
ATOM      5  C   UNL     1       2.754   6.599  17.908  0.00  0.00    +0.000 C 
ATOM      6  C   UNL     1       4.251   6.649  17.540  0.00  0.00    +0.000 C 
ENDROOT
BRANCH   1   7
ATOM      7  C   UNL     1       6.104   5.518  16.438  0.00  0.00    +0.000 C 
BRANCH   7  11
ATOM      8  C   UNL     1       8.561   9.480  18.184  0.00  0.00    +0.000 C 
ATOM      9  C   UNL     1       8.018   8.112  18.017  0.00  0.00    +0.000 A 
ATOM     10  N   UNL     1       7.225   7.687  17.059  0.00  0.00    +0.000 NA
ATOM     11  C   UNL     1       6.981   6.353  17.327  0.00  0.00    +0.000 A 
ATOM     12  C   UNL     1       7.658   5.976  18.468  0.00  0.00    +0.000 A 
ATOM     13  N   UNL     1       8.301   7.102  18.899  0.00  0.00    +0.000 N 
ATOM     14  H   UNL     1       8.883   7.181  19.723  0.00  0.00    +0.000 HD
ENDBRANCH   7  11
ENDBRANCH   1   7
BRANCH   5  15
ATOM     15  C   UNL     1       2.312   7.868  18.665  0.00  0.00    +0.000 C 
BRANCH  15  16
ATOM     16  C   UNL     1       1.883   9.026  17.763  0.00  0.00    +0.000 C 
BRANCH  16  17
ATOM     17  N   UNL     1       1.464  10.173  18.580  0.00  0.00    +0.000 NA
ATOM     18  H   UNL     1       1.885  11.073  18.343  0.00  0.00    +0.000 HD
BRANCH  17  19
ATOM     19  S   UNL     1      -0.181  10.355  18.874  0.00  0.00    +0.000 S 
ATOM     20  C   UNL     1      -0.349  12.123  18.998  0.00  0.00    +0.000 C 
ATOM     21  O   UNL     1      -0.854   9.905  17.679  0.00  0.00    +0.000 OA
ATOM     22  O   UNL     1      -0.461   9.763  20.164  0.00  0.00    +0.000 OA
ENDBRANCH  17  19
ENDBRANCH  16  17
ENDBRANCH  15  16
ENDBRANCH   5  15
TORSDOF 6
ENDMDL
MODEL 7
REMARK VINA RESULT:      -6.5      4.539      7.215
REMARK  Name = 
REMARK  8 active torsions:
REMARK  status: ('A' for Active; 'I' for Inactive)
REMARK    1  A    between atoms: C_1  and  C_2
REMARK    2  A    between atoms: C_4  and  C_5
REMARK    3  A    between atoms: C_5  and  N_6
REMARK    4  A    between atoms: C_10  and  C_11
REMARK    5  A    between atoms: C_11  and  C_12
REMARK    6  A    between atoms: C_12  and  N_13
REMARK    7  A    between atoms: N_13  and  S_14
REMARK    8  A    between atoms: S_14  and  C_15
REMARK                            x       y       z     vdW  Elec       q    Type
REMARK                         _______ _______ _______ _____ _____    ______ ____
ROOT
ATOM      1  N   UNL     1       4.788   5.988  18.140  0.00  0.00    +0.000 NA
ATOM      2  C   UNL     1       5.487   5.256  19.197  0.00  0.00    +0.000 C 
ATOM      3  C   UNL     1       7.002   5.341  19.013  0.00  0.00    +0.000 C 
ATOM      4  C   UNL     1       7.416   4.820  17.641  0.00  0.00    +0.000 C 
ATOM      5  C   UNL     1       6.646   5.554  16.533  0.00  0.00    +0.000 C 
ATOM      6  C   UNL     1       5.128   5.500  16.801  0.00  0.00    +0.000 C 
ENDROOT
BRANCH   1   7
ATOM      7  C   UNL     1       3.324   6.043  18.344  0.00  0.00    +0.000 C 
BRANCH   7  11
ATOM      8  C   UNL     1       1.491   2.690  21.534  0.00  0.00    +0.000 C 
ATOM      9  C   UNL     1       1.947   3.364  20.297  0.00  0.00    +0.000 A 
ATOM     10  N   UNL     1       2.463   4.570  20.196  0.00  0.00    +0.000 NA
ATOM     11  C   UNL     1       2.723   4.765  18.853  0.00  0.00    +0.000 A 
ATOM     12  C   UNL     1       2.363   3.638  18.141  0.00  0.00    +0.000 A 
ATOM     13  N   UNL     1       1.864   2.766  19.066  0.00  0.00    +0.000 N 
ATOM     14  H   UNL     1       1.497   1.842  18.880  0.00  0.00    +0.000 HD
ENDBRANCH   7  11
ENDBRANCH   1   7
BRANCH   5  15
ATOM     15  C   UNL     1       7.001   4.959  15.155  0.00  0.00    +0.000 C 
BRANCH  15  16
ATOM     16  C   UNL     1       5.819   4.340  14.409  0.00  0.00    +0.000 C 
BRANCH  16  17
ATOM     17  N   UNL     1       6.254   3.141  13.680  0.00  0.00    +0.000 NA
ATOM     18  H   UNL     1       5.842   2.256  13.981  0.00  0.00    +0.000 HD
BRANCH  17  19
ATOM     19  S   UNL     1       6.297   3.226  12.002  0.00  0.00    +0.000 S 
ATOM     20  C   UNL     1       4.583   3.485  11.593  0.00  0.00    +0.000 C 
ATOM     21  O   UNL     1       7.039   4.421  11.680  0.00  0.00    +0.000 OA
ATOM     22  O   UNL     1       6.707   1.929  11.511  0.00  0.00    +0.000 OA
ENDBRANCH  17  19
ENDBRANCH  16  17
ENDBRANCH  15  16
ENDBRANCH   5  15
TORSDOF 6
ENDMDL
MODEL 8
REMARK VINA RESULT:      -6.4      3.912      5.007
REMARK  Name = 
REMARK  8 active torsions:
REMARK  status: ('A' for Active; 'I' for Inactive)
REMARK    1  A    between atoms: C_1  and  C_2
REMARK    2  A    between atoms: C_4  and  C_5
REMARK    3  A    between atoms: C_5  and  N_6
REMARK    4  A    between atoms: C_10  and  C_11
REMARK    5  A    between atoms: C_11  and  C_12
REMARK    6  A    between atoms: C_12  and  N_13
REMARK    7  A    between atoms: N_13  and  S_14
REMARK    8  A    between atoms: S_14  and  C_15
REMARK                            x       y       z     vdW  Elec       q    Type
REMARK                         _______ _______ _______ _____ _____    ______ ____
ROOT
ATOM      1  N   UNL     1       4.125   4.874  18.612  0.00  0.00    +0.000 NA
ATOM      2  C   UNL     1       3.555   4.770  19.956  0.00  0.00    +0.000 C 
ATOM      3  C   UNL     1       2.140   5.346  19.998  0.00  0.00    +0.000 C 
ATOM      4  C   UNL     1       2.127   6.796  19.525  0.00  0.00    +0.000 C 
ATOM      5  C   UNL     1       2.769   6.913  18.135  0.00  0.00    +0.000 C 
ATOM      6  C   UNL     1       4.164   6.256  18.126  0.00  0.00    +0.000 C 
ENDROOT
BRANCH   1   7
ATOM      7  C   UNL     1       5.443   4.216  18.488  0.00  0.00    +0.000 C 
BRANCH   7  11
ATOM      8  C   UNL     1       6.083   3.843  13.565  0.00  0.00    +0.000 C 
ATOM      9  C   UNL     1       6.285   4.154  14.999  0.00  0.00    +0.000 A 
ATOM     10  N   UNL     1       5.475   3.865  15.994  0.00  0.00    +0.000 NA
ATOM     11  C   UNL     1       6.079   4.358  17.136  0.00  0.00    +0.000 A 
ATOM     12  C   UNL     1       7.286   4.944  16.808  0.00  0.00    +0.000 A 
ATOM     13  N   UNL     1       7.397   4.816  15.453  0.00  0.00    +0.000 N 
ATOM     14  H   UNL     1       8.161   5.150  14.881  0.00  0.00    +0.000 HD
ENDBRANCH   7  11
ENDBRANCH   1   7
BRANCH   5  15
ATOM     15  C   UNL     1       2.835   8.393  17.703  0.00  0.00    +0.000 C 
BRANCH  15  16
ATOM     16  C   UNL     1       1.508   9.144  17.814  0.00  0.00    +0.000 C 
BRANCH  16  17
ATOM     17  N   UNL     1       1.756  10.576  18.027  0.00  0.00    +0.000 NA
ATOM     18  H   UNL     1       1.855  11.147  17.185  0.00  0.00    +0.000 HD
BRANCH  17  19
ATOM     19  S   UNL     1       0.801  11.368  19.162  0.00  0.00    +0.000 S 
ATOM     20  C   UNL     1       0.770  10.202  20.508  0.00  0.00    +0.000 C 
ATOM     21  O   UNL     1       1.547  12.533  19.571  0.00  0.00    +0.000 OA
ATOM     22  O   UNL     1      -0.530  11.482  18.607  0.00  0.00    +0.000 OA
ENDBRANCH  17  19
ENDBRANCH  16  17
ENDBRANCH  15  16
ENDBRANCH   5  15
TORSDOF 6
ENDMDL
MODEL 9
REMARK VINA RESULT:      -6.4      2.336      3.118
REMARK  Name = 
REMARK  8 active torsions:
REMARK  status: ('A' for Active; 'I' for Inactive)
REMARK    1  A    between atoms: C_1  and  C_2
REMARK    2  A    between atoms: C_4  and  C_5
REMARK    3  A    between atoms: C_5  and  N_6
REMARK    4  A    between atoms: C_10  and  C_11
REMARK    5  A    between atoms: C_11  and  C_12
REMARK    6  A    between atoms: C_12  and  N_13
REMARK    7  A    between atoms: N_13  and  S_14
REMARK    8  A    between atoms: S_14  and  C_15
REMARK                            x       y       z     vdW  Elec       q    Type
REMARK                         _______ _______ _______ _____ _____    ______ ____
ROOT
ATOM      1  N   UNL     1       2.990   6.836  18.676  0.00  0.00    +0.000 NA
ATOM      2  C   UNL     1       2.205   7.902  19.300  0.00  0.00    +0.000 C 
ATOM      3  C   UNL     1       1.816   7.531  20.731  0.00  0.00    +0.000 C 
ATOM      4  C   UNL     1       1.045   6.216  20.763  0.00  0.00    +0.000 C 
ATOM      5  C   UNL     1       1.847   5.107  20.065  0.00  0.00    +0.000 C 
ATOM      6  C   UNL     1       2.277   5.556  18.654  0.00  0.00    +0.000 C 
ENDROOT
BRANCH   1   7
ATOM      7  C   UNL     1       3.500   7.198  17.337  0.00  0.00    +0.000 C 
BRANCH   7  11
ATOM      8  C   UNL     1       6.704   4.134  15.072  0.00  0.00    +0.000 C 
ATOM      9  C   UNL     1       6.121   5.175  15.949  0.00  0.00    +0.000 A 
ATOM     10  N   UNL     1       4.857   5.526  16.029  0.00  0.00    +0.000 NA
ATOM     11  C   UNL     1       4.797   6.537  16.971  0.00  0.00    +0.000 A 
ATOM     12  C   UNL     1       6.060   6.780  17.472  0.00  0.00    +0.000 A 
ATOM     13  N   UNL     1       6.888   5.919  16.809  0.00  0.00    +0.000 N 
ATOM     14  H   UNL     1       7.889   5.841  16.927  0.00  0.00    +0.000 HD
ENDBRANCH   7  11
ENDBRANCH   1   7
BRANCH   5  15
ATOM     15  C   UNL     1       1.023   3.803  20.021  0.00  0.00    +0.000 C 
BRANCH  15  16
ATOM     16  C   UNL     1       1.820   2.540  20.347  0.00  0.00    +0.000 C 
BRANCH  16  17
ATOM     17  N   UNL     1       3.172   2.899  20.796  0.00  0.00    +0.000 NA
ATOM     18  H   UNL     1       3.373   2.751  21.786  0.00  0.00    +0.000 HD
BRANCH  17  19
ATOM     19  S   UNL     1       4.464   2.382  19.853  0.00  0.00    +0.000 S 
ATOM     20  C   UNL     1       3.643   1.541  18.515  0.00  0.00    +0.000 C 
ATOM     21  O   UNL     1       5.090   3.576  19.340  0.00  0.00    +0.000 OA
ATOM     22  O   UNL     1       5.210   1.415  20.629  0.00  0.00    +0.000 OA
ENDBRANCH  17  19
ENDBRANCH  16  17
ENDBRANCH  15  16
ENDBRANCH   5  15
TORSDOF 6
ENDMDL
