MODEL 1
REMARK VINA RESULT:      -7.4      0.000      0.000
REMARK  Name = 
REMARK  0 active torsions:
REMARK  status: ('A' for Active; 'I' for Inactive)
REMARK                            x       y       z     vdW  Elec       q    Type
REMARK                         _______ _______ _______ _____ _____    ______ ____
ROOT
ATOM      1  O   UNL     1       4.193   6.143  17.231  0.00  0.00    +0.000 OA
ATOM      2  C   UNL     1       3.292   5.821  18.002  0.00  0.00    +0.000 C 
ATOM      3  C   UNL     1       2.504   6.882  18.678  0.00  0.00    +0.000 A 
ATOM      4  C   UNL     1       2.222   8.044  17.943  0.00  0.00    +0.000 A 
ATOM      5  C   UNL     1       1.566   9.119  18.544  0.00  0.00    +0.000 A 
ATOM      6  C   UNL     1       1.252   9.070  19.899  0.00  0.00    +0.000 A 
ATOM      7  C   UNL     1       1.559   7.933  20.646  0.00  0.00    +0.000 A 
ATOM      8  C   UNL     1       2.133   6.811  20.031  0.00  0.00    +0.000 A 
ATOM      9  N   UNL     1       2.242   5.667  20.846  0.00  0.00    +0.000 N 
ATOM     10  C   UNL     1       2.021   4.367  20.453  0.00  0.00    +0.000 C 
ATOM     11  S   UNL     1       1.923   3.221  21.673  0.00  0.00    +0.000 S 
ATOM     12  C   UNL     1       1.758   4.095  18.962  0.00  0.00    +0.000 C 
ATOM     13  C   UNL     1       1.524   2.655  18.486  0.00  0.00    +0.000 C 
ATOM     14  C   UNL     1       2.594   2.391  17.423  0.00  0.00    +0.000 C 
ATOM     15  C   UNL     1       3.691   3.384  17.736  0.00  0.00    +0.000 C 
ATOM     16  N   UNL     1       2.964   4.516  18.269  0.00  0.00    +0.000 N 
ATOM     17  H   UNL     1       2.221   5.797  21.854  0.00  0.00    +0.000 HD
ENDROOT
TORSDOF 0
ENDMDL
MODEL 2
REMARK VINA RESULT:      -7.3      2.442      3.885
REMARK  Name = 
REMARK  0 active torsions:
REMARK  status: ('A' for Active; 'I' for Inactive)
REMARK                            x       y       z     vdW  Elec       q    Type
REMARK                         _______ _______ _______ _____ _____    ______ ____
ROOT
ATOM      1  O   UNL     1       5.098   2.808  19.524  0.00  0.00    +0.000 OA
ATOM      2  C   UNL     1       4.257   3.657  19.237  0.00  0.00    +0.000 C 
ATOM      3  C   UNL     1       4.473   4.515  18.045  0.00  0.00    +0.000 A 
ATOM      4  C   UNL     1       5.075   3.921  16.924  0.00  0.00    +0.000 A 
ATOM      5  C   UNL     1       5.391   4.690  15.802  0.00  0.00    +0.000 A 
ATOM      6  C   UNL     1       5.175   6.065  15.819  0.00  0.00    +0.000 A 
ATOM      7  C   UNL     1       4.608   6.668  16.942  0.00  0.00    +0.000 A 
ATOM      8  C   UNL     1       4.200   5.893  18.037  0.00  0.00    +0.000 A 
ATOM      9  N   UNL     1       3.492   6.588  19.037  0.00  0.00    +0.000 N 
ATOM     10  C   UNL     1       2.404   6.117  19.735  0.00  0.00    +0.000 C 
ATOM     11  S   UNL     1       1.559   7.239  20.652  0.00  0.00    +0.000 S 
ATOM     12  C   UNL     1       1.981   4.654  19.520  0.00  0.00    +0.000 C 
ATOM     13  C   UNL     1       0.782   4.091  20.295  0.00  0.00    +0.000 C 
ATOM     14  C   UNL     1       1.319   2.883  21.069  0.00  0.00    +0.000 C 
ATOM     15  C   UNL     1       2.806   3.138  21.184  0.00  0.00    +0.000 C 
ATOM     16  N   UNL     1       3.110   3.852  19.962  0.00  0.00    +0.000 N 
ATOM     17  H   UNL     1       3.599   7.597  19.081  0.00  0.00    +0.000 HD
ENDROOT
TORSDOF 0
ENDMDL
MODEL 3
REMARK VINA RESULT:      -7.0      2.907      3.986
REMARK  Name = 
REMARK  0 active torsions:
REMARK  status: ('A' for Active; 'I' for Inactive)
REMARK                            x       y       z     vdW  Elec       q    Type
REMARK                         _______ _______ _______ _____ _____    ______ ____
ROOT
ATOM      1  O   UNL     1       4.787   5.163  15.452  0.00  0.00    +0.000 OA
ATOM      2  C   UNL     1       4.771   5.084  16.679  0.00  0.00    +0.000 C 
ATOM      3  C   UNL     1       5.876   5.698  17.457  0.00  0.00    +0.000 A 
ATOM      4  C   UNL     1       6.406   6.907  16.980  0.00  0.00    +0.000 A 
ATOM      5  C   UNL     1       7.507   7.494  17.609  0.00  0.00    +0.000 A 
ATOM      6  C   UNL     1       8.127   6.842  18.671  0.00  0.00    +0.000 A 
ATOM      7  C   UNL     1       7.627   5.624  19.130  0.00  0.00    +0.000 A 
ATOM      8  C   UNL     1       6.467   5.072  18.567  0.00  0.00    +0.000 A 
ATOM      9  N   UNL     1       5.965   3.930  19.221  0.00  0.00    +0.000 N 
ATOM     10  C   UNL     1       4.638   3.642  19.442  0.00  0.00    +0.000 C 
ATOM     11  S   UNL     1       4.311   2.380  20.498  0.00  0.00    +0.000 S 
ATOM     12  C   UNL     1       3.580   4.565  18.815  0.00  0.00    +0.000 C 
ATOM     13  C   UNL     1       2.090   4.263  19.028  0.00  0.00    +0.000 C 
ATOM     14  C   UNL     1       1.493   4.114  17.626  0.00  0.00    +0.000 C 
ATOM     15  C   UNL     1       2.672   3.759  16.748  0.00  0.00    +0.000 C 
ATOM     16  N   UNL     1       3.771   4.460  17.379  0.00  0.00    +0.000 N 
ATOM     17  H   UNL     1       6.601   3.401  19.809  0.00  0.00    +0.000 HD
ENDROOT
TORSDOF 0
ENDMDL
MODEL 4
REMARK VINA RESULT:      -6.9      2.750      3.763
REMARK  Name = 
REMARK  0 active torsions:
REMARK  status: ('A' for Active; 'I' for Inactive)
REMARK                            x       y       z     vdW  Elec       q    Type
REMARK                         _______ _______ _______ _____ _____    ______ ____
ROOT
ATOM      1  O   UNL     1       1.591   4.338  17.269  0.00  0.00    +0.000 OA
ATOM      2  C   UNL     1       2.472   4.201  18.115  0.00  0.00    +0.000 C 
ATOM      3  C   UNL     1       3.773   4.889  17.923  0.00  0.00    +0.000 A 
ATOM      4  C   UNL     1       3.747   6.167  17.344  0.00  0.00    +0.000 A 
ATOM      5  C   UNL     1       4.938   6.835  17.050  0.00  0.00    +0.000 A 
ATOM      6  C   UNL     1       6.159   6.201  17.264  0.00  0.00    +0.000 A 
ATOM      7  C   UNL     1       6.193   4.917  17.808  0.00  0.00    +0.000 A 
ATOM      8  C   UNL     1       5.007   4.276  18.194  0.00  0.00    +0.000 A 
ATOM      9  N   UNL     1       5.178   3.058  18.882  0.00  0.00    +0.000 N 
ATOM     10  C   UNL     1       4.436   2.623  19.956  0.00  0.00    +0.000 C 
ATOM     11  S   UNL     1       5.023   1.286  20.781  0.00  0.00    +0.000 S 
ATOM     12  C   UNL     1       3.219   3.460  20.383  0.00  0.00    +0.000 C 
ATOM     13  C   UNL     1       2.359   2.996  21.567  0.00  0.00    +0.000 C 
ATOM     14  C   UNL     1       0.938   2.853  21.016  0.00  0.00    +0.000 C 
ATOM     15  C   UNL     1       1.127   2.663  19.527  0.00  0.00    +0.000 C 
ATOM     16  N   UNL     1       2.313   3.444  19.247  0.00  0.00    +0.000 N 
ATOM     17  H   UNL     1       6.062   2.570  18.773  0.00  0.00    +0.000 HD
ENDROOT
TORSDOF 0
ENDMDL
MODEL 5
REMARK VINA RESULT:      -6.7      3.688      5.310
REMARK  Name = 
REMARK  0 active torsions:
REMARK  status: ('A' for Active; 'I' for Inactive)
REMARK                            x       y       z     vdW  Elec       q    Type
REMARK                         _______ _______ _______ _____ _____    ______ ____
ROOT
ATOM      1  O   UNL     1       5.756   4.381  20.342  0.00  0.00    +0.000 OA
ATOM      2  C   UNL     1       5.444   4.738  19.209  0.00  0.00    +0.000 C 
ATOM      3  C   UNL     1       4.075   4.451  18.711  0.00  0.00    +0.000 A 
ATOM      4  C   UNL     1       3.022   4.536  19.634  0.00  0.00    +0.000 A 
ATOM      5  C   UNL     1       1.722   4.191  19.258  0.00  0.00    +0.000 A 
ATOM      6  C   UNL     1       1.479   3.691  17.982  0.00  0.00    +0.000 A 
ATOM      7  C   UNL     1       2.526   3.571  17.069  0.00  0.00    +0.000 A 
ATOM      8  C   UNL     1       3.817   4.004  17.404  0.00  0.00    +0.000 A 
ATOM      9  N   UNL     1       4.751   3.989  16.349  0.00  0.00    +0.000 N 
ATOM     10  C   UNL     1       5.714   4.941  16.107  0.00  0.00    +0.000 C 
ATOM     11  S   UNL     1       6.500   4.852  14.628  0.00  0.00    +0.000 S 
ATOM     12  C   UNL     1       5.898   6.066  17.138  0.00  0.00    +0.000 C 
ATOM     13  C   UNL     1       6.975   7.135  16.908  0.00  0.00    +0.000 C 
ATOM     14  C   UNL     1       7.885   7.079  18.138  0.00  0.00    +0.000 C 
ATOM     15  C   UNL     1       7.680   5.689  18.697  0.00  0.00    +0.000 C 
ATOM     16  N   UNL     1       6.299   5.406  18.370  0.00  0.00    +0.000 N 
ATOM     17  H   UNL     1       4.556   3.393  15.550  0.00  0.00    +0.000 HD
ENDROOT
TORSDOF 0
ENDMDL
MODEL 6
REMARK VINA RESULT:      -6.6      2.624      4.398
REMARK  Name = 
REMARK  0 active torsions:
REMARK  status: ('A' for Active; 'I' for Inactive)
REMARK                            x       y       z     vdW  Elec       q    Type
REMARK                         _______ _______ _______ _____ _____    ______ ____
ROOT
ATOM      1  O   UNL     1       3.998   2.496  17.323  0.00  0.00    +0.000 OA
ATOM      2  C   UNL     1       3.928   3.575  17.907  0.00  0.00    +0.000 C 
ATOM      3  C   UNL     1       3.304   3.632  19.253  0.00  0.00    +0.000 A 
ATOM      4  C   UNL     1       3.525   2.544  20.112  0.00  0.00    +0.000 A 
ATOM      5  C   UNL     1       2.895   2.486  21.357  0.00  0.00    +0.000 A 
ATOM      6  C   UNL     1       1.987   3.477  21.720  0.00  0.00    +0.000 A 
ATOM      7  C   UNL     1       1.736   4.543  20.858  0.00  0.00    +0.000 A 
ATOM      8  C   UNL     1       2.433   4.661  19.647  0.00  0.00    +0.000 A 
ATOM      9  N   UNL     1       2.219   5.861  18.942  0.00  0.00    +0.000 N 
ATOM     10  C   UNL     1       3.173   6.582  18.261  0.00  0.00    +0.000 C 
ATOM     11  S   UNL     1       2.734   8.121  17.760  0.00  0.00    +0.000 S 
ATOM     12  C   UNL     1       4.581   5.979  18.130  0.00  0.00    +0.000 C 
ATOM     13  C   UNL     1       5.666   6.749  17.363  0.00  0.00    +0.000 C 
ATOM     14  C   UNL     1       6.134   5.807  16.251  0.00  0.00    +0.000 C 
ATOM     15  C   UNL     1       4.979   4.851  16.053  0.00  0.00    +0.000 C 
ATOM     16  N   UNL     1       4.411   4.746  17.380  0.00  0.00    +0.000 N 
ATOM     17  H   UNL     1       1.379   6.392  19.152  0.00  0.00    +0.000 HD
ENDROOT
TORSDOF 0
ENDMDL
MODEL 7
REMARK VINA RESULT:      -6.3      2.924      4.590
REMARK  Name = 
REMARK  0 active torsions:
REMARK  status: ('A' for Active; 'I' for Inactive)
REMARK                            x       y       z     vdW  Elec       q    Type
REMARK                         _______ _______ _______ _____ _____    ______ ____
ROOT
ATOM      1  O   UNL     1       2.335   6.939  18.621  0.00  0.00    +0.000 OA
ATOM      2  C   UNL     1       3.103   6.017  18.354  0.00  0.00    +0.000 C 
ATOM      3  C   UNL     1       2.897   4.695  18.997  0.00  0.00    +0.000 A 
ATOM      4  C   UNL     1       1.572   4.278  19.206  0.00  0.00    +0.000 A 
ATOM      5  C   UNL     1       1.304   3.089  19.887  0.00  0.00    +0.000 A 
ATOM      6  C   UNL     1       2.351   2.347  20.426  0.00  0.00    +0.000 A 
ATOM      7  C   UNL     1       3.668   2.772  20.253  0.00  0.00    +0.000 A 
ATOM      8  C   UNL     1       3.955   3.913  19.490  0.00  0.00    +0.000 A 
ATOM      9  N   UNL     1       5.322   4.147  19.246  0.00  0.00    +0.000 N 
ATOM     10  C   UNL     1       5.868   4.602  18.068  0.00  0.00    +0.000 C 
ATOM     11  S   UNL     1       7.538   4.513  17.932  0.00  0.00    +0.000 S 
ATOM     12  C   UNL     1       4.913   5.027  16.941  0.00  0.00    +0.000 C 
ATOM     13  C   UNL     1       5.487   5.554  15.619  0.00  0.00    +0.000 C 
ATOM     14  C   UNL     1       4.889   6.952  15.435  0.00  0.00    +0.000 C 
ATOM     15  C   UNL     1       4.508   7.387  16.833  0.00  0.00    +0.000 C 
ATOM     16  N   UNL     1       4.148   6.141  17.476  0.00  0.00    +0.000 N 
ATOM     17  H   UNL     1       5.997   3.712  19.868  0.00  0.00    +0.000 HD
ENDROOT
TORSDOF 0
ENDMDL
MODEL 8
REMARK VINA RESULT:      -6.3      2.430      4.078
REMARK  Name = 
REMARK  0 active torsions:
REMARK  status: ('A' for Active; 'I' for Inactive)
REMARK                            x       y       z     vdW  Elec       q    Type
REMARK                         _______ _______ _______ _____ _____    ______ ____
ROOT
ATOM      1  O   UNL     1       2.376   6.662  17.904  0.00  0.00    +0.000 OA
ATOM      2  C   UNL     1       3.109   5.733  18.237  0.00  0.00    +0.000 C 
ATOM      3  C   UNL     1       4.517   5.720  17.769  0.00  0.00    +0.000 A 
ATOM      4  C   UNL     1       5.181   6.954  17.685  0.00  0.00    +0.000 A 
ATOM      5  C   UNL     1       6.475   7.027  17.166  0.00  0.00    +0.000 A 
ATOM      6  C   UNL     1       7.086   5.882  16.663  0.00  0.00    +0.000 A 
ATOM      7  C   UNL     1       6.421   4.658  16.712  0.00  0.00    +0.000 A 
ATOM      8  C   UNL     1       5.159   4.556  17.316  0.00  0.00    +0.000 A 
ATOM      9  N   UNL     1       4.662   3.245  17.455  0.00  0.00    +0.000 N 
ATOM     10  C   UNL     1       3.973   2.751  18.538  0.00  0.00    +0.000 C 
ATOM     11  S   UNL     1       3.752   1.089  18.591  0.00  0.00    +0.000 S 
ATOM     12  C   UNL     1       3.581   3.730  19.657  0.00  0.00    +0.000 C 
ATOM     13  C   UNL     1       2.798   3.216  20.873  0.00  0.00    +0.000 C 
ATOM     14  C   UNL     1       1.514   4.049  20.921  0.00  0.00    +0.000 C 
ATOM     15  C   UNL     1       1.333   4.548  19.505  0.00  0.00    +0.000 C 
ATOM     16  N   UNL     1       2.694   4.699  19.036  0.00  0.00    +0.000 N 
ATOM     17  H   UNL     1       5.049   2.523  16.853  0.00  0.00    +0.000 HD
ENDROOT
TORSDOF 0
ENDMDL
MODEL 9
REMARK VINA RESULT:      -6.3      2.304      4.431
REMARK  Name = 
REMARK  0 active torsions:
REMARK  status: ('A' for Active; 'I' for Inactive)
REMARK                            x       y       z     vdW  Elec       q    Type
REMARK                         _______ _______ _______ _____ _____    ______ ____
ROOT
ATOM      1  O   UNL     1       3.503   7.689  17.621  0.00  0.00    +0.000 OA
ATOM      2  C   UNL     1       3.734   6.517  17.910  0.00  0.00    +0.000 C 
ATOM      3  C   UNL     1       4.897   5.834  17.289  0.00  0.00    +0.000 A 
ATOM      4  C   UNL     1       6.056   6.598  17.079  0.00  0.00    +0.000 A 
ATOM      5  C   UNL     1       7.156   6.047  16.417  0.00  0.00    +0.000 A 
ATOM      6  C   UNL     1       7.078   4.758  15.899  0.00  0.00    +0.000 A 
ATOM      7  C   UNL     1       5.918   4.004  16.074  0.00  0.00    +0.000 A 
ATOM      8  C   UNL     1       4.844   4.512  16.818  0.00  0.00    +0.000 A 
ATOM      9  N   UNL     1       3.799   3.601  17.068  0.00  0.00    +0.000 N 
ATOM     10  C   UNL     1       3.091   3.482  18.242  0.00  0.00    +0.000 C 
ATOM     11  S   UNL     1       2.108   2.131  18.391  0.00  0.00    +0.000 S 
ATOM     12  C   UNL     1       3.352   4.511  19.354  0.00  0.00    +0.000 C 
ATOM     13  C   UNL     1       2.568   4.419  20.670  0.00  0.00    +0.000 C 
ATOM     14  C   UNL     1       1.857   5.766  20.825  0.00  0.00    +0.000 C 
ATOM     15  C   UNL     1       1.771   6.312  19.417  0.00  0.00    +0.000 C 
ATOM     16  N   UNL     1       2.972   5.797  18.794  0.00  0.00    +0.000 N 
ATOM     17  H   UNL     1       3.719   2.791  16.459  0.00  0.00    +0.000 HD
ENDROOT
TORSDOF 0
ENDMDL
