MODEL 1
REMARK VINA RESULT:      -7.3      0.000      0.000
REMARK  Name = 
REMARK  16 active torsions:
REMARK  status: ('A' for Active; 'I' for Inactive)
REMARK    1  A    between atoms: C_1  and  C_2
REMARK    2  A    between atoms: C_2  and  C_3
REMARK    3  A    between atoms: C_3  and  C_4
REMARK    4  A    between atoms: C_4  and  C_5
REMARK    5  A    between atoms: C_5  and  C_6
REMARK    6  A    between atoms: C_6  and  O_7
REMARK    7  A    between atoms: C_6  and  C_8
REMARK    8  A    between atoms: C_9  and  C_10
REMARK    9  A    between atoms: C_11  and  O_12
REMARK   10  A    between atoms: C_16  and  C_17
REMARK   11  A    between atoms: C_17  and  C_18
REMARK   12  A    between atoms: C_19  and  C_20
REMARK   13  A    between atoms: C_20  and  C_21
REMARK   14  A    between atoms: C_21  and  C_22
REMARK   15  A    between atoms: C_22  and  C_23
REMARK   16  A    between atoms: C_23  and  O_25
REMARK                            x       y       z     vdW  Elec       q    Type
REMARK                         _______ _______ _______ _____ _____    ______ ____
ROOT
ATOM      1  C   UNL     1       6.886   4.442  18.627  0.00  0.00    +0.000 C 
ATOM      2  C   UNL     1       7.976   5.338  19.266  0.00  0.00    +0.000 C 
ATOM      3  C   UNL     1       7.797   6.708  18.634  0.00  0.00    +0.000 C 
ATOM      4  C   UNL     1       7.307   6.342  17.262  0.00  0.00    +0.000 C 
ATOM      5  O   UNL     1       7.244   7.159  16.348  0.00  0.00    +0.000 OA
ATOM      6  C   UNL     1       6.944   4.865  17.140  0.00  0.00    +0.000 C 
ENDROOT
BRANCH   1   8
ATOM      7  C   UNL     1       4.662   3.615  19.518  0.00  0.00    +0.000 C 
ATOM      8  C   UNL     1       5.534   4.616  19.294  0.00  0.00    +0.000 C 
BRANCH   7   9
ATOM      9  C   UNL     1       3.424   3.815  20.344  0.00  0.00    +0.000 C 
BRANCH   9  10
ATOM     10  C   UNL     1       2.104   4.088  19.584  0.00  0.00    +0.000 C 
ATOM     11  C   UNL     1       0.946   3.033  19.669  0.00  0.00    +0.000 C 
ATOM     12  C   UNL     1       1.371   2.490  18.294  0.00  0.00    +0.000 C 
ATOM     13  C   UNL     1       2.121   3.809  18.044  0.00  0.00    +0.000 C 
BRANCH  10  14
ATOM     14  C   UNL     1       1.562   5.511  19.917  0.00  0.00    +0.000 C 
BRANCH  14  15
ATOM     15  C   UNL     1       2.647   6.578  19.748  0.00  0.00    +0.000 C 
BRANCH  15  17
ATOM     16  C   UNL     1       3.613   7.364  17.592  0.00  0.00    +0.000 C 
ATOM     17  C   UNL     1       2.425   7.480  18.538  0.00  0.00    +0.000 C 
ENDBRANCH  15  17
ENDBRANCH  14  15
ENDBRANCH  10  14
ENDBRANCH   9  10
BRANCH   9  18
ATOM     18  O   UNL     1       3.280   2.645  21.141  0.00  0.00    +0.000 OA
ATOM     19  H   UNL     1       4.035   2.061  20.948  0.00  0.00    +0.000 HD
ENDBRANCH   9  18
ENDBRANCH   7   9
ENDBRANCH   1   8
BRANCH   2  20
ATOM     20  O   UNL     1       7.930   5.395  20.683  0.00  0.00    +0.000 OA
ATOM     21  H   UNL     1       7.655   6.287  20.959  0.00  0.00    +0.000 HD
ENDBRANCH   2  20
BRANCH   6  22
ATOM     22  C   UNL     1       5.670   4.591  16.340  0.00  0.00    +0.000 C 
BRANCH  22  23
ATOM     23  C   UNL     1       5.539   5.449  15.107  0.00  0.00    +0.000 C 
ATOM     24  C   UNL     1       5.676   5.069  13.828  0.00  0.00    +0.000 C 
BRANCH  24  25
ATOM     25  C   UNL     1       6.052   3.700  13.344  0.00  0.00    +0.000 C 
BRANCH  25  26
ATOM     26  C   UNL     1       5.709   3.468  11.872  0.00  0.00    +0.000 C 
BRANCH  26  27
ATOM     27  C   UNL     1       5.379   2.008  11.563  0.00  0.00    +0.000 C 
BRANCH  27  28
ATOM     28  C   UNL     1       6.613   1.226  11.168  0.00  0.00    +0.000 C 
ATOM     29  O   UNL     1       7.682   1.710  10.854  0.00  0.00    +0.000 OA
BRANCH  28  30
ATOM     30  O   UNL     1       6.395  -0.109  11.188  0.00  0.00    +0.000 OA
ATOM     31  H   UNL     1       7.203  -0.637  11.339  0.00  0.00    +0.000 HD
ENDBRANCH  28  30
ENDBRANCH  27  28
ENDBRANCH  26  27
ENDBRANCH  25  26
ENDBRANCH  24  25
ENDBRANCH  22  23
ENDBRANCH   6  22
TORSDOF 15
ENDMDL
MODEL 2
REMARK VINA RESULT:      -7.2      3.058      7.685
REMARK  Name = 
REMARK  16 active torsions:
REMARK  status: ('A' for Active; 'I' for Inactive)
REMARK    1  A    between atoms: C_1  and  C_2
REMARK    2  A    between atoms: C_2  and  C_3
REMARK    3  A    between atoms: C_3  and  C_4
REMARK    4  A    between atoms: C_4  and  C_5
REMARK    5  A    between atoms: C_5  and  C_6
REMARK    6  A    between atoms: C_6  and  O_7
REMARK    7  A    between atoms: C_6  and  C_8
REMARK    8  A    between atoms: C_9  and  C_10
REMARK    9  A    between atoms: C_11  and  O_12
REMARK   10  A    between atoms: C_16  and  C_17
REMARK   11  A    between atoms: C_17  and  C_18
REMARK   12  A    between atoms: C_19  and  C_20
REMARK   13  A    between atoms: C_20  and  C_21
REMARK   14  A    between atoms: C_21  and  C_22
REMARK   15  A    between atoms: C_22  and  C_23
REMARK   16  A    between atoms: C_23  and  O_25
REMARK                            x       y       z     vdW  Elec       q    Type
REMARK                         _______ _______ _______ _____ _____    ______ ____
ROOT
ATOM      1  C   UNL     1       3.975   3.688  19.788  0.00  0.00    +0.000 C 
ATOM      2  C   UNL     1       3.955   2.140  19.852  0.00  0.00    +0.000 C 
ATOM      3  C   UNL     1       3.271   1.691  18.571  0.00  0.00    +0.000 C 
ATOM      4  C   UNL     1       2.305   2.818  18.339  0.00  0.00    +0.000 C 
ATOM      5  O   UNL     1       1.399   2.744  17.514  0.00  0.00    +0.000 OA
ATOM      6  C   UNL     1       2.561   4.013  19.252  0.00  0.00    +0.000 C 
ENDROOT
BRANCH   1   8
ATOM      7  C   UNL     1       6.065   5.067  19.390  0.00  0.00    +0.000 C 
ATOM      8  C   UNL     1       5.121   4.215  18.945  0.00  0.00    +0.000 C 
BRANCH   7   9
ATOM      9  C   UNL     1       7.273   5.408  18.567  0.00  0.00    +0.000 C 
BRANCH   9  10
ATOM     10  C   UNL     1       7.049   6.280  17.309  0.00  0.00    +0.000 C 
ATOM     11  C   UNL     1       7.954   7.541  17.087  0.00  0.00    +0.000 C 
ATOM     12  C   UNL     1       6.820   8.424  17.634  0.00  0.00    +0.000 C 
ATOM     13  C   UNL     1       5.839   7.272  17.361  0.00  0.00    +0.000 C 
BRANCH  10  14
ATOM     14  C   UNL     1       7.028   5.397  16.024  0.00  0.00    +0.000 C 
BRANCH  14  15
ATOM     15  C   UNL     1       5.610   5.252  15.466  0.00  0.00    +0.000 C 
BRANCH  15  17
ATOM     16  C   UNL     1       6.790   4.239  13.522  0.00  0.00    +0.000 C 
ATOM     17  C   UNL     1       5.504   4.230  14.338  0.00  0.00    +0.000 C 
ENDBRANCH  15  17
ENDBRANCH  14  15
ENDBRANCH  10  14
ENDBRANCH   9  10
BRANCH   9  18
ATOM     18  O   UNL     1       8.183   6.064  19.444  0.00  0.00    +0.000 OA
ATOM     19  H   UNL     1       7.663   6.467  20.161  0.00  0.00    +0.000 HD
ENDBRANCH   9  18
ENDBRANCH   7   9
ENDBRANCH   1   8
BRANCH   2  20
ATOM     20  O   UNL     1       5.233   1.545  20.011  0.00  0.00    +0.000 OA
ATOM     21  H   UNL     1       5.147   0.738  20.549  0.00  0.00    +0.000 HD
ENDBRANCH   2  20
BRANCH   6  22
ATOM     22  C   UNL     1       2.426   5.373  18.566  0.00  0.00    +0.000 C 
BRANCH  22  23
ATOM     23  C   UNL     1       2.343   6.526  19.532  0.00  0.00    +0.000 C 
ATOM     24  C   UNL     1       2.248   7.833  19.241  0.00  0.00    +0.000 C 
BRANCH  24  25
ATOM     25  C   UNL     1       2.263   8.438  17.869  0.00  0.00    +0.000 C 
BRANCH  25  26
ATOM     26  C   UNL     1       1.700   9.860  17.834  0.00  0.00    +0.000 C 
BRANCH  26  27
ATOM     27  C   UNL     1       0.733  10.144  18.983  0.00  0.00    +0.000 C 
BRANCH  27  28
ATOM     28  C   UNL     1      -0.690  10.296  18.492  0.00  0.00    +0.000 C 
ATOM     29  O   UNL     1      -1.115   9.890  17.429  0.00  0.00    +0.000 OA
BRANCH  28  30
ATOM     30  O   UNL     1      -1.464  10.963  19.379  0.00  0.00    +0.000 OA
ATOM     31  H   UNL     1      -2.175  10.418  19.768  0.00  0.00    +0.000 HD
ENDBRANCH  28  30
ENDBRANCH  27  28
ENDBRANCH  26  27
ENDBRANCH  25  26
ENDBRANCH  24  25
ENDBRANCH  22  23
ENDBRANCH   6  22
TORSDOF 15
ENDMDL
MODEL 3
REMARK VINA RESULT:      -7.1      3.013      7.930
REMARK  Name = 
REMARK  16 active torsions:
REMARK  status: ('A' for Active; 'I' for Inactive)
REMARK    1  A    between atoms: C_1  and  C_2
REMARK    2  A    between atoms: C_2  and  C_3
REMARK    3  A    between atoms: C_3  and  C_4
REMARK    4  A    between atoms: C_4  and  C_5
REMARK    5  A    between atoms: C_5  and  C_6
REMARK    6  A    between atoms: C_6  and  O_7
REMARK    7  A    between atoms: C_6  and  C_8
REMARK    8  A    between atoms: C_9  and  C_10
REMARK    9  A    between atoms: C_11  and  O_12
REMARK   10  A    between atoms: C_16  and  C_17
REMARK   11  A    between atoms: C_17  and  C_18
REMARK   12  A    between atoms: C_19  and  C_20
REMARK   13  A    between atoms: C_20  and  C_21
REMARK   14  A    between atoms: C_21  and  C_22
REMARK   15  A    between atoms: C_22  and  C_23
REMARK   16  A    between atoms: C_23  and  O_25
REMARK                            x       y       z     vdW  Elec       q    Type
REMARK                         _______ _______ _______ _____ _____    ______ ____
ROOT
ATOM      1  C   UNL     1       3.875   3.414  19.568  0.00  0.00    +0.000 C 
ATOM      2  C   UNL     1       3.666   1.901  19.825  0.00  0.00    +0.000 C 
ATOM      3  C   UNL     1       2.504   1.495  18.932  0.00  0.00    +0.000 C 
ATOM      4  C   UNL     1       1.686   2.755  18.918  0.00  0.00    +0.000 C 
ATOM      5  O   UNL     1       0.540   2.787  18.480  0.00  0.00    +0.000 OA
ATOM      6  C   UNL     1       2.422   3.944  19.528  0.00  0.00    +0.000 C 
ENDROOT
BRANCH   1   8
ATOM      7  C   UNL     1       5.920   4.232  18.313  0.00  0.00    +0.000 C 
ATOM      8  C   UNL     1       4.692   3.679  18.317  0.00  0.00    +0.000 C 
BRANCH   7   9
ATOM      9  C   UNL     1       6.752   4.300  17.065  0.00  0.00    +0.000 C 
BRANCH   9  10
ATOM     10  C   UNL     1       6.623   5.575  16.198  0.00  0.00    +0.000 C 
ATOM     11  C   UNL     1       7.401   6.868  16.627  0.00  0.00    +0.000 C 
ATOM     12  C   UNL     1       6.101   7.418  17.240  0.00  0.00    +0.000 C 
ATOM     13  C   UNL     1       5.313   6.411  16.386  0.00  0.00    +0.000 C 
BRANCH  10  14
ATOM     14  C   UNL     1       6.902   5.251  14.699  0.00  0.00    +0.000 C 
BRANCH  14  15
ATOM     15  C   UNL     1       6.196   3.963  14.263  0.00  0.00    +0.000 C 
BRANCH  15  17
ATOM     16  C   UNL     1       4.981   3.570  12.126  0.00  0.00    +0.000 C 
ATOM     17  C   UNL     1       6.355   3.660  12.776  0.00  0.00    +0.000 C 
ENDBRANCH  15  17
ENDBRANCH  14  15
ENDBRANCH  10  14
ENDBRANCH   9  10
BRANCH   9  18
ATOM     18  O   UNL     1       8.106   4.140  17.477  0.00  0.00    +0.000 OA
ATOM     19  H   UNL     1       8.372   4.955  17.937  0.00  0.00    +0.000 HD
ENDBRANCH   9  18
ENDBRANCH   7   9
ENDBRANCH   1   8
BRANCH   2  20
ATOM     20  O   UNL     1       4.818   1.104  19.595  0.00  0.00    +0.000 OA
ATOM     21  H   UNL     1       5.609   1.672  19.609  0.00  0.00    +0.000 HD
ENDBRANCH   2  20
BRANCH   6  22
ATOM     22  C   UNL     1       2.235   5.260  18.771  0.00  0.00    +0.000 C 
BRANCH  22  23
ATOM     23  C   UNL     1       2.386   6.480  19.643  0.00  0.00    +0.000 C 
ATOM     24  C   UNL     1       2.354   7.766  19.262  0.00  0.00    +0.000 C 
BRANCH  24  25
ATOM     25  C   UNL     1       2.216   8.272  17.857  0.00  0.00    +0.000 C 
BRANCH  25  26
ATOM     26  C   UNL     1       1.719   9.717  17.785  0.00  0.00    +0.000 C 
BRANCH  26  27
ATOM     27  C   UNL     1       1.237  10.247  19.135  0.00  0.00    +0.000 C 
BRANCH  27  28
ATOM     28  C   UNL     1      -0.210  10.689  19.079  0.00  0.00    +0.000 C 
ATOM     29  O   UNL     1      -1.001  10.625  19.998  0.00  0.00    +0.000 OA
BRANCH  28  30
ATOM     30  O   UNL     1      -0.547  11.164  17.858  0.00  0.00    +0.000 OA
ATOM     31  H   UNL     1      -1.074  10.538  17.325  0.00  0.00    +0.000 HD
ENDBRANCH  28  30
ENDBRANCH  27  28
ENDBRANCH  26  27
ENDBRANCH  25  26
ENDBRANCH  24  25
ENDBRANCH  22  23
ENDBRANCH   6  22
TORSDOF 15
ENDMDL
MODEL 4
REMARK VINA RESULT:      -7.1      1.364      2.568
REMARK  Name = 
REMARK  16 active torsions:
REMARK  status: ('A' for Active; 'I' for Inactive)
REMARK    1  A    between atoms: C_1  and  C_2
REMARK    2  A    between atoms: C_2  and  C_3
REMARK    3  A    between atoms: C_3  and  C_4
REMARK    4  A    between atoms: C_4  and  C_5
REMARK    5  A    between atoms: C_5  and  C_6
REMARK    6  A    between atoms: C_6  and  O_7
REMARK    7  A    between atoms: C_6  and  C_8
REMARK    8  A    between atoms: C_9  and  C_10
REMARK    9  A    between atoms: C_11  and  O_12
REMARK   10  A    between atoms: C_16  and  C_17
REMARK   11  A    between atoms: C_17  and  C_18
REMARK   12  A    between atoms: C_19  and  C_20
REMARK   13  A    between atoms: C_20  and  C_21
REMARK   14  A    between atoms: C_21  and  C_22
REMARK   15  A    between atoms: C_22  and  C_23
REMARK   16  A    between atoms: C_23  and  O_25
REMARK                            x       y       z     vdW  Elec       q    Type
REMARK                         _______ _______ _______ _____ _____    ______ ____
ROOT
ATOM      1  C   UNL     1       6.832   5.299  18.314  0.00  0.00    +0.000 C 
ATOM      2  C   UNL     1       8.071   5.706  19.150  0.00  0.00    +0.000 C 
ATOM      3  C   UNL     1       8.215   7.207  18.955  0.00  0.00    +0.000 C 
ATOM      4  C   UNL     1       7.701   7.376  17.554  0.00  0.00    +0.000 C 
ATOM      5  O   UNL     1       7.847   8.419  16.924  0.00  0.00    +0.000 OA
ATOM      6  C   UNL     1       7.028   6.117  17.016  0.00  0.00    +0.000 C 
ENDROOT
BRANCH   1   8
ATOM      7  C   UNL     1       4.649   4.602  19.397  0.00  0.00    +0.000 C 
ATOM      8  C   UNL     1       5.530   5.559  19.049  0.00  0.00    +0.000 C 
BRANCH   7   9
ATOM      9  C   UNL     1       3.471   4.895  20.281  0.00  0.00    +0.000 C 
BRANCH   9  10
ATOM     10  C   UNL     1       2.295   5.680  19.654  0.00  0.00    +0.000 C 
ATOM     11  C   UNL     1       2.280   7.245  19.764  0.00  0.00    +0.000 C 
ATOM     12  C   UNL     1       1.292   7.130  20.938  0.00  0.00    +0.000 C 
ATOM     13  C   UNL     1       0.961   5.702  20.475  0.00  0.00    +0.000 C 
BRANCH  10  14
ATOM     14  C   UNL     1       2.066   5.241  18.176  0.00  0.00    +0.000 C 
BRANCH  14  15
ATOM     15  C   UNL     1       1.524   3.812  18.092  0.00  0.00    +0.000 C 
BRANCH  15  17
ATOM     16  C   UNL     1       2.961   1.780  18.023  0.00  0.00    +0.000 C 
ATOM     17  C   UNL     1       2.352   2.902  17.192  0.00  0.00    +0.000 C 
ENDBRANCH  15  17
ENDBRANCH  14  15
ENDBRANCH  10  14
ENDBRANCH   9  10
BRANCH   9  18
ATOM     18  O   UNL     1       3.004   3.638  20.757  0.00  0.00    +0.000 OA
ATOM     19  H   UNL     1       2.059   3.735  20.970  0.00  0.00    +0.000 HD
ENDBRANCH   9  18
ENDBRANCH   7   9
ENDBRANCH   1   8
BRANCH   2  20
ATOM     20  O   UNL     1       7.993   5.352  20.522  0.00  0.00    +0.000 OA
ATOM     21  H   UNL     1       8.435   6.037  21.056  0.00  0.00    +0.000 HD
ENDBRANCH   2  20
BRANCH   6  22
ATOM     22  C   UNL     1       5.751   6.375  16.215  0.00  0.00    +0.000 C 
BRANCH  22  23
ATOM     23  C   UNL     1       4.974   5.122  15.904  0.00  0.00    +0.000 C 
ATOM     24  C   UNL     1       5.369   4.078  15.159  0.00  0.00    +0.000 C 
BRANCH  24  25
ATOM     25  C   UNL     1       6.666   3.959  14.416  0.00  0.00    +0.000 C 
BRANCH  25  26
ATOM     26  C   UNL     1       6.494   3.996  12.897  0.00  0.00    +0.000 C 
BRANCH  26  27
ATOM     27  C   UNL     1       5.031   3.913  12.463  0.00  0.00    +0.000 C 
BRANCH  27  28
ATOM     28  C   UNL     1       4.792   2.757  11.516  0.00  0.00    +0.000 C 
ATOM     29  O   UNL     1       5.548   1.823  11.342  0.00  0.00    +0.000 OA
BRANCH  28  30
ATOM     30  O   UNL     1       3.619   2.880  10.852  0.00  0.00    +0.000 OA
ATOM     31  H   UNL     1       2.940   3.380  11.344  0.00  0.00    +0.000 HD
ENDBRANCH  28  30
ENDBRANCH  27  28
ENDBRANCH  26  27
ENDBRANCH  25  26
ENDBRANCH  24  25
ENDBRANCH  22  23
ENDBRANCH   6  22
TORSDOF 15
ENDMDL
MODEL 5
REMARK VINA RESULT:      -7.1      2.689      6.746
REMARK  Name = 
REMARK  16 active torsions:
REMARK  status: ('A' for Active; 'I' for Inactive)
REMARK    1  A    between atoms: C_1  and  C_2
REMARK    2  A    between atoms: C_2  and  C_3
REMARK    3  A    between atoms: C_3  and  C_4
REMARK    4  A    between atoms: C_4  and  C_5
REMARK    5  A    between atoms: C_5  and  C_6
REMARK    6  A    between atoms: C_6  and  O_7
REMARK    7  A    between atoms: C_6  and  C_8
REMARK    8  A    between atoms: C_9  and  C_10
REMARK    9  A    between atoms: C_11  and  O_12
REMARK   10  A    between atoms: C_16  and  C_17
REMARK   11  A    between atoms: C_17  and  C_18
REMARK   12  A    between atoms: C_19  and  C_20
REMARK   13  A    between atoms: C_20  and  C_21
REMARK   14  A    between atoms: C_21  and  C_22
REMARK   15  A    between atoms: C_22  and  C_23
REMARK   16  A    between atoms: C_23  and  O_25
REMARK                            x       y       z     vdW  Elec       q    Type
REMARK                         _______ _______ _______ _____ _____    ______ ____
ROOT
ATOM      1  C   UNL     1       2.007   7.608  18.174  0.00  0.00    +0.000 C 
ATOM      2  C   UNL     1       1.414   9.038  18.238  0.00  0.00    +0.000 C 
ATOM      3  C   UNL     1       1.633   9.503  19.669  0.00  0.00    +0.000 C 
ATOM      4  C   UNL     1       1.525   8.208  20.422  0.00  0.00    +0.000 C 
ATOM      5  O   UNL     1       1.427   8.167  21.645  0.00  0.00    +0.000 OA
ATOM      6  C   UNL     1       1.517   6.989  19.504  0.00  0.00    +0.000 C 
ENDROOT
BRANCH   1   8
ATOM      7  C   UNL     1       4.191   6.716  17.246  0.00  0.00    +0.000 C 
ATOM      8  C   UNL     1       3.513   7.617  17.983  0.00  0.00    +0.000 C 
BRANCH   7   9
ATOM      9  C   UNL     1       5.653   6.881  16.945  0.00  0.00    +0.000 C 
BRANCH   9  10
ATOM     10  C   UNL     1       6.601   5.747  17.398  0.00  0.00    +0.000 C 
ATOM     11  C   UNL     1       6.139   4.782  18.545  0.00  0.00    +0.000 C 
ATOM     12  C   UNL     1       6.989   5.592  19.539  0.00  0.00    +0.000 C 
ATOM     13  C   UNL     1       7.775   6.162  18.347  0.00  0.00    +0.000 C 
BRANCH  10  14
ATOM     14  C   UNL     1       7.102   4.925  16.171  0.00  0.00    +0.000 C 
BRANCH  14  15
ATOM     15  C   UNL     1       6.085   3.857  15.759  0.00  0.00    +0.000 C 
BRANCH  15  17
ATOM     16  C   UNL     1       6.903   4.643  13.543  0.00  0.00    +0.000 C 
ATOM     17  C   UNL     1       5.875   3.772  14.251  0.00  0.00    +0.000 C 
ENDBRANCH  15  17
ENDBRANCH  14  15
ENDBRANCH  10  14
ENDBRANCH   9  10
BRANCH   9  18
ATOM     18  O   UNL     1       5.754   7.052  15.535  0.00  0.00    +0.000 OA
ATOM     19  H   UNL     1       6.080   7.953  15.370  0.00  0.00    +0.000 HD
ENDBRANCH   9  18
ENDBRANCH   7   9
ENDBRANCH   1   8
BRANCH   2  20
ATOM     20  O   UNL     1       1.966   9.943  17.294  0.00  0.00    +0.000 OA
ATOM     21  H   UNL     1       1.352  10.689  17.169  0.00  0.00    +0.000 HD
ENDBRANCH   2  20
BRANCH   6  22
ATOM     22  C   UNL     1       2.346   5.809  20.012  0.00  0.00    +0.000 C 
BRANCH  22  23
ATOM     23  C   UNL     1       1.542   4.803  20.794  0.00  0.00    +0.000 C 
ATOM     24  C   UNL     1       1.064   3.625  20.363  0.00  0.00    +0.000 C 
BRANCH  24  25
ATOM     25  C   UNL     1       1.180   3.076  18.973  0.00  0.00    +0.000 C 
BRANCH  25  26
ATOM     26  C   UNL     1       2.352   3.668  18.189  0.00  0.00    +0.000 C 
BRANCH  26  27
ATOM     27  C   UNL     1       3.315   2.602  17.667  0.00  0.00    +0.000 C 
BRANCH  27  28
ATOM     28  C   UNL     1       3.909   1.784  18.793  0.00  0.00    +0.000 C 
ATOM     29  O   UNL     1       4.305   2.228  19.852  0.00  0.00    +0.000 OA
BRANCH  28  30
ATOM     30  O   UNL     1       3.969   0.468  18.487  0.00  0.00    +0.000 OA
ATOM     31  H   UNL     1       4.878   0.135  18.359  0.00  0.00    +0.000 HD
ENDBRANCH  28  30
ENDBRANCH  27  28
ENDBRANCH  26  27
ENDBRANCH  25  26
ENDBRANCH  24  25
ENDBRANCH  22  23
ENDBRANCH   6  22
TORSDOF 15
ENDMDL
MODEL 6
REMARK VINA RESULT:      -7.0      3.075      6.809
REMARK  Name = 
REMARK  16 active torsions:
REMARK  status: ('A' for Active; 'I' for Inactive)
REMARK    1  A    between atoms: C_1  and  C_2
REMARK    2  A    between atoms: C_2  and  C_3
REMARK    3  A    between atoms: C_3  and  C_4
REMARK    4  A    between atoms: C_4  and  C_5
REMARK    5  A    between atoms: C_5  and  C_6
REMARK    6  A    between atoms: C_6  and  O_7
REMARK    7  A    between atoms: C_6  and  C_8
REMARK    8  A    between atoms: C_9  and  C_10
REMARK    9  A    between atoms: C_11  and  O_12
REMARK   10  A    between atoms: C_16  and  C_17
REMARK   11  A    between atoms: C_17  and  C_18
REMARK   12  A    between atoms: C_19  and  C_20
REMARK   13  A    between atoms: C_20  and  C_21
REMARK   14  A    between atoms: C_21  and  C_22
REMARK   15  A    between atoms: C_22  and  C_23
REMARK   16  A    between atoms: C_23  and  O_25
REMARK                            x       y       z     vdW  Elec       q    Type
REMARK                         _______ _______ _______ _____ _____    ______ ____
ROOT
ATOM      1  C   UNL     1       4.548   6.310  18.028  0.00  0.00    +0.000 C 
ATOM      2  C   UNL     1       5.939   6.599  17.408  0.00  0.00    +0.000 C 
ATOM      3  C   UNL     1       5.868   6.065  15.987  0.00  0.00    +0.000 C 
ATOM      4  C   UNL     1       4.932   4.901  16.153  0.00  0.00    +0.000 C 
ATOM      5  O   UNL     1       4.774   4.057  15.275  0.00  0.00    +0.000 OA
ATOM      6  C   UNL     1       4.253   4.880  17.519  0.00  0.00    +0.000 C 
ENDROOT
BRANCH   1   8
ATOM      7  C   UNL     1       2.433   7.661  18.381  0.00  0.00    +0.000 C 
ATOM      8  C   UNL     1       3.518   7.356  17.644  0.00  0.00    +0.000 C 
BRANCH   7   9
ATOM      9  C   UNL     1       1.551   8.828  18.042  0.00  0.00    +0.000 C 
BRANCH   9  10
ATOM     10  C   UNL     1       0.883   9.575  19.221  0.00  0.00    +0.000 C 
ATOM     11  C   UNL     1      -0.622   9.999  19.097  0.00  0.00    +0.000 C 
ATOM     12  C   UNL     1      -0.168  11.424  18.737  0.00  0.00    +0.000 C 
ATOM     13  C   UNL     1       1.206  11.102  19.345  0.00  0.00    +0.000 C 
BRANCH  10  14
ATOM     14  C   UNL     1       1.121   8.814  20.560  0.00  0.00    +0.000 C 
BRANCH  14  15
ATOM     15  C   UNL     1      -0.122   8.848  21.453  0.00  0.00    +0.000 C 
BRANCH  15  17
ATOM     16  C   UNL     1      -0.971  10.620  22.982  0.00  0.00    +0.000 C 
ATOM     17  C   UNL     1       0.106   9.562  22.782  0.00  0.00    +0.000 C 
ENDBRANCH  15  17
ENDBRANCH  14  15
ENDBRANCH  10  14
ENDBRANCH   9  10
BRANCH   9  18
ATOM     18  O   UNL     1       2.356   9.737  17.299  0.00  0.00    +0.000 OA
ATOM     19  H   UNL     1       2.172   9.589  16.355  0.00  0.00    +0.000 HD
ENDBRANCH   9  18
ENDBRANCH   7   9
ENDBRANCH   1   8
BRANCH   2  20
ATOM     20  O   UNL     1       6.323   7.965  17.445  0.00  0.00    +0.000 OA
ATOM     21  H   UNL     1       5.553   8.508  17.690  0.00  0.00    +0.000 HD
ENDBRANCH   2  20
BRANCH   6  22
ATOM     22  C   UNL     1       2.773   4.499  17.483  0.00  0.00    +0.000 C 
BRANCH  22  23
ATOM     23  C   UNL     1       2.537   3.020  17.314  0.00  0.00    +0.000 C 
ATOM     24  C   UNL     1       2.735   2.051  18.221  0.00  0.00    +0.000 C 
BRANCH  24  25
ATOM     25  C   UNL     1       3.298   2.229  19.600  0.00  0.00    +0.000 C 
BRANCH  25  26
ATOM     26  C   UNL     1       2.240   2.120  20.699  0.00  0.00    +0.000 C 
BRANCH  26  27
ATOM     27  C   UNL     1       2.226   3.332  21.630  0.00  0.00    +0.000 C 
BRANCH  27  28
ATOM     28  C   UNL     1       1.727   4.575  20.925  0.00  0.00    +0.000 C 
ATOM     29  O   UNL     1       0.697   4.656  20.286  0.00  0.00    +0.000 OA
BRANCH  28  30
ATOM     30  O   UNL     1       2.579   5.616  21.070  0.00  0.00    +0.000 OA
ATOM     31  H   UNL     1       2.842   6.029  20.225  0.00  0.00    +0.000 HD
ENDBRANCH  28  30
ENDBRANCH  27  28
ENDBRANCH  26  27
ENDBRANCH  25  26
ENDBRANCH  24  25
ENDBRANCH  22  23
ENDBRANCH   6  22
TORSDOF 15
ENDMDL
MODEL 7
REMARK VINA RESULT:      -6.9      1.942      2.999
REMARK  Name = 
REMARK  16 active torsions:
REMARK  status: ('A' for Active; 'I' for Inactive)
REMARK    1  A    between atoms: C_1  and  C_2
REMARK    2  A    between atoms: C_2  and  C_3
REMARK    3  A    between atoms: C_3  and  C_4
REMARK    4  A    between atoms: C_4  and  C_5
REMARK    5  A    between atoms: C_5  and  C_6
REMARK    6  A    between atoms: C_6  and  O_7
REMARK    7  A    between atoms: C_6  and  C_8
REMARK    8  A    between atoms: C_9  and  C_10
REMARK    9  A    between atoms: C_11  and  O_12
REMARK   10  A    between atoms: C_16  and  C_17
REMARK   11  A    between atoms: C_17  and  C_18
REMARK   12  A    between atoms: C_19  and  C_20
REMARK   13  A    between atoms: C_20  and  C_21
REMARK   14  A    between atoms: C_21  and  C_22
REMARK   15  A    between atoms: C_22  and  C_23
REMARK   16  A    between atoms: C_23  and  O_25
REMARK                            x       y       z     vdW  Elec       q    Type
REMARK                         _______ _______ _______ _____ _____    ______ ____
ROOT
ATOM      1  C   UNL     1       6.838   4.936  18.589  0.00  0.00    +0.000 C 
ATOM      2  C   UNL     1       8.107   5.493  19.281  0.00  0.00    +0.000 C 
ATOM      3  C   UNL     1       8.144   6.971  18.929  0.00  0.00    +0.000 C 
ATOM      4  C   UNL     1       7.521   6.967  17.562  0.00  0.00    +0.000 C 
ATOM      5  O   UNL     1       7.558   7.946  16.822  0.00  0.00    +0.000 OA
ATOM      6  C   UNL     1       6.890   5.625  17.205  0.00  0.00    +0.000 C 
ENDROOT
BRANCH   1   8
ATOM      7  C   UNL     1       4.590   4.304  19.576  0.00  0.00    +0.000 C 
ATOM      8  C   UNL     1       5.579   5.200  19.393  0.00  0.00    +0.000 C 
BRANCH   7   9
ATOM      9  C   UNL     1       3.459   4.559  20.530  0.00  0.00    +0.000 C 
BRANCH   9  10
ATOM     10  C   UNL     1       2.176   5.200  19.951  0.00  0.00    +0.000 C 
ATOM     11  C   UNL     1       2.272   6.023  18.620  0.00  0.00    +0.000 C 
ATOM     12  C   UNL     1       2.283   7.319  19.449  0.00  0.00    +0.000 C 
ATOM     13  C   UNL     1       1.698   6.527  20.630  0.00  0.00    +0.000 C 
BRANCH  10  14
ATOM     14  C   UNL     1       1.031   4.146  19.852  0.00  0.00    +0.000 C 
BRANCH  14  15
ATOM     15  C   UNL     1       1.018   3.459  18.484  0.00  0.00    +0.000 C 
BRANCH  15  17
ATOM     16  C   UNL     1       2.816   1.870  17.821  0.00  0.00    +0.000 C 
ATOM     17  C   UNL     1       1.477   2.005  18.533  0.00  0.00    +0.000 C 
ENDBRANCH  15  17
ENDBRANCH  14  15
ENDBRANCH  10  14
ENDBRANCH   9  10
BRANCH   9  18
ATOM     18  O   UNL     1       3.139   3.301  21.117  0.00  0.00    +0.000 OA
ATOM     19  H   UNL     1       2.334   3.421  21.650  0.00  0.00    +0.000 HD
ENDBRANCH   9  18
ENDBRANCH   7   9
ENDBRANCH   1   8
BRANCH   2  20
ATOM     20  O   UNL     1       8.150   5.279  20.683  0.00  0.00    +0.000 OA
ATOM     21  H   UNL     1       8.242   6.136  21.136  0.00  0.00    +0.000 HD
ENDBRANCH   2  20
BRANCH   6  22
ATOM     22  C   UNL     1       5.545   5.730  16.484  0.00  0.00    +0.000 C 
BRANCH  22  23
ATOM     23  C   UNL     1       4.931   4.392  16.162  0.00  0.00    +0.000 C 
ATOM     24  C   UNL     1       4.864   3.790  14.964  0.00  0.00    +0.000 C 
BRANCH  24  25
ATOM     25  C   UNL     1       5.344   4.353  13.660  0.00  0.00    +0.000 C 
BRANCH  25  26
ATOM     26  C   UNL     1       6.542   3.598  13.084  0.00  0.00    +0.000 C 
BRANCH  26  27
ATOM     27  C   UNL     1       7.297   4.403  12.025  0.00  0.00    +0.000 C 
BRANCH  27  28
ATOM     28  C   UNL     1       8.035   5.575  12.634  0.00  0.00    +0.000 C 
ATOM     29  O   UNL     1       8.384   5.661  13.795  0.00  0.00    +0.000 OA
BRANCH  28  30
ATOM     30  O   UNL     1       8.263   6.556  11.730  0.00  0.00    +0.000 OA
ATOM     31  H   UNL     1       9.202   6.649  11.480  0.00  0.00    +0.000 HD
ENDBRANCH  28  30
ENDBRANCH  27  28
ENDBRANCH  26  27
ENDBRANCH  25  26
ENDBRANCH  24  25
ENDBRANCH  22  23
ENDBRANCH   6  22
TORSDOF 15
ENDMDL
MODEL 8
REMARK VINA RESULT:      -6.8      3.134      6.714
REMARK  Name = 
REMARK  16 active torsions:
REMARK  status: ('A' for Active; 'I' for Inactive)
REMARK    1  A    between atoms: C_1  and  C_2
REMARK    2  A    between atoms: C_2  and  C_3
REMARK    3  A    between atoms: C_3  and  C_4
REMARK    4  A    between atoms: C_4  and  C_5
REMARK    5  A    between atoms: C_5  and  C_6
REMARK    6  A    between atoms: C_6  and  O_7
REMARK    7  A    between atoms: C_6  and  C_8
REMARK    8  A    between atoms: C_9  and  C_10
REMARK    9  A    between atoms: C_11  and  O_12
REMARK   10  A    between atoms: C_16  and  C_17
REMARK   11  A    between atoms: C_17  and  C_18
REMARK   12  A    between atoms: C_19  and  C_20
REMARK   13  A    between atoms: C_20  and  C_21
REMARK   14  A    between atoms: C_21  and  C_22
REMARK   15  A    between atoms: C_22  and  C_23
REMARK   16  A    between atoms: C_23  and  O_25
REMARK                            x       y       z     vdW  Elec       q    Type
REMARK                         _______ _______ _______ _____ _____    ______ ____
ROOT
ATOM      1  C   UNL     1       4.763   4.995  16.276  0.00  0.00    +0.000 C 
ATOM      2  C   UNL     1       6.026   4.366  15.635  0.00  0.00    +0.000 C 
ATOM      3  C   UNL     1       7.203   4.968  16.384  0.00  0.00    +0.000 C 
ATOM      4  C   UNL     1       6.676   6.334  16.719  0.00  0.00    +0.000 C 
ATOM      5  O   UNL     1       7.400   7.231  17.141  0.00  0.00    +0.000 OA
ATOM      6  C   UNL     1       5.182   6.475  16.442  0.00  0.00    +0.000 C 
ENDROOT
BRANCH   1   8
ATOM      7  C   UNL     1       3.176   3.673  17.744  0.00  0.00    +0.000 C 
ATOM      8  C   UNL     1       4.357   4.293  17.558  0.00  0.00    +0.000 C 
BRANCH   7   9
ATOM      9  C   UNL     1       2.904   2.841  18.964  0.00  0.00    +0.000 C 
BRANCH   9  10
ATOM     10  C   UNL     1       2.355   3.573  20.212  0.00  0.00    +0.000 C 
ATOM     11  C   UNL     1       2.677   2.996  21.634  0.00  0.00    +0.000 C 
ATOM     12  C   UNL     1       1.280   2.354  21.666  0.00  0.00    +0.000 C 
ATOM     13  C   UNL     1       0.848   3.323  20.553  0.00  0.00    +0.000 C 
BRANCH  10  14
ATOM     14  C   UNL     1       2.700   5.092  20.154  0.00  0.00    +0.000 C 
BRANCH  14  15
ATOM     15  C   UNL     1       1.516   5.953  20.602  0.00  0.00    +0.000 C 
BRANCH  15  17
ATOM     16  C   UNL     1       0.652   8.211  21.199  0.00  0.00    +0.000 C 
ATOM     17  C   UNL     1       1.908   7.383  20.960  0.00  0.00    +0.000 C 
ENDBRANCH  15  17
ENDBRANCH  14  15
ENDBRANCH  10  14
ENDBRANCH   9  10
BRANCH   9  18
ATOM     18  O   UNL     1       1.985   1.830  18.564  0.00  0.00    +0.000 OA
ATOM     19  H   UNL     1       1.194   2.273  18.211  0.00  0.00    +0.000 HD
ENDBRANCH   9  18
ENDBRANCH   7   9
ENDBRANCH   1   8
BRANCH   2  20
ATOM     20  O   UNL     1       6.048   2.947  15.658  0.00  0.00    +0.000 OA
ATOM     21  H   UNL     1       6.735   2.627  15.047  0.00  0.00    +0.000 HD
ENDBRANCH   2  20
BRANCH   6  22
ATOM     22  C   UNL     1       4.411   7.249  17.511  0.00  0.00    +0.000 C 
BRANCH  22  23
ATOM     23  C   UNL     1       2.921   7.262  17.286  0.00  0.00    +0.000 C 
ATOM     24  C   UNL     1       2.064   8.264  17.536  0.00  0.00    +0.000 C 
BRANCH  24  25
ATOM     25  C   UNL     1       2.403   9.585  18.158  0.00  0.00    +0.000 C 
BRANCH  25  26
ATOM     26  C   UNL     1       1.201  10.525  18.265  0.00  0.00    +0.000 C 
BRANCH  26  27
ATOM     27  C   UNL     1       1.431  11.674  19.246  0.00  0.00    +0.000 C 
BRANCH  27  28
ATOM     28  C   UNL     1       1.793  12.957  18.531  0.00  0.00    +0.000 C 
ATOM     29  O   UNL     1       1.613  14.079  18.962  0.00  0.00    +0.000 OA
BRANCH  28  30
ATOM     30  O   UNL     1       2.343  12.723  17.317  0.00  0.00    +0.000 OA
ATOM     31  H   UNL     1       1.942  13.247  16.597  0.00  0.00    +0.000 HD
ENDBRANCH  28  30
ENDBRANCH  27  28
ENDBRANCH  26  27
ENDBRANCH  25  26
ENDBRANCH  24  25
ENDBRANCH  22  23
ENDBRANCH   6  22
TORSDOF 15
ENDMDL
MODEL 9
REMARK VINA RESULT:      -6.8      2.910      8.018
REMARK  Name = 
REMARK  16 active torsions:
REMARK  status: ('A' for Active; 'I' for Inactive)
REMARK    1  A    between atoms: C_1  and  C_2
REMARK    2  A    between atoms: C_2  and  C_3
REMARK    3  A    between atoms: C_3  and  C_4
REMARK    4  A    between atoms: C_4  and  C_5
REMARK    5  A    between atoms: C_5  and  C_6
REMARK    6  A    between atoms: C_6  and  O_7
REMARK    7  A    between atoms: C_6  and  C_8
REMARK    8  A    between atoms: C_9  and  C_10
REMARK    9  A    between atoms: C_11  and  O_12
REMARK   10  A    between atoms: C_16  and  C_17
REMARK   11  A    between atoms: C_17  and  C_18
REMARK   12  A    between atoms: C_19  and  C_20
REMARK   13  A    between atoms: C_20  and  C_21
REMARK   14  A    between atoms: C_21  and  C_22
REMARK   15  A    between atoms: C_22  and  C_23
REMARK   16  A    between atoms: C_23  and  O_25
REMARK                            x       y       z     vdW  Elec       q    Type
REMARK                         _______ _______ _______ _____ _____    ______ ____
ROOT
ATOM      1  C   UNL     1       3.722   3.703  19.537  0.00  0.00    +0.000 C 
ATOM      2  C   UNL     1       3.656   2.223  19.991  0.00  0.00    +0.000 C 
ATOM      3  C   UNL     1       2.611   1.572  19.099  0.00  0.00    +0.000 C 
ATOM      4  C   UNL     1       1.668   2.717  18.861  0.00  0.00    +0.000 C 
ATOM      5  O   UNL     1       0.559   2.559  18.359  0.00  0.00    +0.000 OA
ATOM      6  C   UNL     1       2.228   4.053  19.340  0.00  0.00    +0.000 C 
ENDROOT
BRANCH   1   8
ATOM      7  C   UNL     1       5.888   4.265  18.346  0.00  0.00    +0.000 C 
ATOM      8  C   UNL     1       4.595   3.891  18.310  0.00  0.00    +0.000 C 
BRANCH   7   9
ATOM      9  C   UNL     1       6.748   4.257  17.116  0.00  0.00    +0.000 C 
BRANCH   9  10
ATOM     10  C   UNL     1       6.656   5.485  16.180  0.00  0.00    +0.000 C 
ATOM     11  C   UNL     1       7.289   6.843  16.644  0.00  0.00    +0.000 C 
ATOM     12  C   UNL     1       5.888   7.327  17.058  0.00  0.00    +0.000 C 
ATOM     13  C   UNL     1       5.284   6.238  16.158  0.00  0.00    +0.000 C 
BRANCH  10  14
ATOM     14  C   UNL     1       7.149   5.122  14.746  0.00  0.00    +0.000 C 
BRANCH  14  15
ATOM     15  C   UNL     1       6.490   3.839  14.234  0.00  0.00    +0.000 C 
BRANCH  15  17
ATOM     16  C   UNL     1       5.617   3.048  12.040  0.00  0.00    +0.000 C 
ATOM     17  C   UNL     1       5.452   4.085  13.143  0.00  0.00    +0.000 C 
ENDBRANCH  15  17
ENDBRANCH  14  15
ENDBRANCH  10  14
ENDBRANCH   9  10
BRANCH   9  18
ATOM     18  O   UNL     1       8.090   4.101  17.566  0.00  0.00    +0.000 OA
ATOM     19  H   UNL     1       8.189   3.189  17.889  0.00  0.00    +0.000 HD
ENDBRANCH   9  18
ENDBRANCH   7   9
ENDBRANCH   1   8
BRANCH   2  20
ATOM     20  O   UNL     1       4.899   1.540  19.941  0.00  0.00    +0.000 OA
ATOM     21  H   UNL     1       5.365   1.781  19.120  0.00  0.00    +0.000 HD
ENDBRANCH   2  20
BRANCH   6  22
ATOM     22  C   UNL     1       1.958   5.226  18.397  0.00  0.00    +0.000 C 
BRANCH  22  23
ATOM     23  C   UNL     1       2.651   6.499  18.810  0.00  0.00    +0.000 C 
ATOM     24  C   UNL     1       2.332   7.311  19.830  0.00  0.00    +0.000 C 
BRANCH  24  25
ATOM     25  C   UNL     1       1.164   7.153  20.757  0.00  0.00    +0.000 C 
BRANCH  25  26
ATOM     26  C   UNL     1       0.676   8.479  21.341  0.00  0.00    +0.000 C 
BRANCH  26  27
ATOM     27  C   UNL     1       1.097   9.687  20.504  0.00  0.00    +0.000 C 
BRANCH  27  28
ATOM     28  C   UNL     1       0.067  10.022  19.446  0.00  0.00    +0.000 C 
ATOM     29  O   UNL     1       0.207   9.857  18.251  0.00  0.00    +0.000 OA
BRANCH  28  30
ATOM     30  O   UNL     1      -1.055  10.553  19.983  0.00  0.00    +0.000 OA
ATOM     31  H   UNL     1      -1.011  11.521  20.106  0.00  0.00    +0.000 HD
ENDBRANCH  28  30
ENDBRANCH  27  28
ENDBRANCH  26  27
ENDBRANCH  25  26
ENDBRANCH  24  25
ENDBRANCH  22  23
ENDBRANCH   6  22
TORSDOF 15
ENDMDL
