MODEL 1
REMARK VINA RESULT:      -8.4      0.000      0.000
REMARK  Name = 
REMARK  10 active torsions:
REMARK  status: ('A' for Active; 'I' for Inactive)
REMARK    1  A    between atoms: C_1  and  C_2
REMARK    2  A    between atoms: C_2  and  C_3
REMARK    3  A    between atoms: C_3  and  C_4
REMARK    4  A    between atoms: C_4  and  N_5
REMARK    5  A    between atoms: C_11  and  C_12
REMARK    6  A    between atoms: C_15  and  C_16
REMARK    7  A    between atoms: C_21  and  C_22
REMARK    8  A    between atoms: C_31  and  C_32
REMARK    9  A    between atoms: C_32  and  C_33
REMARK   10  A    between atoms: C_33  and  C_34
REMARK                            x       y       z     vdW  Elec       q    Type
REMARK                         _______ _______ _______ _____ _____    ______ ____
ROOT
ATOM      1  C   UNL     1       1.487   9.418  19.070  0.00  0.00    +0.000 A 
ATOM      2  C   UNL     1       2.046   8.590  18.096  0.00  0.00    +0.000 A 
ATOM      3  C   UNL     1       2.352   7.262  18.397  0.00  0.00    +0.000 A 
ATOM      4  C   UNL     1       2.043   6.698  19.649  0.00  0.00    +0.000 A 
ATOM      5  C   UNL     1       1.538   7.562  20.634  0.00  0.00    +0.000 A 
ATOM      6  C   UNL     1       1.279   8.903  20.357  0.00  0.00    +0.000 A 
ENDROOT
BRANCH   1  13
ATOM      7  N   UNL     1      -2.485  11.003  18.432  0.00  0.00    +0.000 N 
ATOM      8  N   UNL     1      -2.229  12.043  19.263  0.00  0.00    +0.000 NA
ATOM      9  C   UNL     1      -0.940  12.079  19.365  0.00  0.00    +0.000 A 
ATOM     10  N   UNL     1      -0.311  11.056  18.776  0.00  0.00    +0.000 N 
ATOM     11  C   UNL     1      -1.275  10.417  18.021  0.00  0.00    +0.000 A 
ATOM     12  O   UNL     1      -1.120   9.596  17.131  0.00  0.00    +0.000 OA
ATOM     13  C   UNL     1       1.127  10.852  18.745  0.00  0.00    +0.000 C 
ATOM     14  C   UNL     1       1.851  11.763  19.759  0.00  0.00    +0.000 C 
ATOM     15  C   UNL     1       1.284  13.173  19.728  0.00  0.00    +0.000 C 
ATOM     16  C   UNL     1      -0.208  13.174  20.105  0.00  0.00    +0.000 C 
BRANCH   7  17
ATOM     17  C   UNL     1      -3.819  10.870  17.870  0.00  0.00    +0.000 C 
BRANCH  17  18
ATOM     18  C   UNL     1      -3.917  11.262  16.403  0.00  0.00    +0.000 C 
BRANCH  18  20
ATOM     19  C   UNL     1      -3.007  10.179  14.325  0.00  0.00    +0.000 C 
ATOM     20  C   UNL     1      -4.021  10.066  15.454  0.00  0.00    +0.000 C 
ENDBRANCH  18  20
ENDBRANCH  17  18
ENDBRANCH   7  17
BRANCH  16  21
ATOM     21  C   UNL     1      -0.806  14.567  19.794  0.00  0.00    +0.000 C 
BRANCH  21  22
ATOM     22  C   UNL     1      -0.083  15.361  18.699  0.00  0.00    +0.000 C 
ATOM     23  C   UNL     1      -0.606  16.787  18.585  0.00  0.00    +0.000 C 
ENDBRANCH  21  22
ENDBRANCH  16  21
ENDBRANCH   1  13
BRANCH   4  24
ATOM     24  C   UNL     1       2.237   5.253  19.930  0.00  0.00    +0.000 A 
ATOM     25  C   UNL     1       1.194   4.554  20.585  0.00  0.00    +0.000 A 
ATOM     26  C   UNL     1       1.303   3.205  20.925  0.00  0.00    +0.000 A 
ATOM     27  C   UNL     1       2.470   2.516  20.637  0.00  0.00    +0.000 A 
ATOM     28  C   UNL     1       3.512   3.168  19.980  0.00  0.00    +0.000 A 
ATOM     29  C   UNL     1       3.408   4.522  19.597  0.00  0.00    +0.000 A 
BRANCH  29  30
ATOM     30  C   UNL     1       4.535   5.090  18.860  0.00  0.00    +0.000 A 
ATOM     31  N   UNL     1       4.607   5.147  17.487  0.00  0.00    +0.000 NA
ATOM     32  N   UNL     1       5.732   5.781  17.184  0.00  0.00    +0.000 NA
ATOM     33  N   UNL     1       6.298   6.036  18.363  0.00  0.00    +0.000 N 
ATOM     34  N   UNL     1       5.624   5.627  19.447  0.00  0.00    +0.000 NA
ATOM     35  H   UNL     1       7.191   6.518  18.430  0.00  0.00    +0.000 HD
ENDBRANCH  29  30
ENDBRANCH   4  24
TORSDOF 8
ENDMDL
MODEL 2
REMARK VINA RESULT:      -8.2      2.224      9.346
REMARK  Name = 
REMARK  10 active torsions:
REMARK  status: ('A' for Active; 'I' for Inactive)
REMARK    1  A    between atoms: C_1  and  C_2
REMARK    2  A    between atoms: C_2  and  C_3
REMARK    3  A    between atoms: C_3  and  C_4
REMARK    4  A    between atoms: C_4  and  N_5
REMARK    5  A    between atoms: C_11  and  C_12
REMARK    6  A    between atoms: C_15  and  C_16
REMARK    7  A    between atoms: C_21  and  C_22
REMARK    8  A    between atoms: C_31  and  C_32
REMARK    9  A    between atoms: C_32  and  C_33
REMARK   10  A    between atoms: C_33  and  C_34
REMARK                            x       y       z     vdW  Elec       q    Type
REMARK                         _______ _______ _______ _____ _____    ______ ____
ROOT
ATOM      1  C   UNL     1       2.026   7.490  18.736  0.00  0.00    +0.000 A 
ATOM      2  C   UNL     1       1.658   7.964  19.995  0.00  0.00    +0.000 A 
ATOM      3  C   UNL     1       1.326   9.309  20.169  0.00  0.00    +0.000 A 
ATOM      4  C   UNL     1       1.278  10.203  19.084  0.00  0.00    +0.000 A 
ATOM      5  C   UNL     1       1.710   9.723  17.836  0.00  0.00    +0.000 A 
ATOM      6  C   UNL     1       2.094   8.394  17.667  0.00  0.00    +0.000 A 
ENDROOT
BRANCH   1  13
ATOM      7  N   UNL     1       5.978   5.757  18.460  0.00  0.00    +0.000 N 
ATOM      8  N   UNL     1       5.639   4.785  19.342  0.00  0.00    +0.000 NA
ATOM      9  C   UNL     1       4.346   4.791  19.364  0.00  0.00    +0.000 A 
ATOM     10  N   UNL     1       3.787   5.787  18.669  0.00  0.00    +0.000 N 
ATOM     11  C   UNL     1       4.815   6.345  17.934  0.00  0.00    +0.000 A 
ATOM     12  O   UNL     1       4.741   7.107  16.983  0.00  0.00    +0.000 OA
ATOM     13  C   UNL     1       2.361   6.028  18.533  0.00  0.00    +0.000 C 
ATOM     14  C   UNL     1       1.547   5.210  19.559  0.00  0.00    +0.000 C 
ATOM     15  C   UNL     1       2.071   3.786  19.660  0.00  0.00    +0.000 C 
ATOM     16  C   UNL     1       3.536   3.771  20.129  0.00  0.00    +0.000 C 
BRANCH   7  17
ATOM     17  C   UNL     1       7.347   5.814  17.977  0.00  0.00    +0.000 C 
BRANCH  17  18
ATOM     18  C   UNL     1       8.130   7.023  18.469  0.00  0.00    +0.000 C 
BRANCH  18  20
ATOM     19  C   UNL     1       8.545   9.496  18.293  0.00  0.00    +0.000 C 
ATOM     20  C   UNL     1       7.889   8.288  17.643  0.00  0.00    +0.000 C 
ENDBRANCH  18  20
ENDBRANCH  17  18
ENDBRANCH   7  17
BRANCH  16  21
ATOM     21  C   UNL     1       4.108   2.343  19.952  0.00  0.00    +0.000 C 
BRANCH  21  22
ATOM     22  C   UNL     1       3.399   1.479  18.902  0.00  0.00    +0.000 C 
ATOM     23  C   UNL     1       3.721   1.925  17.481  0.00  0.00    +0.000 C 
ENDBRANCH  21  22
ENDBRANCH  16  21
ENDBRANCH   1  13
BRANCH   4  24
ATOM     24  C   UNL     1       0.793  11.598  19.235  0.00  0.00    +0.000 A 
ATOM     25  C   UNL     1       1.663  12.549  19.821  0.00  0.00    +0.000 A 
ATOM     26  C   UNL     1       1.279  13.872  20.040  0.00  0.00    +0.000 A 
ATOM     27  C   UNL     1       0.000  14.283  19.697  0.00  0.00    +0.000 A 
ATOM     28  C   UNL     1      -0.878  13.378  19.105  0.00  0.00    +0.000 A 
ATOM     29  C   UNL     1      -0.498  12.045  18.844  0.00  0.00    +0.000 A 
BRANCH  29  30
ATOM     30  C   UNL     1      -1.476  11.197  18.165  0.00  0.00    +0.000 A 
ATOM     31  N   UNL     1      -1.993  11.464  16.917  0.00  0.00    +0.000 NA
ATOM     32  N   UNL     1      -2.791  10.453  16.604  0.00  0.00    +0.000 NA
ATOM     33  N   UNL     1      -2.755   9.656  17.673  0.00  0.00    +0.000 N 
ATOM     34  N   UNL     1      -1.974  10.058  18.686  0.00  0.00    +0.000 NA
ATOM     35  H   UNL     1      -3.290   8.793  17.710  0.00  0.00    +0.000 HD
ENDBRANCH  29  30
ENDBRANCH   4  24
TORSDOF 8
ENDMDL
MODEL 3
REMARK VINA RESULT:      -8.2      0.897      1.610
REMARK  Name = 
REMARK  10 active torsions:
REMARK  status: ('A' for Active; 'I' for Inactive)
REMARK    1  A    between atoms: C_1  and  C_2
REMARK    2  A    between atoms: C_2  and  C_3
REMARK    3  A    between atoms: C_3  and  C_4
REMARK    4  A    between atoms: C_4  and  N_5
REMARK    5  A    between atoms: C_11  and  C_12
REMARK    6  A    between atoms: C_15  and  C_16
REMARK    7  A    between atoms: C_21  and  C_22
REMARK    8  A    between atoms: C_31  and  C_32
REMARK    9  A    between atoms: C_32  and  C_33
REMARK   10  A    between atoms: C_33  and  C_34
REMARK                            x       y       z     vdW  Elec       q    Type
REMARK                         _______ _______ _______ _____ _____    ______ ____
ROOT
ATOM      1  C   UNL     1       1.413   9.534  18.899  0.00  0.00    +0.000 A 
ATOM      2  C   UNL     1       1.933   8.688  17.920  0.00  0.00    +0.000 A 
ATOM      3  C   UNL     1       2.274   7.372  18.240  0.00  0.00    +0.000 A 
ATOM      4  C   UNL     1       2.036   6.838  19.519  0.00  0.00    +0.000 A 
ATOM      5  C   UNL     1       1.568   7.721  20.507  0.00  0.00    +0.000 A 
ATOM      6  C   UNL     1       1.277   9.051  20.208  0.00  0.00    +0.000 A 
ENDROOT
BRANCH   1  13
ATOM      7  N   UNL     1      -2.607  11.036  18.367  0.00  0.00    +0.000 N 
ATOM      8  N   UNL     1      -2.341  12.099  19.166  0.00  0.00    +0.000 NA
ATOM      9  C   UNL     1      -1.050  12.159  19.221  0.00  0.00    +0.000 A 
ATOM     10  N   UNL     1      -0.424  11.134  18.633  0.00  0.00    +0.000 N 
ATOM     11  C   UNL     1      -1.403  10.462  17.927  0.00  0.00    +0.000 A 
ATOM     12  O   UNL     1      -1.264   9.623  17.051  0.00  0.00    +0.000 OA
ATOM     13  C   UNL     1       1.015  10.954  18.556  0.00  0.00    +0.000 C 
ATOM     14  C   UNL     1       1.758  11.899  19.523  0.00  0.00    +0.000 C 
ATOM     15  C   UNL     1       1.165  13.299  19.481  0.00  0.00    +0.000 C 
ATOM     16  C   UNL     1      -0.313  13.283  19.910  0.00  0.00    +0.000 C 
BRANCH   7  17
ATOM     17  C   UNL     1      -3.958  10.867  17.857  0.00  0.00    +0.000 C 
BRANCH  17  18
ATOM     18  C   UNL     1      -5.026  11.573  18.681  0.00  0.00    +0.000 C 
BRANCH  18  20
ATOM     19  C   UNL     1      -7.157  11.114  19.932  0.00  0.00    +0.000 C 
ATOM     20  C   UNL     1      -6.389  10.879  18.640  0.00  0.00    +0.000 C 
ENDBRANCH  18  20
ENDBRANCH  17  18
ENDBRANCH   7  17
BRANCH  16  21
ATOM     21  C   UNL     1      -0.946  14.658  19.591  0.00  0.00    +0.000 C 
BRANCH  21  22
ATOM     22  C   UNL     1      -0.059  15.617  18.786  0.00  0.00    +0.000 C 
ATOM     23  C   UNL     1      -0.743  16.953  18.531  0.00  0.00    +0.000 C 
ENDBRANCH  21  22
ENDBRANCH  16  21
ENDBRANCH   1  13
BRANCH   4  24
ATOM     24  C   UNL     1       2.265   5.404  19.828  0.00  0.00    +0.000 A 
ATOM     25  C   UNL     1       1.300   4.727  20.614  0.00  0.00    +0.000 A 
ATOM     26  C   UNL     1       1.451   3.391  20.986  0.00  0.00    +0.000 A 
ATOM     27  C   UNL     1       2.584   2.692  20.600  0.00  0.00    +0.000 A 
ATOM     28  C   UNL     1       3.547   3.322  19.813  0.00  0.00    +0.000 A 
ATOM     29  C   UNL     1       3.397   4.662  19.398  0.00  0.00    +0.000 A 
BRANCH  29  30
ATOM     30  C   UNL     1       4.437   5.205  18.525  0.00  0.00    +0.000 A 
ATOM     31  N   UNL     1       5.567   5.847  18.981  0.00  0.00    +0.000 NA
ATOM     32  N   UNL     1       6.302   6.138  17.917  0.00  0.00    +0.000 NA
ATOM     33  N   UNL     1       5.579   5.706  16.883  0.00  0.00    +0.000 N 
ATOM     34  N   UNL     1       4.405   5.129  17.180  0.00  0.00    +0.000 NA
ATOM     35  H   UNL     1       5.906   5.808  15.926  0.00  0.00    +0.000 HD
ENDBRANCH  29  30
ENDBRANCH   4  24
TORSDOF 8
ENDMDL
MODEL 4
REMARK VINA RESULT:      -8.1      2.026      9.292
REMARK  Name = 
REMARK  10 active torsions:
REMARK  status: ('A' for Active; 'I' for Inactive)
REMARK    1  A    between atoms: C_1  and  C_2
REMARK    2  A    between atoms: C_2  and  C_3
REMARK    3  A    between atoms: C_3  and  C_4
REMARK    4  A    between atoms: C_4  and  N_5
REMARK    5  A    between atoms: C_11  and  C_12
REMARK    6  A    between atoms: C_15  and  C_16
REMARK    7  A    between atoms: C_21  and  C_22
REMARK    8  A    between atoms: C_31  and  C_32
REMARK    9  A    between atoms: C_32  and  C_33
REMARK   10  A    between atoms: C_33  and  C_34
REMARK                            x       y       z     vdW  Elec       q    Type
REMARK                         _______ _______ _______ _____ _____    ______ ____
ROOT
ATOM      1  C   UNL     1       1.973   7.431  18.889  0.00  0.00    +0.000 A 
ATOM      2  C   UNL     1       1.693   7.929  20.161  0.00  0.00    +0.000 A 
ATOM      3  C   UNL     1       1.379   9.279  20.332  0.00  0.00    +0.000 A 
ATOM      4  C   UNL     1       1.261  10.154  19.236  0.00  0.00    +0.000 A 
ATOM      5  C   UNL     1       1.604   9.648  17.971  0.00  0.00    +0.000 A 
ATOM      6  C   UNL     1       1.971   8.315  17.801  0.00  0.00    +0.000 A 
ENDROOT
BRANCH   1  13
ATOM      7  N   UNL     1       5.888   5.676  18.352  0.00  0.00    +0.000 N 
ATOM      8  N   UNL     1       5.614   4.722  19.276  0.00  0.00    +0.000 NA
ATOM      9  C   UNL     1       4.326   4.735  19.395  0.00  0.00    +0.000 A 
ATOM     10  N   UNL     1       3.719   5.719  18.723  0.00  0.00    +0.000 N 
ATOM     11  C   UNL     1       4.691   6.258  17.903  0.00  0.00    +0.000 A 
ATOM     12  O   UNL     1       4.547   7.001  16.945  0.00  0.00    +0.000 OA
ATOM     13  C   UNL     1       2.287   5.963  18.691  0.00  0.00    +0.000 C 
ATOM     14  C   UNL     1       1.551   5.169  19.790  0.00  0.00    +0.000 C 
ATOM     15  C   UNL     1       2.076   3.746  19.880  0.00  0.00    +0.000 C 
ATOM     16  C   UNL     1       3.573   3.733  20.238  0.00  0.00    +0.000 C 
BRANCH   7  17
ATOM     17  C   UNL     1       7.217   5.718  17.766  0.00  0.00    +0.000 C 
BRANCH  17  18
ATOM     18  C   UNL     1       7.516   4.562  16.820  0.00  0.00    +0.000 C 
BRANCH  18  20
ATOM     19  C   UNL     1       5.904   3.939  14.995  0.00  0.00    +0.000 C 
ATOM     20  C   UNL     1       7.082   4.824  15.377  0.00  0.00    +0.000 C 
ENDBRANCH  18  20
ENDBRANCH  17  18
ENDBRANCH   7  17
BRANCH  16  21
ATOM     21  C   UNL     1       4.126   2.300  20.048  0.00  0.00    +0.000 C 
BRANCH  21  22
ATOM     22  C   UNL     1       3.463   1.485  18.931  0.00  0.00    +0.000 C 
ATOM     23  C   UNL     1       3.783   2.040  17.549  0.00  0.00    +0.000 C 
ENDBRANCH  21  22
ENDBRANCH  16  21
ENDBRANCH   1  13
BRANCH   4  24
ATOM     24  C   UNL     1       0.792  11.553  19.395  0.00  0.00    +0.000 A 
ATOM     25  C   UNL     1       1.652  12.477  20.037  0.00  0.00    +0.000 A 
ATOM     26  C   UNL     1       1.280  13.803  20.266  0.00  0.00    +0.000 A 
ATOM     27  C   UNL     1       0.024  14.242  19.875  0.00  0.00    +0.000 A 
ATOM     28  C   UNL     1      -0.842  13.364  19.228  0.00  0.00    +0.000 A 
ATOM     29  C   UNL     1      -0.473  12.030  18.957  0.00  0.00    +0.000 A 
BRANCH  29  30
ATOM     30  C   UNL     1      -1.434  11.213  18.219  0.00  0.00    +0.000 A 
ATOM     31  N   UNL     1      -1.902  11.520  16.962  0.00  0.00    +0.000 NA
ATOM     32  N   UNL     1      -2.698  10.527  16.591  0.00  0.00    +0.000 NA
ATOM     33  N   UNL     1      -2.710   9.701  17.637  0.00  0.00    +0.000 N 
ATOM     34  N   UNL     1      -1.962  10.065  18.689  0.00  0.00    +0.000 NA
ATOM     35  H   UNL     1      -3.255   8.843  17.630  0.00  0.00    +0.000 HD
ENDBRANCH  29  30
ENDBRANCH   4  24
TORSDOF 8
ENDMDL
MODEL 5
REMARK VINA RESULT:      -8.0      1.185      1.760
REMARK  Name = 
REMARK  10 active torsions:
REMARK  status: ('A' for Active; 'I' for Inactive)
REMARK    1  A    between atoms: C_1  and  C_2
REMARK    2  A    between atoms: C_2  and  C_3
REMARK    3  A    between atoms: C_3  and  C_4
REMARK    4  A    between atoms: C_4  and  N_5
REMARK    5  A    between atoms: C_11  and  C_12
REMARK    6  A    between atoms: C_15  and  C_16
REMARK    7  A    between atoms: C_21  and  C_22
REMARK    8  A    between atoms: C_31  and  C_32
REMARK    9  A    between atoms: C_32  and  C_33
REMARK   10  A    between atoms: C_33  and  C_34
REMARK                            x       y       z     vdW  Elec       q    Type
REMARK                         _______ _______ _______ _____ _____    ______ ____
ROOT
ATOM      1  C   UNL     1       1.408   9.704  18.836  0.00  0.00    +0.000 A 
ATOM      2  C   UNL     1       1.990   9.034  17.760  0.00  0.00    +0.000 A 
ATOM      3  C   UNL     1       2.489   7.741  17.927  0.00  0.00    +0.000 A 
ATOM      4  C   UNL     1       2.355   7.049  19.144  0.00  0.00    +0.000 A 
ATOM      5  C   UNL     1       1.821   7.760  20.231  0.00  0.00    +0.000 A 
ATOM      6  C   UNL     1       1.370   9.071  20.086  0.00  0.00    +0.000 A 
ENDROOT
BRANCH   1  13
ATOM      7  N   UNL     1      -2.762  10.756  18.391  0.00  0.00    +0.000 N 
ATOM      8  N   UNL     1      -2.639  11.736  19.320  0.00  0.00    +0.000 NA
ATOM      9  C   UNL     1      -1.366  11.947  19.414  0.00  0.00    +0.000 A 
ATOM     10  N   UNL     1      -0.612  11.087  18.721  0.00  0.00    +0.000 N 
ATOM     11  C   UNL     1      -1.491  10.393  17.914  0.00  0.00    +0.000 A 
ATOM     12  O   UNL     1      -1.241   9.693  16.946  0.00  0.00    +0.000 OA
ATOM     13  C   UNL     1       0.840  11.096  18.659  0.00  0.00    +0.000 C 
ATOM     14  C   UNL     1       1.450  11.998  19.752  0.00  0.00    +0.000 C 
ATOM     15  C   UNL     1       0.687  13.308  19.867  0.00  0.00    +0.000 C 
ATOM     16  C   UNL     1      -0.781  13.058  20.253  0.00  0.00    +0.000 C 
BRANCH   7  17
ATOM     17  C   UNL     1      -4.076  10.488  17.830  0.00  0.00    +0.000 C 
BRANCH  17  18
ATOM     18  C   UNL     1      -4.607  11.598  16.933  0.00  0.00    +0.000 C 
BRANCH  18  20
ATOM     19  C   UNL     1      -6.804  11.429  18.142  0.00  0.00    +0.000 C 
ATOM     20  C   UNL     1      -5.773  12.376  17.546  0.00  0.00    +0.000 C 
ENDBRANCH  18  20
ENDBRANCH  17  18
ENDBRANCH   7  17
BRANCH  16  21
ATOM     21  C   UNL     1      -1.578  14.375  20.088  0.00  0.00    +0.000 C 
BRANCH  21  22
ATOM     22  C   UNL     1      -2.139  14.968  21.387  0.00  0.00    +0.000 C 
ATOM     23  C   UNL     1      -2.018  14.002  22.558  0.00  0.00    +0.000 C 
ENDBRANCH  21  22
ENDBRANCH  16  21
ENDBRANCH   1  13
BRANCH   4  24
ATOM     24  C   UNL     1       2.756   5.627  19.288  0.00  0.00    +0.000 A 
ATOM     25  C   UNL     1       1.960   4.787  20.106  0.00  0.00    +0.000 A 
ATOM     26  C   UNL     1       2.281   3.449  20.331  0.00  0.00    +0.000 A 
ATOM     27  C   UNL     1       3.425   2.910  19.760  0.00  0.00    +0.000 A 
ATOM     28  C   UNL     1       4.224   3.702  18.939  0.00  0.00    +0.000 A 
ATOM     29  C   UNL     1       3.898   5.049  18.671  0.00  0.00    +0.000 A 
BRANCH  29  30
ATOM     30  C   UNL     1       4.772   5.771  17.749  0.00  0.00    +0.000 A 
ATOM     31  N   UNL     1       4.645   5.734  16.378  0.00  0.00    +0.000 NA
ATOM     32  N   UNL     1       5.561   6.553  15.882  0.00  0.00    +0.000 NA
ATOM     33  N   UNL     1       6.215   7.009  16.951  0.00  0.00    +0.000 N 
ATOM     34  N   UNL     1       5.793   6.559  18.141  0.00  0.00    +0.000 NA
ATOM     35  H   UNL     1       6.988   7.663  16.861  0.00  0.00    +0.000 HD
ENDBRANCH  29  30
ENDBRANCH   4  24
TORSDOF 8
ENDMDL
MODEL 6
REMARK VINA RESULT:      -8.0      2.476      3.232
REMARK  Name = 
REMARK  10 active torsions:
REMARK  status: ('A' for Active; 'I' for Inactive)
REMARK    1  A    between atoms: C_1  and  C_2
REMARK    2  A    between atoms: C_2  and  C_3
REMARK    3  A    between atoms: C_3  and  C_4
REMARK    4  A    between atoms: C_4  and  N_5
REMARK    5  A    between atoms: C_11  and  C_12
REMARK    6  A    between atoms: C_15  and  C_16
REMARK    7  A    between atoms: C_21  and  C_22
REMARK    8  A    between atoms: C_31  and  C_32
REMARK    9  A    between atoms: C_32  and  C_33
REMARK   10  A    between atoms: C_33  and  C_34
REMARK                            x       y       z     vdW  Elec       q    Type
REMARK                         _______ _______ _______ _____ _____    ______ ____
ROOT
ATOM      1  C   UNL     1       1.703   8.915  18.765  0.00  0.00    +0.000 A 
ATOM      2  C   UNL     1       2.015   8.203  17.608  0.00  0.00    +0.000 A 
ATOM      3  C   UNL     1       2.423   6.870  17.693  0.00  0.00    +0.000 A 
ATOM      4  C   UNL     1       2.460   6.187  18.922  0.00  0.00    +0.000 A 
ATOM      5  C   UNL     1       2.200   6.937  20.082  0.00  0.00    +0.000 A 
ATOM      6  C   UNL     1       1.844   8.282  20.008  0.00  0.00    +0.000 A 
ENDROOT
BRANCH   1  13
ATOM      7  N   UNL     1      -0.216  11.196  21.898  0.00  0.00    +0.000 N 
ATOM      8  N   UNL     1       0.619  12.243  21.680  0.00  0.00    +0.000 NA
ATOM      9  C   UNL     1       1.123  12.028  20.508  0.00  0.00    +0.000 A 
ATOM     10  N   UNL     1       0.799  10.844  19.976  0.00  0.00    +0.000 N 
ATOM     11  C   UNL     1      -0.202  10.340  20.784  0.00  0.00    +0.000 A 
ATOM     12  O   UNL     1      -0.968   9.418  20.555  0.00  0.00    +0.000 OA
ATOM     13  C   UNL     1       1.233  10.352  18.680  0.00  0.00    +0.000 C 
ATOM     14  C   UNL     1       2.393  11.196  18.112  0.00  0.00    +0.000 C 
ATOM     15  C   UNL     1       2.137  12.681  18.313  0.00  0.00    +0.000 C 
ATOM     16  C   UNL     1       2.020  13.022  19.809  0.00  0.00    +0.000 C 
BRANCH   7  17
ATOM     17  C   UNL     1      -1.167  11.279  22.994  0.00  0.00    +0.000 C 
BRANCH  17  18
ATOM     18  C   UNL     1      -1.880  12.620  23.097  0.00  0.00    +0.000 C 
BRANCH  18  20
ATOM     19  C   UNL     1      -4.040  12.526  24.379  0.00  0.00    +0.000 C 
ATOM     20  C   UNL     1      -3.403  12.512  22.998  0.00  0.00    +0.000 C 
ENDBRANCH  18  20
ENDBRANCH  17  18
ENDBRANCH   7  17
BRANCH  16  21
ATOM     21  C   UNL     1       1.490  14.468  19.957  0.00  0.00    +0.000 C 
BRANCH  21  22
ATOM     22  C   UNL     1       0.454  14.896  18.911  0.00  0.00    +0.000 C 
ATOM     23  C   UNL     1      -0.265  16.179  19.307  0.00  0.00    +0.000 C 
ENDBRANCH  21  22
ENDBRANCH  16  21
ENDBRANCH   1  13
BRANCH   4  24
ATOM     24  C   UNL     1       2.757   4.735  19.006  0.00  0.00    +0.000 A 
ATOM     25  C   UNL     1       1.673   3.839  19.175  0.00  0.00    +0.000 A 
ATOM     26  C   UNL     1       1.860   2.463  19.303  0.00  0.00    +0.000 A 
ATOM     27  C   UNL     1       3.143   1.938  19.286  0.00  0.00    +0.000 A 
ATOM     28  C   UNL     1       4.233   2.788  19.107  0.00  0.00    +0.000 A 
ATOM     29  C   UNL     1       4.063   4.179  18.942  0.00  0.00    +0.000 A 
BRANCH  29  30
ATOM     30  C   UNL     1       5.268   4.969  18.701  0.00  0.00    +0.000 A 
ATOM     31  N   UNL     1       5.575   5.559  17.496  0.00  0.00    +0.000 NA
ATOM     32  N   UNL     1       6.699   6.240  17.672  0.00  0.00    +0.000 NA
ATOM     33  N   UNL     1       7.037   6.001  18.940  0.00  0.00    +0.000 N 
ATOM     34  N   UNL     1       6.208   5.212  19.637  0.00  0.00    +0.000 NA
ATOM     35  H   UNL     1       7.877   6.402  19.349  0.00  0.00    +0.000 HD
ENDBRANCH  29  30
ENDBRANCH   4  24
TORSDOF 8
ENDMDL
MODEL 7
REMARK VINA RESULT:      -8.0      1.068      1.842
REMARK  Name = 
REMARK  10 active torsions:
REMARK  status: ('A' for Active; 'I' for Inactive)
REMARK    1  A    between atoms: C_1  and  C_2
REMARK    2  A    between atoms: C_2  and  C_3
REMARK    3  A    between atoms: C_3  and  C_4
REMARK    4  A    between atoms: C_4  and  N_5
REMARK    5  A    between atoms: C_11  and  C_12
REMARK    6  A    between atoms: C_15  and  C_16
REMARK    7  A    between atoms: C_21  and  C_22
REMARK    8  A    between atoms: C_31  and  C_32
REMARK    9  A    between atoms: C_32  and  C_33
REMARK   10  A    between atoms: C_33  and  C_34
REMARK                            x       y       z     vdW  Elec       q    Type
REMARK                         _______ _______ _______ _____ _____    ______ ____
ROOT
ATOM      1  C   UNL     1       1.395   9.447  18.844  0.00  0.00    +0.000 A 
ATOM      2  C   UNL     1       1.342   8.845  20.101  0.00  0.00    +0.000 A 
ATOM      3  C   UNL     1       1.783   7.531  20.266  0.00  0.00    +0.000 A 
ATOM      4  C   UNL     1       2.359   6.806  19.207  0.00  0.00    +0.000 A 
ATOM      5  C   UNL     1       2.348   7.407  17.937  0.00  0.00    +0.000 A 
ATOM      6  C   UNL     1       1.859   8.699  17.754  0.00  0.00    +0.000 A 
ENDROOT
BRANCH   1  13
ATOM      7  N   UNL     1      -2.674  10.840  18.392  0.00  0.00    +0.000 N 
ATOM      8  N   UNL     1      -2.470  11.811  19.316  0.00  0.00    +0.000 NA
ATOM      9  C   UNL     1      -1.184  11.915  19.410  0.00  0.00    +0.000 A 
ATOM     10  N   UNL     1      -0.503  10.993  18.722  0.00  0.00    +0.000 N 
ATOM     11  C   UNL     1      -1.438  10.371  17.917  0.00  0.00    +0.000 A 
ATOM     12  O   UNL     1      -1.246   9.648  16.953  0.00  0.00    +0.000 OA
ATOM     13  C   UNL     1       0.944  10.881  18.660  0.00  0.00    +0.000 C 
ATOM     14  C   UNL     1       1.626  11.735  19.749  0.00  0.00    +0.000 C 
ATOM     15  C   UNL     1       0.975  13.104  19.857  0.00  0.00    +0.000 C 
ATOM     16  C   UNL     1      -0.509  12.979  20.244  0.00  0.00    +0.000 C 
BRANCH   7  17
ATOM     17  C   UNL     1      -4.006  10.679  17.832  0.00  0.00    +0.000 C 
BRANCH  17  18
ATOM     18  C   UNL     1      -4.917  11.881  18.040  0.00  0.00    +0.000 C 
BRANCH  18  20
ATOM     19  C   UNL     1      -6.674  10.318  18.927  0.00  0.00    +0.000 C 
ATOM     20  C   UNL     1      -6.405  11.527  18.044  0.00  0.00    +0.000 C 
ENDBRANCH  18  20
ENDBRANCH  17  18
ENDBRANCH   7  17
BRANCH  16  21
ATOM     21  C   UNL     1      -1.194  14.356  20.073  0.00  0.00    +0.000 C 
BRANCH  21  22
ATOM     22  C   UNL     1      -0.449  15.351  19.175  0.00  0.00    +0.000 C 
ATOM     23  C   UNL     1      -1.003  16.763  19.300  0.00  0.00    +0.000 C 
ENDBRANCH  21  22
ENDBRANCH  16  21
ENDBRANCH   1  13
BRANCH   4  24
ATOM     24  C   UNL     1       2.957   5.462  19.407  0.00  0.00    +0.000 A 
ATOM     25  C   UNL     1       2.314   4.570  20.300  0.00  0.00    +0.000 A 
ATOM     26  C   UNL     1       2.825   3.303  20.581  0.00  0.00    +0.000 A 
ATOM     27  C   UNL     1       4.011   2.893  19.991  0.00  0.00    +0.000 A 
ATOM     28  C   UNL     1       4.664   3.739  19.096  0.00  0.00    +0.000 A 
ATOM     29  C   UNL     1       4.145   5.011  18.773  0.00  0.00    +0.000 A 
BRANCH  29  30
ATOM     30  C   UNL     1       4.878   5.791  17.777  0.00  0.00    +0.000 A 
ATOM     31  N   UNL     1       5.834   6.732  18.087  0.00  0.00    +0.000 NA
ATOM     32  N   UNL     1       6.322   7.181  16.939  0.00  0.00    +0.000 NA
ATOM     33  N   UNL     1       5.624   6.535  16.005  0.00  0.00    +0.000 N 
ATOM     34  N   UNL     1       4.702   5.668  16.447  0.00  0.00    +0.000 NA
ATOM     35  H   UNL     1       5.789   6.694  15.015  0.00  0.00    +0.000 HD
ENDBRANCH  29  30
ENDBRANCH   4  24
TORSDOF 8
ENDMDL
MODEL 8
REMARK VINA RESULT:      -7.9      0.647      1.164
REMARK  Name = 
REMARK  10 active torsions:
REMARK  status: ('A' for Active; 'I' for Inactive)
REMARK    1  A    between atoms: C_1  and  C_2
REMARK    2  A    between atoms: C_2  and  C_3
REMARK    3  A    between atoms: C_3  and  C_4
REMARK    4  A    between atoms: C_4  and  N_5
REMARK    5  A    between atoms: C_11  and  C_12
REMARK    6  A    between atoms: C_15  and  C_16
REMARK    7  A    between atoms: C_21  and  C_22
REMARK    8  A    between atoms: C_31  and  C_32
REMARK    9  A    between atoms: C_32  and  C_33
REMARK   10  A    between atoms: C_33  and  C_34
REMARK                            x       y       z     vdW  Elec       q    Type
REMARK                         _______ _______ _______ _____ _____    ______ ____
ROOT
ATOM      1  C   UNL     1       1.518   9.499  18.789  0.00  0.00    +0.000 A 
ATOM      2  C   UNL     1       1.426   8.924  20.056  0.00  0.00    +0.000 A 
ATOM      3  C   UNL     1       1.830   7.603  20.258  0.00  0.00    +0.000 A 
ATOM      4  C   UNL     1       2.407   6.842  19.225  0.00  0.00    +0.000 A 
ATOM      5  C   UNL     1       2.435   7.416  17.944  0.00  0.00    +0.000 A 
ATOM      6  C   UNL     1       1.984   8.716  17.724  0.00  0.00    +0.000 A 
ENDROOT
BRANCH   1  13
ATOM      7  N   UNL     1      -2.518  11.013  18.445  0.00  0.00    +0.000 N 
ATOM      8  N   UNL     1      -2.244  12.011  19.321  0.00  0.00    +0.000 NA
ATOM      9  C   UNL     1      -0.952  12.074  19.359  0.00  0.00    +0.000 A 
ATOM     10  N   UNL     1      -0.331  11.103  18.681  0.00  0.00    +0.000 N 
ATOM     11  C   UNL     1      -1.318  10.483  17.940  0.00  0.00    +0.000 A 
ATOM     12  O   UNL     1      -1.190   9.718  16.998  0.00  0.00    +0.000 OA
ATOM     13  C   UNL     1       1.107  10.939  18.566  0.00  0.00    +0.000 C 
ATOM     14  C   UNL     1       1.862  11.809  19.593  0.00  0.00    +0.000 C 
ATOM     15  C   UNL     1       1.261  13.204  19.672  0.00  0.00    +0.000 C 
ATOM     16  C   UNL     1      -0.209  13.145  20.123  0.00  0.00    +0.000 C 
BRANCH   7  17
ATOM     17  C   UNL     1      -3.876  10.877  17.945  0.00  0.00    +0.000 C 
BRANCH  17  18
ATOM     18  C   UNL     1      -4.054  11.324  16.501  0.00  0.00    +0.000 C 
BRANCH  18  20
ATOM     19  C   UNL     1      -3.174  10.304  14.379  0.00  0.00    +0.000 C 
ATOM     20  C   UNL     1      -4.181  10.164  15.512  0.00  0.00    +0.000 C 
ENDBRANCH  18  20
ENDBRANCH  17  18
ENDBRANCH   7  17
BRANCH  16  21
ATOM     21  C   UNL     1      -0.854  14.537  19.925  0.00  0.00    +0.000 C 
BRANCH  21  22
ATOM     22  C   UNL     1      -0.144  15.451  18.918  0.00  0.00    +0.000 C 
ATOM     23  C   UNL     1      -0.831  16.803  18.787  0.00  0.00    +0.000 C 
ENDBRANCH  21  22
ENDBRANCH  16  21
ENDBRANCH   1  13
BRANCH   4  24
ATOM     24  C   UNL     1       2.967   5.488  19.465  0.00  0.00    +0.000 A 
ATOM     25  C   UNL     1       2.301   4.643  20.387  0.00  0.00    +0.000 A 
ATOM     26  C   UNL     1       2.777   3.371  20.705  0.00  0.00    +0.000 A 
ATOM     27  C   UNL     1       3.948   2.908  20.124  0.00  0.00    +0.000 A 
ATOM     28  C   UNL     1       4.621   3.706  19.202  0.00  0.00    +0.000 A 
ATOM     29  C   UNL     1       4.138   4.983  18.841  0.00  0.00    +0.000 A 
BRANCH  29  30
ATOM     30  C   UNL     1       4.889   5.710  17.819  0.00  0.00    +0.000 A 
ATOM     31  N   UNL     1       4.667   5.587  16.466  0.00  0.00    +0.000 NA
ATOM     32  N   UNL     1       5.483   6.439  15.861  0.00  0.00    +0.000 NA
ATOM     33  N   UNL     1       6.178   6.997  16.853  0.00  0.00    +0.000 N 
ATOM     34  N   UNL     1       5.876   6.586  18.093  0.00  0.00    +0.000 NA
ATOM     35  H   UNL     1       6.893   7.696  16.672  0.00  0.00    +0.000 HD
ENDBRANCH  29  30
ENDBRANCH   4  24
TORSDOF 8
ENDMDL
MODEL 9
REMARK VINA RESULT:      -7.9      2.569      3.485
REMARK  Name = 
REMARK  10 active torsions:
REMARK  status: ('A' for Active; 'I' for Inactive)
REMARK    1  A    between atoms: C_1  and  C_2
REMARK    2  A    between atoms: C_2  and  C_3
REMARK    3  A    between atoms: C_3  and  C_4
REMARK    4  A    between atoms: C_4  and  N_5
REMARK    5  A    between atoms: C_11  and  C_12
REMARK    6  A    between atoms: C_15  and  C_16
REMARK    7  A    between atoms: C_21  and  C_22
REMARK    8  A    between atoms: C_31  and  C_32
REMARK    9  A    between atoms: C_32  and  C_33
REMARK   10  A    between atoms: C_33  and  C_34
REMARK                            x       y       z     vdW  Elec       q    Type
REMARK                         _______ _______ _______ _____ _____    ______ ____
ROOT
ATOM      1  C   UNL     1       1.671   9.060  18.753  0.00  0.00    +0.000 A 
ATOM      2  C   UNL     1       1.948   8.359  17.580  0.00  0.00    +0.000 A 
ATOM      3  C   UNL     1       2.338   7.020  17.639  0.00  0.00    +0.000 A 
ATOM      4  C   UNL     1       2.392   6.320  18.858  0.00  0.00    +0.000 A 
ATOM      5  C   UNL     1       2.169   7.058  20.032  0.00  0.00    +0.000 A 
ATOM      6  C   UNL     1       1.831   8.409  19.984  0.00  0.00    +0.000 A 
ENDROOT
BRANCH   1  13
ATOM      7  N   UNL     1      -0.284  11.282  21.905  0.00  0.00    +0.000 N 
ATOM      8  N   UNL     1       0.567  12.323  21.733  0.00  0.00    +0.000 NA
ATOM      9  C   UNL     1       1.093  12.133  20.566  0.00  0.00    +0.000 A 
ATOM     10  N   UNL     1       0.766  10.968  19.996  0.00  0.00    +0.000 N 
ATOM     11  C   UNL     1      -0.258  10.455  20.769  0.00  0.00    +0.000 A 
ATOM     12  O   UNL     1      -1.030   9.549  20.500  0.00  0.00    +0.000 OA
ATOM     13  C   UNL     1       1.221  10.505  18.697  0.00  0.00    +0.000 C 
ATOM     14  C   UNL     1       2.403  11.349  18.175  0.00  0.00    +0.000 C 
ATOM     15  C   UNL     1       2.161  12.831  18.411  0.00  0.00    +0.000 C 
ATOM     16  C   UNL     1       2.017  13.134  19.912  0.00  0.00    +0.000 C 
BRANCH   7  17
ATOM     17  C   UNL     1      -1.257  11.348  22.983  0.00  0.00    +0.000 C 
BRANCH  17  18
ATOM     18  C   UNL     1      -2.507  12.148  22.645  0.00  0.00    +0.000 C 
BRANCH  18  20
ATOM     19  C   UNL     1      -4.183  12.510  24.483  0.00  0.00    +0.000 C 
ATOM     20  C   UNL     1      -2.963  13.077  23.772  0.00  0.00    +0.000 C 
ENDBRANCH  18  20
ENDBRANCH  17  18
ENDBRANCH   7  17
BRANCH  16  21
ATOM     21  C   UNL     1       1.501  14.582  20.088  0.00  0.00    +0.000 C 
BRANCH  21  22
ATOM     22  C   UNL     1       2.516  15.572  20.674  0.00  0.00    +0.000 C 
ATOM     23  C   UNL     1       3.181  15.033  21.933  0.00  0.00    +0.000 C 
ENDBRANCH  21  22
ENDBRANCH  16  21
ENDBRANCH   1  13
BRANCH   4  24
ATOM     24  C   UNL     1       2.670   4.863  18.917  0.00  0.00    +0.000 A 
ATOM     25  C   UNL     1       1.570   3.976  19.020  0.00  0.00    +0.000 A 
ATOM     26  C   UNL     1       1.737   2.595  19.120  0.00  0.00    +0.000 A 
ATOM     27  C   UNL     1       3.014   2.055  19.141  0.00  0.00    +0.000 A 
ATOM     28  C   UNL     1       4.119   2.896  19.027  0.00  0.00    +0.000 A 
ATOM     29  C   UNL     1       3.971   4.293  18.891  0.00  0.00    +0.000 A 
BRANCH  29  30
ATOM     30  C   UNL     1       5.194   5.075  18.718  0.00  0.00    +0.000 A 
ATOM     31  N   UNL     1       6.182   5.179  19.671  0.00  0.00    +0.000 NA
ATOM     32  N   UNL     1       7.155   5.908  19.141  0.00  0.00    +0.000 NA
ATOM     33  N   UNL     1       6.702   6.240  17.932  0.00  0.00    +0.000 N 
ATOM     34  N   UNL     1       5.490   5.773  17.604  0.00  0.00    +0.000 NA
ATOM     35  H   UNL     1       7.253   6.814  17.298  0.00  0.00    +0.000 HD
ENDBRANCH  29  30
ENDBRANCH   4  24
TORSDOF 8
ENDMDL
