MODEL 1
REMARK VINA RESULT:      -7.1      0.000      0.000
REMARK  Name = 
REMARK  5 active torsions:
REMARK  status: ('A' for Active; 'I' for Inactive)
REMARK    1  A    between atoms: C_5  and  S_6
REMARK    2  A    between atoms: S_6  and  C_7
REMARK    3  A    between atoms: C_7  and  C_8
REMARK    4  A    between atoms: C_8  and  C_9
REMARK    5  A    between atoms: C_9  and  N_10
REMARK                            x       y       z     vdW  Elec       q    Type
REMARK                         _______ _______ _______ _____ _____    ______ ____
ROOT
ATOM      1  N   UNL     1       5.943   4.530  18.796  0.00  0.00    +0.000 NA
ATOM      2  C   UNL     1       5.391   3.578  17.799  0.00  0.00    +0.000 C 
ATOM      3  C   UNL     1       5.006   4.220  16.451  0.00  0.00    +0.000 C 
ATOM      4  N   UNL     1       6.161   4.924  15.905  0.00  0.00    +0.000 N 
ATOM      5  C   UNL     1       6.527   4.748  14.599  0.00  0.00    +0.000 A 
ATOM      6  N   UNL     1       5.815   3.899  13.839  0.00  0.00    +0.000 NA
ATOM      7  C   UNL     1       6.214   3.693  12.573  0.00  0.00    +0.000 A 
ATOM      8  C   UNL     1       7.303   4.306  12.016  0.00  0.00    +0.000 A 
ATOM      9  C   UNL     1       7.967   5.166  12.851  0.00  0.00    +0.000 A 
ATOM     10  N   UNL     1       7.601   5.402  14.126  0.00  0.00    +0.000 NA
ATOM     11  C   UNL     1       6.879   5.840  16.787  0.00  0.00    +0.000 C 
ATOM     12  C   UNL     1       7.124   5.186  18.173  0.00  0.00    +0.000 C 
ENDROOT
BRANCH   1  13
ATOM     13  C   UNL     1       4.962   5.530  19.249  0.00  0.00    +0.000 C 
BRANCH  13  14
ATOM     14  C   UNL     1       3.618   4.903  19.644  0.00  0.00    +0.000 C 
BRANCH  14  15
ATOM     15  C   UNL     1       2.468   5.515  18.848  0.00  0.00    +0.000 C 
BRANCH  15  16
ATOM     16  S   UNL     1       3.050   7.074  18.095  0.00  0.00    +0.000 S 
BRANCH  16  21
ATOM     17  F   UNL     1      -0.528  11.088  20.556  0.00  0.00    +0.000 F 
ATOM     18  C   UNL     1       0.258  10.172  19.978  0.00  0.00    +0.000 A 
ATOM     19  C   UNL     1       0.847   9.183  20.753  0.00  0.00    +0.000 A 
ATOM     20  C   UNL     1       1.678   8.239  20.148  0.00  0.00    +0.000 A 
ATOM     21  C   UNL     1       1.918   8.278  18.766  0.00  0.00    +0.000 A 
ATOM     22  C   UNL     1       1.318   9.287  18.003  0.00  0.00    +0.000 A 
ATOM     23  C   UNL     1       0.485  10.231  18.608  0.00  0.00    +0.000 A 
ENDBRANCH  16  21
ENDBRANCH  15  16
ENDBRANCH  14  15
ENDBRANCH  13  14
ENDBRANCH   1  13
TORSDOF 5
ENDMDL
MODEL 2
REMARK VINA RESULT:      -7.0      5.517      7.539
REMARK  Name = 
REMARK  5 active torsions:
REMARK  status: ('A' for Active; 'I' for Inactive)
REMARK    1  A    between atoms: C_5  and  S_6
REMARK    2  A    between atoms: S_6  and  C_7
REMARK    3  A    between atoms: C_7  and  C_8
REMARK    4  A    between atoms: C_8  and  C_9
REMARK    5  A    between atoms: C_9  and  N_10
REMARK                            x       y       z     vdW  Elec       q    Type
REMARK                         _______ _______ _______ _____ _____    ______ ____
ROOT
ATOM      1  N   UNL     1       7.413   5.885  17.803  0.00  0.00    +0.000 NA
ATOM      2  C   UNL     1       6.918   5.454  19.135  0.00  0.00    +0.000 C 
ATOM      3  C   UNL     1       5.385   5.523  19.297  0.00  0.00    +0.000 C 
ATOM      4  N   UNL     1       4.753   4.746  18.237  0.00  0.00    +0.000 N 
ATOM      5  C   UNL     1       3.760   3.853  18.531  0.00  0.00    +0.000 A 
ATOM      6  N   UNL     1       3.397   3.691  19.814  0.00  0.00    +0.000 NA
ATOM      7  C   UNL     1       2.458   2.773  20.099  0.00  0.00    +0.000 A 
ATOM      8  C   UNL     1       1.849   1.999  19.149  0.00  0.00    +0.000 A 
ATOM      9  C   UNL     1       2.265   2.234  17.864  0.00  0.00    +0.000 A 
ATOM     10  N   UNL     1       3.203   3.143  17.536  0.00  0.00    +0.000 NA
ATOM     11  C   UNL     1       5.191   4.983  16.865  0.00  0.00    +0.000 C 
ATOM     12  C   UNL     1       6.740   5.033  16.785  0.00  0.00    +0.000 C 
ENDROOT
BRANCH   1  13
ATOM     13  C   UNL     1       7.182   7.313  17.531  0.00  0.00    +0.000 C 
BRANCH  13  14
ATOM     14  C   UNL     1       8.433   8.170  17.771  0.00  0.00    +0.000 C 
BRANCH  14  15
ATOM     15  C   UNL     1       8.060   9.622  18.058  0.00  0.00    +0.000 C 
BRANCH  15  16
ATOM     16  S   UNL     1       9.203  10.274  19.326  0.00  0.00    +0.000 S 
BRANCH  16  21
ATOM     17  F   UNL     1      11.326  15.068  16.591  0.00  0.00    +0.000 F 
ATOM     18  C   UNL     1      10.843  14.000  17.237  0.00  0.00    +0.000 A 
ATOM     19  C   UNL     1      11.552  12.808  17.221  0.00  0.00    +0.000 A 
ATOM     20  C   UNL     1      11.037  11.693  17.884  0.00  0.00    +0.000 A 
ATOM     21  C   UNL     1       9.815  11.769  18.569  0.00  0.00    +0.000 A 
ATOM     22  C   UNL     1       9.112  12.980  18.569  0.00  0.00    +0.000 A 
ATOM     23  C   UNL     1       9.629  14.097  17.906  0.00  0.00    +0.000 A 
ENDBRANCH  16  21
ENDBRANCH  15  16
ENDBRANCH  14  15
ENDBRANCH  13  14
ENDBRANCH   1  13
TORSDOF 5
ENDMDL
MODEL 3
REMARK VINA RESULT:      -6.8      5.753      7.621
REMARK  Name = 
REMARK  5 active torsions:
REMARK  status: ('A' for Active; 'I' for Inactive)
REMARK    1  A    between atoms: C_5  and  S_6
REMARK    2  A    between atoms: S_6  and  C_7
REMARK    3  A    between atoms: C_7  and  C_8
REMARK    4  A    between atoms: C_8  and  C_9
REMARK    5  A    between atoms: C_9  and  N_10
REMARK                            x       y       z     vdW  Elec       q    Type
REMARK                         _______ _______ _______ _____ _____    ______ ____
ROOT
ATOM      1  N   UNL     1       7.699   6.509  17.249  0.00  0.00    +0.000 NA
ATOM      2  C   UNL     1       7.711   5.650  18.460  0.00  0.00    +0.000 C 
ATOM      3  C   UNL     1       6.325   5.443  19.107  0.00  0.00    +0.000 C 
ATOM      4  N   UNL     1       5.402   4.913  18.109  0.00  0.00    +0.000 N 
ATOM      5  C   UNL     1       4.611   3.836  18.399  0.00  0.00    +0.000 A 
ATOM      6  N   UNL     1       4.718   3.266  19.611  0.00  0.00    +0.000 NA
ATOM      7  C   UNL     1       3.976   2.176  19.868  0.00  0.00    +0.000 A 
ATOM      8  C   UNL     1       3.112   1.621  18.963  0.00  0.00    +0.000 A 
ATOM      9  C   UNL     1       3.051   2.270  17.757  0.00  0.00    +0.000 A 
ATOM     10  N   UNL     1       3.778   3.364  17.458  0.00  0.00    +0.000 NA
ATOM     11  C   UNL     1       5.332   5.592  16.818  0.00  0.00    +0.000 C 
ATOM     12  C   UNL     1       6.756   5.891  16.278  0.00  0.00    +0.000 C 
ENDROOT
BRANCH   1  13
ATOM     13  C   UNL     1       7.326   7.906  17.531  0.00  0.00    +0.000 C 
BRANCH  13  14
ATOM     14  C   UNL     1       8.546   8.823  17.683  0.00  0.00    +0.000 C 
BRANCH  14  15
ATOM     15  C   UNL     1       8.165  10.144  18.348  0.00  0.00    +0.000 C 
BRANCH  15  16
ATOM     16  S   UNL     1       9.587  10.726  19.337  0.00  0.00    +0.000 S 
BRANCH  16  21
ATOM     17  F   UNL     1      11.321  15.652  16.562  0.00  0.00    +0.000 F 
ATOM     18  C   UNL     1      10.929  14.521  17.162  0.00  0.00    +0.000 A 
ATOM     19  C   UNL     1       9.785  14.521  17.946  0.00  0.00    +0.000 A 
ATOM     20  C   UNL     1       9.388  13.343  18.582  0.00  0.00    +0.000 A 
ATOM     21  C   UNL     1      10.131  12.162  18.429  0.00  0.00    +0.000 A 
ATOM     22  C   UNL     1      11.285  12.186  17.638  0.00  0.00    +0.000 A 
ATOM     23  C   UNL     1      11.682  13.364  17.000  0.00  0.00    +0.000 A 
ENDBRANCH  16  21
ENDBRANCH  15  16
ENDBRANCH  14  15
ENDBRANCH  13  14
ENDBRANCH   1  13
TORSDOF 5
ENDMDL
MODEL 4
REMARK VINA RESULT:      -6.8      4.996      7.636
REMARK  Name = 
REMARK  5 active torsions:
REMARK  status: ('A' for Active; 'I' for Inactive)
REMARK    1  A    between atoms: C_5  and  S_6
REMARK    2  A    between atoms: S_6  and  C_7
REMARK    3  A    between atoms: C_7  and  C_8
REMARK    4  A    between atoms: C_8  and  C_9
REMARK    5  A    between atoms: C_9  and  N_10
REMARK                            x       y       z     vdW  Elec       q    Type
REMARK                         _______ _______ _______ _____ _____    ______ ____
ROOT
ATOM      1  N   UNL     1       5.567   6.184  16.754  0.00  0.00    +0.000 NA
ATOM      2  C   UNL     1       5.766   4.855  17.384  0.00  0.00    +0.000 C 
ATOM      3  C   UNL     1       5.328   4.778  18.861  0.00  0.00    +0.000 C 
ATOM      4  N   UNL     1       3.935   5.196  18.973  0.00  0.00    +0.000 N 
ATOM      5  C   UNL     1       3.042   4.449  19.689  0.00  0.00    +0.000 A 
ATOM      6  N   UNL     1       3.469   3.314  20.267  0.00  0.00    +0.000 NA
ATOM      7  C   UNL     1       2.572   2.559  20.924  0.00  0.00    +0.000 A 
ATOM      8  C   UNL     1       1.249   2.889  21.040  0.00  0.00    +0.000 A 
ATOM      9  C   UNL     1       0.897   4.067  20.435  0.00  0.00    +0.000 A 
ATOM     10  N   UNL     1       1.763   4.853  19.766  0.00  0.00    +0.000 NA
ATOM     11  C   UNL     1       3.546   6.447  18.328  0.00  0.00    +0.000 C 
ATOM     12  C   UNL     1       4.125   6.526  16.890  0.00  0.00    +0.000 C 
ENDROOT
BRANCH   1  13
ATOM     13  C   UNL     1       6.415   7.237  17.337  0.00  0.00    +0.000 C 
BRANCH  13  14
ATOM     14  C   UNL     1       7.710   6.681  17.947  0.00  0.00    +0.000 C 
BRANCH  14  15
ATOM     15  C   UNL     1       8.496   7.775  18.665  0.00  0.00    +0.000 C 
BRANCH  15  16
ATOM     16  S   UNL     1       8.100   9.380  17.887  0.00  0.00    +0.000 S 
BRANCH  16  21
ATOM     17  F   UNL     1      11.946  13.231  20.198  0.00  0.00    +0.000 F 
ATOM     18  C   UNL     1      11.086  12.337  19.695  0.00  0.00    +0.000 A 
ATOM     19  C   UNL     1      11.049  12.115  18.326  0.00  0.00    +0.000 A 
ATOM     20  C   UNL     1      10.141  11.192  17.804  0.00  0.00    +0.000 A 
ATOM     21  C   UNL     1       9.273  10.485  18.651  0.00  0.00    +0.000 A 
ATOM     22  C   UNL     1       9.324  10.727  20.029  0.00  0.00    +0.000 A 
ATOM     23  C   UNL     1      10.234  11.650  20.551  0.00  0.00    +0.000 A 
ENDBRANCH  16  21
ENDBRANCH  15  16
ENDBRANCH  14  15
ENDBRANCH  13  14
ENDBRANCH   1  13
TORSDOF 5
ENDMDL
MODEL 5
REMARK VINA RESULT:      -6.7      5.504      7.094
REMARK  Name = 
REMARK  5 active torsions:
REMARK  status: ('A' for Active; 'I' for Inactive)
REMARK    1  A    between atoms: C_5  and  S_6
REMARK    2  A    between atoms: S_6  and  C_7
REMARK    3  A    between atoms: C_7  and  C_8
REMARK    4  A    between atoms: C_8  and  C_9
REMARK    5  A    between atoms: C_9  and  N_10
REMARK                            x       y       z     vdW  Elec       q    Type
REMARK                         _______ _______ _______ _____ _____    ______ ____
ROOT
ATOM      1  N   UNL     1       7.616   6.398  17.269  0.00  0.00    +0.000 NA
ATOM      2  C   UNL     1       7.501   5.586  18.507  0.00  0.00    +0.000 C 
ATOM      3  C   UNL     1       6.072   5.496  19.079  0.00  0.00    +0.000 C 
ATOM      4  N   UNL     1       5.171   4.992  18.049  0.00  0.00    +0.000 N 
ATOM      5  C   UNL     1       4.293   3.981  18.330  0.00  0.00    +0.000 A 
ATOM      6  N   UNL     1       4.294   3.451  19.564  0.00  0.00    +0.000 NA
ATOM      7  C   UNL     1       3.465   2.424  19.815  0.00  0.00    +0.000 A 
ATOM      8  C   UNL     1       2.616   1.894  18.881  0.00  0.00    +0.000 A 
ATOM      9  C   UNL     1       2.666   2.499  17.653  0.00  0.00    +0.000 A 
ATOM     10  N   UNL     1       3.482   3.530  17.359  0.00  0.00    +0.000 NA
ATOM     11  C   UNL     1       5.218   5.625  16.734  0.00  0.00    +0.000 C 
ATOM     12  C   UNL     1       6.687   5.808  16.267  0.00  0.00    +0.000 C 
ENDROOT
BRANCH   1  13
ATOM     13  C   UNL     1       7.324   7.826  17.481  0.00  0.00    +0.000 C 
BRANCH  13  14
ATOM     14  C   UNL     1       8.444   8.550  18.239  0.00  0.00    +0.000 C 
BRANCH  14  15
ATOM     15  C   UNL     1       8.282  10.066  18.149  0.00  0.00    +0.000 C 
BRANCH  15  16
ATOM     16  S   UNL     1       9.936  10.833  18.255  0.00  0.00    +0.000 S 
BRANCH  16  21
ATOM     17  F   UNL     1       9.462  14.359  22.979  0.00  0.00    +0.000 F 
ATOM     18  C   UNL     1       9.584  13.538  21.928  0.00  0.00    +0.000 A 
ATOM     19  C   UNL     1      10.198  13.992  20.770  0.00  0.00    +0.000 A 
ATOM     20  C   UNL     1      10.310  13.138  19.671  0.00  0.00    +0.000 A 
ATOM     21  C   UNL     1       9.812  11.827  19.731  0.00  0.00    +0.000 A 
ATOM     22  C   UNL     1       9.191  11.391  20.907  0.00  0.00    +0.000 A 
ATOM     23  C   UNL     1       9.081  12.245  22.008  0.00  0.00    +0.000 A 
ENDBRANCH  16  21
ENDBRANCH  15  16
ENDBRANCH  14  15
ENDBRANCH  13  14
ENDBRANCH   1  13
TORSDOF 5
ENDMDL
MODEL 6
REMARK VINA RESULT:      -6.7      1.966      2.855
REMARK  Name = 
REMARK  5 active torsions:
REMARK  status: ('A' for Active; 'I' for Inactive)
REMARK    1  A    between atoms: C_5  and  S_6
REMARK    2  A    between atoms: S_6  and  C_7
REMARK    3  A    between atoms: C_7  and  C_8
REMARK    4  A    between atoms: C_8  and  C_9
REMARK    5  A    between atoms: C_9  and  N_10
REMARK                            x       y       z     vdW  Elec       q    Type
REMARK                         _______ _______ _______ _____ _____    ______ ____
ROOT
ATOM      1  N   UNL     1       3.161   2.189  19.951  0.00  0.00    +0.000 NA
ATOM      2  C   UNL     1       2.728   2.325  18.537  0.00  0.00    +0.000 C 
ATOM      3  C   UNL     1       3.132   3.657  17.872  0.00  0.00    +0.000 C 
ATOM      4  N   UNL     1       4.575   3.835  17.986  0.00  0.00    +0.000 N 
ATOM      5  C   UNL     1       5.317   4.197  16.897  0.00  0.00    +0.000 A 
ATOM      6  N   UNL     1       4.694   4.363  15.719  0.00  0.00    +0.000 NA
ATOM      7  C   UNL     1       5.439   4.667  14.643  0.00  0.00    +0.000 A 
ATOM      8  C   UNL     1       6.798   4.822  14.686  0.00  0.00    +0.000 A 
ATOM      9  C   UNL     1       7.355   4.648  15.925  0.00  0.00    +0.000 A 
ATOM     10  N   UNL     1       6.646   4.343  17.029  0.00  0.00    +0.000 NA
ATOM     11  C   UNL     1       5.182   3.648  19.301  0.00  0.00    +0.000 C 
ATOM     12  C   UNL     1       4.639   2.360  19.977  0.00  0.00    +0.000 C 
ENDROOT
BRANCH   1  13
ATOM     13  C   UNL     1       2.504   3.148  20.855  0.00  0.00    +0.000 C 
BRANCH  13  14
ATOM     14  C   UNL     1       1.030   3.380  20.497  0.00  0.00    +0.000 C 
BRANCH  14  15
ATOM     15  C   UNL     1       0.741   4.864  20.283  0.00  0.00    +0.000 C 
BRANCH  15  16
ATOM     16  S   UNL     1       2.257   5.810  20.663  0.00  0.00    +0.000 S 
BRANCH  16  21
ATOM     17  F   UNL     1       0.939  11.061  18.284  0.00  0.00    +0.000 F 
ATOM     18  C   UNL     1       1.250   9.888  18.848  0.00  0.00    +0.000 A 
ATOM     19  C   UNL     1       1.977   8.950  18.127  0.00  0.00    +0.000 A 
ATOM     20  C   UNL     1       2.286   7.722  18.714  0.00  0.00    +0.000 A 
ATOM     21  C   UNL     1       1.876   7.431  20.024  0.00  0.00    +0.000 A 
ATOM     22  C   UNL     1       1.140   8.389  20.732  0.00  0.00    +0.000 A 
ATOM     23  C   UNL     1       0.831   9.619  20.145  0.00  0.00    +0.000 A 
ENDBRANCH  16  21
ENDBRANCH  15  16
ENDBRANCH  14  15
ENDBRANCH  13  14
ENDBRANCH   1  13
TORSDOF 5
ENDMDL
MODEL 7
REMARK VINA RESULT:      -6.7      2.083      2.899
REMARK  Name = 
REMARK  5 active torsions:
REMARK  status: ('A' for Active; 'I' for Inactive)
REMARK    1  A    between atoms: C_5  and  S_6
REMARK    2  A    between atoms: S_6  and  C_7
REMARK    3  A    between atoms: C_7  and  C_8
REMARK    4  A    between atoms: C_8  and  C_9
REMARK    5  A    between atoms: C_9  and  N_10
REMARK                            x       y       z     vdW  Elec       q    Type
REMARK                         _______ _______ _______ _____ _____    ______ ____
ROOT
ATOM      1  N   UNL     1       3.271   2.017  19.965  0.00  0.00    +0.000 NA
ATOM      2  C   UNL     1       2.859   2.140  18.544  0.00  0.00    +0.000 C 
ATOM      3  C   UNL     1       3.205   3.496  17.896  0.00  0.00    +0.000 C 
ATOM      4  N   UNL     1       4.635   3.748  18.039  0.00  0.00    +0.000 N 
ATOM      5  C   UNL     1       5.378   4.157  16.967  0.00  0.00    +0.000 A 
ATOM      6  N   UNL     1       4.770   4.300  15.778  0.00  0.00    +0.000 NA
ATOM      7  C   UNL     1       5.518   4.650  14.719  0.00  0.00    +0.000 A 
ATOM      8  C   UNL     1       6.867   4.875  14.790  0.00  0.00    +0.000 A 
ATOM      9  C   UNL     1       7.408   4.722  16.039  0.00  0.00    +0.000 A 
ATOM     10  N   UNL     1       6.694   4.371  17.127  0.00  0.00    +0.000 NA
ATOM     11  C   UNL     1       5.225   3.583  19.365  0.00  0.00    +0.000 C 
ATOM     12  C   UNL     1       4.737   2.264  20.022  0.00  0.00    +0.000 C 
ENDROOT
BRANCH   1  13
ATOM     13  C   UNL     1       2.547   2.932  20.862  0.00  0.00    +0.000 C 
BRANCH  13  14
ATOM     14  C   UNL     1       1.080   3.122  20.452  0.00  0.00    +0.000 C 
BRANCH  14  15
ATOM     15  C   UNL     1       0.765   4.593  20.192  0.00  0.00    +0.000 C 
BRANCH  15  16
ATOM     16  S   UNL     1       2.194   5.596  20.731  0.00  0.00    +0.000 S 
BRANCH  16  21
ATOM     17  F   UNL     1       1.615  10.705  17.811  0.00  0.00    +0.000 F 
ATOM     18  C   UNL     1       1.733   9.533  18.447  0.00  0.00    +0.000 A 
ATOM     19  C   UNL     1       1.193   9.382  19.716  0.00  0.00    +0.000 A 
ATOM     20  C   UNL     1       1.332   8.163  20.381  0.00  0.00    +0.000 A 
ATOM     21  C   UNL     1       2.005   7.091  19.776  0.00  0.00    +0.000 A 
ATOM     22  C   UNL     1       2.547   7.265  18.498  0.00  0.00    +0.000 A 
ATOM     23  C   UNL     1       2.407   8.486  17.831  0.00  0.00    +0.000 A 
ENDBRANCH  16  21
ENDBRANCH  15  16
ENDBRANCH  14  15
ENDBRANCH  13  14
ENDBRANCH   1  13
TORSDOF 5
ENDMDL
MODEL 8
REMARK VINA RESULT:      -6.7      0.878      1.328
REMARK  Name = 
REMARK  5 active torsions:
REMARK  status: ('A' for Active; 'I' for Inactive)
REMARK    1  A    between atoms: C_5  and  S_6
REMARK    2  A    between atoms: S_6  and  C_7
REMARK    3  A    between atoms: C_7  and  C_8
REMARK    4  A    between atoms: C_8  and  C_9
REMARK    5  A    between atoms: C_9  and  N_10
REMARK                            x       y       z     vdW  Elec       q    Type
REMARK                         _______ _______ _______ _____ _____    ______ ____
ROOT
ATOM      1  N   UNL     1       5.976   4.391  18.751  0.00  0.00    +0.000 NA
ATOM      2  C   UNL     1       5.385   3.490  17.730  0.00  0.00    +0.000 C 
ATOM      3  C   UNL     1       5.012   4.187  16.405  0.00  0.00    +0.000 C 
ATOM      4  N   UNL     1       6.186   4.868  15.871  0.00  0.00    +0.000 N 
ATOM      5  C   UNL     1       6.537   4.721  14.558  0.00  0.00    +0.000 A 
ATOM      6  N   UNL     1       5.791   3.920  13.778  0.00  0.00    +0.000 NA
ATOM      7  C   UNL     1       6.173   3.739  12.503  0.00  0.00    +0.000 A 
ATOM      8  C   UNL     1       7.278   4.333  11.956  0.00  0.00    +0.000 A 
ATOM      9  C   UNL     1       7.976   5.144  12.812  0.00  0.00    +0.000 A 
ATOM     10  N   UNL     1       7.629   5.352  14.097  0.00  0.00    +0.000 NA
ATOM     11  C   UNL     1       6.942   5.731  16.775  0.00  0.00    +0.000 C 
ATOM     12  C   UNL     1       7.174   5.027  18.139  0.00  0.00    +0.000 C 
ENDROOT
BRANCH   1  13
ATOM     13  C   UNL     1       5.033   5.410  19.243  0.00  0.00    +0.000 C 
BRANCH  13  14
ATOM     14  C   UNL     1       3.648   4.828  19.558  0.00  0.00    +0.000 C 
BRANCH  14  15
ATOM     15  C   UNL     1       2.537   5.751  19.064  0.00  0.00    +0.000 C 
BRANCH  15  16
ATOM     16  S   UNL     1       1.787   6.580  20.510  0.00  0.00    +0.000 S 
BRANCH  16  21
ATOM     17  F   UNL     1       0.928  11.999  18.305  0.00  0.00    +0.000 F 
ATOM     18  C   UNL     1       1.137  10.785  18.830  0.00  0.00    +0.000 A 
ATOM     19  C   UNL     1       1.773   9.810  18.074  0.00  0.00    +0.000 A 
ATOM     20  C   UNL     1       1.975   8.542  18.620  0.00  0.00    +0.000 A 
ATOM     21  C   UNL     1       1.548   8.248  19.924  0.00  0.00    +0.000 A 
ATOM     22  C   UNL     1       0.905   9.244  20.668  0.00  0.00    +0.000 A 
ATOM     23  C   UNL     1       0.704  10.515  20.122  0.00  0.00    +0.000 A 
ENDBRANCH  16  21
ENDBRANCH  15  16
ENDBRANCH  14  15
ENDBRANCH  13  14
ENDBRANCH   1  13
TORSDOF 5
ENDMDL
MODEL 9
REMARK VINA RESULT:      -6.6      4.110      7.295
REMARK  Name = 
REMARK  5 active torsions:
REMARK  status: ('A' for Active; 'I' for Inactive)
REMARK    1  A    between atoms: C_5  and  S_6
REMARK    2  A    between atoms: S_6  and  C_7
REMARK    3  A    between atoms: C_7  and  C_8
REMARK    4  A    between atoms: C_8  and  C_9
REMARK    5  A    between atoms: C_9  and  N_10
REMARK                            x       y       z     vdW  Elec       q    Type
REMARK                         _______ _______ _______ _____ _____    ______ ____
ROOT
ATOM      1  N   UNL     1       1.521   3.590  19.004  0.00  0.00    +0.000 NA
ATOM      2  C   UNL     1       1.061   4.178  20.287  0.00  0.00    +0.000 C 
ATOM      3  C   UNL     1       1.885   5.393  20.762  0.00  0.00    +0.000 C 
ATOM      4  N   UNL     1       1.903   6.404  19.711  0.00  0.00    +0.000 N 
ATOM      5  C   UNL     1       1.634   7.713  20.002  0.00  0.00    +0.000 A 
ATOM      6  N   UNL     1       1.333   8.042  21.269  0.00  0.00    +0.000 NA
ATOM      7  C   UNL     1       1.018   9.321  21.536  0.00  0.00    +0.000 A 
ATOM      8  C   UNL     1       0.995  10.306  20.586  0.00  0.00    +0.000 A 
ATOM      9  C   UNL     1       1.327   9.891  19.322  0.00  0.00    +0.000 A 
ATOM     10  N   UNL     1       1.648   8.620  19.012  0.00  0.00    +0.000 NA
ATOM     11  C   UNL     1       2.250   5.974  18.359  0.00  0.00    +0.000 C 
ATOM     12  C   UNL     1       1.489   4.674  17.985  0.00  0.00    +0.000 C 
ENDROOT
BRANCH   1  13
ATOM     13  C   UNL     1       2.861   2.986  19.089  0.00  0.00    +0.000 C 
BRANCH  13  14
ATOM     14  C   UNL     1       3.432   2.621  17.712  0.00  0.00    +0.000 C 
BRANCH  14  15
ATOM     15  C   UNL     1       4.720   3.390  17.427  0.00  0.00    +0.000 C 
BRANCH  15  16
ATOM     16  S   UNL     1       5.405   3.981  19.014  0.00  0.00    +0.000 S 
BRANCH  16  21
ATOM     17  F   UNL     1       8.337   8.836  17.338  0.00  0.00    +0.000 F 
ATOM     18  C   UNL     1       7.700   7.720  17.714  0.00  0.00    +0.000 A 
ATOM     19  C   UNL     1       6.533   7.342  17.065  0.00  0.00    +0.000 A 
ATOM     20  C   UNL     1       5.865   6.186  17.470  0.00  0.00    +0.000 A 
ATOM     21  C   UNL     1       6.365   5.401  18.521  0.00  0.00    +0.000 A 
ATOM     22  C   UNL     1       7.541   5.802  19.165  0.00  0.00    +0.000 A 
ATOM     23  C   UNL     1       8.211   6.959  18.759  0.00  0.00    +0.000 A 
ENDBRANCH  16  21
ENDBRANCH  15  16
ENDBRANCH  14  15
ENDBRANCH  13  14
ENDBRANCH   1  13
TORSDOF 5
ENDMDL
