MODEL 1
REMARK VINA RESULT:      -9.0      0.000      0.000
REMARK  Name = 
REMARK  5 active torsions:
REMARK  status: ('A' for Active; 'I' for Inactive)
REMARK    1  A    between atoms: C_7  and  C_8
REMARK    2  A    between atoms: C_12  and  N_13
REMARK    3  A    between atoms: N_13  and  C_14
REMARK    4  A    between atoms: N_19  and  C_20
REMARK    5  A    between atoms: C_20  and  C_21
REMARK                            x       y       z     vdW  Elec       q    Type
REMARK                         _______ _______ _______ _____ _____    ______ ____
ROOT
ATOM      1  C   UNL     1       3.678   5.173  17.865  0.00  0.00    +0.000 A 
ATOM      2  C   UNL     1       3.203   4.082  17.118  0.00  0.00    +0.000 A 
ATOM      3  N   UNL     1       4.011   3.759  16.100  0.00  0.00    +0.000 NA
ATOM      4  N   UNL     1       5.091   4.592  16.245  0.00  0.00    +0.000 N 
ATOM      5  C   UNL     1       6.313   4.575  15.522  0.00  0.00    +0.000 A 
ATOM      6  C   UNL     1       7.281   5.410  15.943  0.00  0.00    +0.000 A 
ATOM      7  C   UNL     1       6.981   6.410  17.018  0.00  0.00    +0.000 A 
ATOM      8  N   UNL     1       7.963   7.339  17.293  0.00  0.00    +0.000 N 
ATOM      9  N   UNL     1       5.841   6.428  17.648  0.00  0.00    +0.000 NA
ATOM     10  C   UNL     1       4.901   5.486  17.307  0.00  0.00    +0.000 A 
ATOM     11  H   UNL     1       8.729   7.436  16.634  0.00  0.00    +0.000 HD
ENDROOT
BRANCH   1  18
ATOM     12  O   UNL     1       1.740  10.084  17.579  0.00  0.00    +0.000 OA
ATOM     13  C   UNL     1       1.888   9.110  18.273  0.00  0.00    +0.000 C 
ATOM     14  N   UNL     1       1.484   8.963  19.576  0.00  0.00    +0.000 N 
ATOM     15  C   UNL     1       1.835   7.739  20.079  0.00  0.00    +0.000 C 
ATOM     16  O   UNL     1       1.635   7.301  21.191  0.00  0.00    +0.000 OA
ATOM     17  C   UNL     1       2.529   7.055  18.960  0.00  0.00    +0.000 C 
ATOM     18  C   UNL     1       3.047   5.821  18.973  0.00  0.00    +0.000 C 
ATOM     19  N   UNL     1       2.507   7.935  17.908  0.00  0.00    +0.000 N 
ATOM     20  H   UNL     1       0.998   9.676  20.092  0.00  0.00    +0.000 HD
ATOM     21  H   UNL     1       2.993   7.788  17.029  0.00  0.00    +0.000 HD
ENDBRANCH   1  18
BRANCH   5  22
ATOM     22  N   UNL     1       6.487   3.638  14.503  0.00  0.00    +0.000 N 
ATOM     23  H   UNL     1       6.236   2.693  14.806  0.00  0.00    +0.000 HD
BRANCH  22  24
ATOM     24  C   UNL     1       6.327   3.995  13.080  0.00  0.00    +0.000 C 
ATOM     25  C   UNL     1       6.723   3.075  11.954  0.00  0.00    +0.000 C 
ATOM     26  C   UNL     1       5.273   3.249  12.300  0.00  0.00    +0.000 C 
ENDBRANCH  22  24
ENDBRANCH   5  22
BRANCH   8  27
ATOM     27  C   UNL     1       8.165   8.000  18.566  0.00  0.00    +0.000 C 
BRANCH  27  28
ATOM     28  C   UNL     1       8.533   9.453  18.379  0.00  0.00    +0.000 A 
ATOM     29  C   UNL     1       7.788  10.297  17.538  0.00  0.00    +0.000 A 
ATOM     30  C   UNL     1       8.152  11.638  17.369  0.00  0.00    +0.000 A 
ATOM     31  C   UNL     1       9.260  12.163  18.037  0.00  0.00    +0.000 A 
ATOM     32  C   UNL     1       9.983  11.341  18.913  0.00  0.00    +0.000 A 
ATOM     33  C   UNL     1       9.637   9.993  19.056  0.00  0.00    +0.000 A 
ATOM     34  O   UNL     1      11.052  11.745  19.673  0.00  0.00    +0.000 OA
ATOM     35  C   UNL     1      10.865  13.045  20.231  0.00  0.00    +0.000 C 
ATOM     36  C   UNL     1      11.339  14.120  19.268  0.00  0.00    +0.000 C 
ATOM     37  C   UNL     1      10.907  13.833  17.840  0.00  0.00    +0.000 C 
ATOM     38  O   UNL     1       9.524  13.483  17.770  0.00  0.00    +0.000 OA
ENDBRANCH  27  28
ENDBRANCH   8  27
TORSDOF 5
ENDMDL
MODEL 2
REMARK VINA RESULT:      -8.7      5.371      9.625
REMARK  Name = 
REMARK  5 active torsions:
REMARK  status: ('A' for Active; 'I' for Inactive)
REMARK    1  A    between atoms: C_7  and  C_8
REMARK    2  A    between atoms: C_12  and  N_13
REMARK    3  A    between atoms: N_13  and  C_14
REMARK    4  A    between atoms: N_19  and  C_20
REMARK    5  A    between atoms: C_20  and  C_21
REMARK                            x       y       z     vdW  Elec       q    Type
REMARK                         _______ _______ _______ _____ _____    ______ ____
ROOT
ATOM      1  C   UNL     1      -0.148  12.737  20.403  0.00  0.00    +0.000 A 
ATOM      2  C   UNL     1      -1.471  13.191  20.534  0.00  0.00    +0.000 A 
ATOM      3  N   UNL     1      -2.313  12.586  19.684  0.00  0.00    +0.000 NA
ATOM      4  N   UNL     1      -1.543  11.643  19.055  0.00  0.00    +0.000 N 
ATOM      5  C   UNL     1      -1.964  10.624  18.161  0.00  0.00    +0.000 A 
ATOM      6  C   UNL     1      -1.036   9.727  17.778  0.00  0.00    +0.000 A 
ATOM      7  C   UNL     1       0.397   9.933  18.167  0.00  0.00    +0.000 A 
ATOM      8  N   UNL     1       1.321   9.070  17.614  0.00  0.00    +0.000 N 
ATOM      9  N   UNL     1       0.767  10.895  18.964  0.00  0.00    +0.000 NA
ATOM     10  C   UNL     1      -0.205  11.730  19.460  0.00  0.00    +0.000 A 
ATOM     11  H   UNL     1       1.029   8.494  16.832  0.00  0.00    +0.000 HD
ENDROOT
BRANCH   1  18
ATOM     12  O   UNL     1       4.087  14.688  17.912  0.00  0.00    +0.000 OA
ATOM     13  C   UNL     1       3.584  14.442  18.979  0.00  0.00    +0.000 C 
ATOM     14  N   UNL     1       4.141  14.654  20.215  0.00  0.00    +0.000 N 
ATOM     15  C   UNL     1       3.310  14.237  21.221  0.00  0.00    +0.000 C 
ATOM     16  O   UNL     1       3.505  14.274  22.416  0.00  0.00    +0.000 OA
ATOM     17  C   UNL     1       2.109  13.712  20.527  0.00  0.00    +0.000 C 
ATOM     18  C   UNL     1       1.012  13.200  21.099  0.00  0.00    +0.000 C 
ATOM     19  N   UNL     1       2.342  13.885  19.186  0.00  0.00    +0.000 N 
ATOM     20  H   UNL     1       5.050  15.060  20.354  0.00  0.00    +0.000 HD
ATOM     21  H   UNL     1       1.738  13.532  18.450  0.00  0.00    +0.000 HD
ENDBRANCH   1  18
BRANCH   5  22
ATOM     22  N   UNL     1      -3.313  10.535  17.817  0.00  0.00    +0.000 N 
ATOM     23  H   UNL     1      -3.923  10.638  18.632  0.00  0.00    +0.000 HD
BRANCH  22  24
ATOM     24  C   UNL     1      -3.811  10.971  16.497  0.00  0.00    +0.000 C 
ATOM     25  C   UNL     1      -2.944  11.003  15.264  0.00  0.00    +0.000 C 
ATOM     26  C   UNL     1      -3.957   9.908  15.435  0.00  0.00    +0.000 C 
ENDBRANCH  22  24
ENDBRANCH   5  22
BRANCH   8  27
ATOM     27  C   UNL     1       2.587   8.697  18.209  0.00  0.00    +0.000 C 
BRANCH  27  28
ATOM     28  C   UNL     1       2.555   7.277  18.726  0.00  0.00    +0.000 A 
ATOM     29  C   UNL     1       2.054   6.972  20.003  0.00  0.00    +0.000 A 
ATOM     30  C   UNL     1       2.042   5.652  20.467  0.00  0.00    +0.000 A 
ATOM     31  C   UNL     1       2.527   4.614  19.669  0.00  0.00    +0.000 A 
ATOM     32  C   UNL     1       2.988   4.902  18.377  0.00  0.00    +0.000 A 
ATOM     33  C   UNL     1       3.026   6.226  17.926  0.00  0.00    +0.000 A 
ATOM     34  O   UNL     1       3.433   3.971  17.472  0.00  0.00    +0.000 OA
ATOM     35  C   UNL     1       2.644   2.782  17.478  0.00  0.00    +0.000 C 
ATOM     36  C   UNL     1       3.158   1.798  18.513  0.00  0.00    +0.000 C 
ATOM     37  C   UNL     1       3.516   2.484  19.821  0.00  0.00    +0.000 C 
ATOM     38  O   UNL     1       2.482   3.370  20.248  0.00  0.00    +0.000 OA
ENDBRANCH  27  28
ENDBRANCH   8  27
TORSDOF 5
ENDMDL
MODEL 3
REMARK VINA RESULT:      -8.6      5.326     10.071
REMARK  Name = 
REMARK  5 active torsions:
REMARK  status: ('A' for Active; 'I' for Inactive)
REMARK    1  A    between atoms: C_7  and  C_8
REMARK    2  A    between atoms: C_12  and  N_13
REMARK    3  A    between atoms: N_13  and  C_14
REMARK    4  A    between atoms: N_19  and  C_20
REMARK    5  A    between atoms: C_20  and  C_21
REMARK                            x       y       z     vdW  Elec       q    Type
REMARK                         _______ _______ _______ _____ _____    ______ ____
ROOT
ATOM      1  C   UNL     1       0.936  13.446  19.747  0.00  0.00    +0.000 A 
ATOM      2  C   UNL     1      -0.243  14.119  20.108  0.00  0.00    +0.000 A 
ATOM      3  N   UNL     1      -1.350  13.478  19.711  0.00  0.00    +0.000 NA
ATOM      4  N   UNL     1      -0.888  12.307  19.168  0.00  0.00    +0.000 N 
ATOM      5  C   UNL     1      -1.645  11.189  18.725  0.00  0.00    +0.000 A 
ATOM      6  C   UNL     1      -0.954  10.094  18.356  0.00  0.00    +0.000 A 
ATOM      7  C   UNL     1       0.542  10.155  18.271  0.00  0.00    +0.000 A 
ATOM      8  N   UNL     1       1.179   9.054  17.736  0.00  0.00    +0.000 N 
ATOM      9  N   UNL     1       1.215  11.203  18.653  0.00  0.00    +0.000 NA
ATOM     10  C   UNL     1       0.513  12.272  19.156  0.00  0.00    +0.000 A 
ATOM     11  H   UNL     1       0.616   8.368  17.244  0.00  0.00    +0.000 HD
ENDROOT
BRANCH   1  18
ATOM     12  O   UNL     1       3.138  17.411  17.030  0.00  0.00    +0.000 OA
ATOM     13  C   UNL     1       3.295  16.589  17.898  0.00  0.00    +0.000 C 
ATOM     14  N   UNL     1       4.432  16.387  18.638  0.00  0.00    +0.000 N 
ATOM     15  C   UNL     1       4.281  15.352  19.522  0.00  0.00    +0.000 C 
ATOM     16  O   UNL     1       5.093  14.916  20.309  0.00  0.00    +0.000 OA
ATOM     17  C   UNL     1       2.897  14.867  19.305  0.00  0.00    +0.000 C 
ATOM     18  C   UNL     1       2.287  13.866  19.952  0.00  0.00    +0.000 C 
ATOM     19  N   UNL     1       2.364  15.669  18.327  0.00  0.00    +0.000 N 
ATOM     20  H   UNL     1       5.270  16.931  18.530  0.00  0.00    +0.000 HD
ATOM     21  H   UNL     1       1.459  15.518  17.893  0.00  0.00    +0.000 HD
ENDBRANCH   1  18
BRANCH   5  22
ATOM     22  N   UNL     1      -3.037  11.238  18.798  0.00  0.00    +0.000 N 
ATOM     23  H   UNL     1      -3.365  11.371  19.757  0.00  0.00    +0.000 HD
BRANCH  22  24
ATOM     24  C   UNL     1      -3.856  11.760  17.686  0.00  0.00    +0.000 C 
ATOM     25  C   UNL     1      -4.140  10.969  16.435  0.00  0.00    +0.000 C 
ATOM     26  C   UNL     1      -5.210  11.127  17.477  0.00  0.00    +0.000 C 
ENDBRANCH  22  24
ENDBRANCH   5  22
BRANCH   8  27
ATOM     27  C   UNL     1       2.530   8.632  18.041  0.00  0.00    +0.000 C 
BRANCH  27  28
ATOM     28  C   UNL     1       2.554   7.230  18.603  0.00  0.00    +0.000 A 
ATOM     29  C   UNL     1       2.120   6.955  19.911  0.00  0.00    +0.000 A 
ATOM     30  C   UNL     1       2.160   5.651  20.418  0.00  0.00    +0.000 A 
ATOM     31  C   UNL     1       2.632   4.599  19.631  0.00  0.00    +0.000 A 
ATOM     32  C   UNL     1       3.026   4.855  18.311  0.00  0.00    +0.000 A 
ATOM     33  C   UNL     1       3.013   6.163  17.816  0.00  0.00    +0.000 A 
ATOM     34  O   UNL     1       3.451   3.905  17.415  0.00  0.00    +0.000 OA
ATOM     35  C   UNL     1       2.692   2.699  17.496  0.00  0.00    +0.000 C 
ATOM     36  C   UNL     1       3.276   1.761  18.536  0.00  0.00    +0.000 C 
ATOM     37  C   UNL     1       3.677   2.497  19.804  0.00  0.00    +0.000 C 
ATOM     38  O   UNL     1       2.643   3.374  20.250  0.00  0.00    +0.000 OA
ENDBRANCH  27  28
ENDBRANCH   8  27
TORSDOF 5
ENDMDL
MODEL 4
REMARK VINA RESULT:      -8.5      6.297      9.861
REMARK  Name = 
REMARK  5 active torsions:
REMARK  status: ('A' for Active; 'I' for Inactive)
REMARK    1  A    between atoms: C_7  and  C_8
REMARK    2  A    between atoms: C_12  and  N_13
REMARK    3  A    between atoms: N_13  and  C_14
REMARK    4  A    between atoms: N_19  and  C_20
REMARK    5  A    between atoms: C_20  and  C_21
REMARK                            x       y       z     vdW  Elec       q    Type
REMARK                         _______ _______ _______ _____ _____    ______ ____
ROOT
ATOM      1  C   UNL     1      -2.550  12.270  19.906  0.00  0.00    +0.000 A 
ATOM      2  C   UNL     1      -3.861  12.412  19.420  0.00  0.00    +0.000 A 
ATOM      3  N   UNL     1      -4.043  11.811  18.237  0.00  0.00    +0.000 NA
ATOM      4  N   UNL     1      -2.855  11.174  17.992  0.00  0.00    +0.000 N 
ATOM      5  C   UNL     1      -2.548  10.267  16.943  0.00  0.00    +0.000 A 
ATOM      6  C   UNL     1      -1.346   9.662  16.993  0.00  0.00    +0.000 A 
ATOM      7  C   UNL     1      -0.347  10.084  18.028  0.00  0.00    +0.000 A 
ATOM      8  N   UNL     1       0.918   9.541  17.928  0.00  0.00    +0.000 N 
ATOM      9  N   UNL     1      -0.640  10.942  18.963  0.00  0.00    +0.000 NA
ATOM     10  C   UNL     1      -1.913  11.458  18.989  0.00  0.00    +0.000 A 
ATOM     11  H   UNL     1       1.168   9.066  17.067  0.00  0.00    +0.000 HD
ENDROOT
BRANCH   1  18
ATOM     12  O   UNL     1      -5.090  12.249  24.543  0.00  0.00    +0.000 OA
ATOM     13  C   UNL     1      -4.076  12.547  23.963  0.00  0.00    +0.000 C 
ATOM     14  N   UNL     1      -2.972  13.156  24.504  0.00  0.00    +0.000 N 
ATOM     15  C   UNL     1      -2.005  13.378  23.560  0.00  0.00    +0.000 C 
ATOM     16  O   UNL     1      -0.922  13.901  23.707  0.00  0.00    +0.000 OA
ATOM     17  C   UNL     1      -2.577  12.844  22.300  0.00  0.00    +0.000 C 
ATOM     18  C   UNL     1      -1.989  12.828  21.097  0.00  0.00    +0.000 C 
ATOM     19  N   UNL     1      -3.814  12.348  22.626  0.00  0.00    +0.000 N 
ATOM     20  H   UNL     1      -2.896  13.411  25.474  0.00  0.00    +0.000 HD
ATOM     21  H   UNL     1      -4.488  12.003  21.951  0.00  0.00    +0.000 HD
ENDBRANCH   1  18
BRANCH   5  22
ATOM     22  N   UNL     1      -3.526   9.968  15.995  0.00  0.00    +0.000 N 
ATOM     23  H   UNL     1      -4.448   9.846  16.421  0.00  0.00    +0.000 HD
BRANCH  22  24
ATOM     24  C   UNL     1      -3.444  10.467  14.607  0.00  0.00    +0.000 C 
ATOM     25  C   UNL     1      -2.863   9.655  13.478  0.00  0.00    +0.000 C 
ATOM     26  C   UNL     1      -4.351   9.817  13.591  0.00  0.00    +0.000 C 
ENDBRANCH  22  24
ENDBRANCH   5  22
BRANCH   8  27
ATOM     27  C   UNL     1       1.835   9.334  19.029  0.00  0.00    +0.000 C 
BRANCH  27  28
ATOM     28  C   UNL     1       2.089   7.863  19.264  0.00  0.00    +0.000 A 
ATOM     29  C   UNL     1       1.712   7.235  20.464  0.00  0.00    +0.000 A 
ATOM     30  C   UNL     1       1.966   5.874  20.667  0.00  0.00    +0.000 A 
ATOM     31  C   UNL     1       2.596   5.114  19.679  0.00  0.00    +0.000 A 
ATOM     32  C   UNL     1       2.936   5.720  18.462  0.00  0.00    +0.000 A 
ATOM     33  C   UNL     1       2.708   7.088  18.272  0.00  0.00    +0.000 A 
ATOM     34  O   UNL     1       3.502   5.077  17.390  0.00  0.00    +0.000 OA
ATOM     35  C   UNL     1       2.947   3.779  17.176  0.00  0.00    +0.000 C 
ATOM     36  C   UNL     1       3.682   2.735  17.997  0.00  0.00    +0.000 C 
ATOM     37  C   UNL     1       3.967   3.220  19.409  0.00  0.00    +0.000 C 
ATOM     38  O   UNL     1       2.808   3.799  20.009  0.00  0.00    +0.000 OA
ENDBRANCH  27  28
ENDBRANCH   8  27
TORSDOF 5
ENDMDL
MODEL 5
REMARK VINA RESULT:      -8.5      5.567     10.280
REMARK  Name = 
REMARK  5 active torsions:
REMARK  status: ('A' for Active; 'I' for Inactive)
REMARK    1  A    between atoms: C_7  and  C_8
REMARK    2  A    between atoms: C_12  and  N_13
REMARK    3  A    between atoms: N_13  and  C_14
REMARK    4  A    between atoms: N_19  and  C_20
REMARK    5  A    between atoms: C_20  and  C_21
REMARK                            x       y       z     vdW  Elec       q    Type
REMARK                         _______ _______ _______ _____ _____    ______ ____
ROOT
ATOM      1  C   UNL     1       1.042  13.509  20.403  0.00  0.00    +0.000 A 
ATOM      2  C   UNL     1      -0.110  14.226  20.769  0.00  0.00    +0.000 A 
ATOM      3  N   UNL     1      -1.215  13.780  20.157  0.00  0.00    +0.000 NA
ATOM      4  N   UNL     1      -0.795  12.681  19.453  0.00  0.00    +0.000 N 
ATOM      5  C   UNL     1      -1.587  11.742  18.742  0.00  0.00    +0.000 A 
ATOM      6  C   UNL     1      -0.953  10.663  18.245  0.00  0.00    +0.000 A 
ATOM      7  C   UNL     1       0.542  10.585  18.315  0.00  0.00    +0.000 A 
ATOM      8  N   UNL     1       1.141   9.536  17.649  0.00  0.00    +0.000 N 
ATOM      9  N   UNL     1       1.253  11.475  18.946  0.00  0.00    +0.000 NA
ATOM     10  C   UNL     1       0.591  12.506  19.569  0.00  0.00    +0.000 A 
ATOM     11  H   UNL     1       0.582   9.007  16.988  0.00  0.00    +0.000 HD
ENDROOT
BRANCH   1  18
ATOM     12  O   UNL     1       4.109  17.164  18.127  0.00  0.00    +0.000 OA
ATOM     13  C   UNL     1       4.030  16.325  18.988  0.00  0.00    +0.000 C 
ATOM     14  N   UNL     1       5.013  15.970  19.878  0.00  0.00    +0.000 N 
ATOM     15  C   UNL     1       4.602  14.960  20.707  0.00  0.00    +0.000 C 
ATOM     16  O   UNL     1       5.228  14.416  21.590  0.00  0.00    +0.000 OA
ATOM     17  C   UNL     1       3.213  14.663  20.281  0.00  0.00    +0.000 C 
ATOM     18  C   UNL     1       2.392  13.747  20.810  0.00  0.00    +0.000 C 
ATOM     19  N   UNL     1       2.937  15.533  19.257  0.00  0.00    +0.000 N 
ATOM     20  H   UNL     1       5.921  16.400  19.905  0.00  0.00    +0.000 HD
ATOM     21  H   UNL     1       2.092  15.505  18.695  0.00  0.00    +0.000 HD
ENDBRANCH   1  18
BRANCH   5  22
ATOM     22  N   UNL     1      -2.970  11.919  18.690  0.00  0.00    +0.000 N 
ATOM     23  H   UNL     1      -3.237  12.892  18.857  0.00  0.00    +0.000 HD
BRANCH  22  24
ATOM     24  C   UNL     1      -3.830  11.082  17.830  0.00  0.00    +0.000 C 
ATOM     25  C   UNL     1      -5.284  10.823  18.130  0.00  0.00    +0.000 C 
ATOM     26  C   UNL     1      -4.908  11.789  17.045  0.00  0.00    +0.000 C 
ENDBRANCH  22  24
ENDBRANCH   5  22
BRANCH   8  27
ATOM     27  C   UNL     1       2.410   8.931  17.998  0.00  0.00    +0.000 C 
BRANCH  27  28
ATOM     28  C   UNL     1       2.214   7.655  18.783  0.00  0.00    +0.000 A 
ATOM     29  C   UNL     1       1.837   7.677  20.137  0.00  0.00    +0.000 A 
ATOM     30  C   UNL     1       1.671   6.484  20.851  0.00  0.00    +0.000 A 
ATOM     31  C   UNL     1       1.874   5.251  20.229  0.00  0.00    +0.000 A 
ATOM     32  C   UNL     1       2.207   5.217  18.868  0.00  0.00    +0.000 A 
ATOM     33  C   UNL     1       2.402   6.411  18.164  0.00  0.00    +0.000 A 
ATOM     34  O   UNL     1       2.376   4.076  18.124  0.00  0.00    +0.000 OA
ATOM     35  C   UNL     1       1.412   3.072  18.438  0.00  0.00    +0.000 C 
ATOM     36  C   UNL     1       1.887   2.207  19.592  0.00  0.00    +0.000 C 
ATOM     37  C   UNL     1       2.516   3.036  20.700  0.00  0.00    +0.000 C 
ATOM     38  O   UNL     1       1.702   4.158  21.042  0.00  0.00    +0.000 OA
ENDBRANCH  27  28
ENDBRANCH   8  27
TORSDOF 5
ENDMDL
MODEL 6
REMARK VINA RESULT:      -8.5      4.761      8.086
REMARK  Name = 
REMARK  5 active torsions:
REMARK  status: ('A' for Active; 'I' for Inactive)
REMARK    1  A    between atoms: C_7  and  C_8
REMARK    2  A    between atoms: C_12  and  N_13
REMARK    3  A    between atoms: N_13  and  C_14
REMARK    4  A    between atoms: N_19  and  C_20
REMARK    5  A    between atoms: C_20  and  C_21
REMARK                            x       y       z     vdW  Elec       q    Type
REMARK                         _______ _______ _______ _____ _____    ______ ____
ROOT
ATOM      1  C   UNL     1       4.891   3.988  16.715  0.00  0.00    +0.000 A 
ATOM      2  C   UNL     1       4.619   2.619  16.879  0.00  0.00    +0.000 A 
ATOM      3  N   UNL     1       3.612   2.390  17.733  0.00  0.00    +0.000 NA
ATOM      4  N   UNL     1       3.148   3.638  18.056  0.00  0.00    +0.000 N 
ATOM      5  C   UNL     1       1.994   3.974  18.813  0.00  0.00    +0.000 A 
ATOM      6  C   UNL     1       1.668   5.279  18.879  0.00  0.00    +0.000 A 
ATOM      7  C   UNL     1       2.600   6.305  18.309  0.00  0.00    +0.000 A 
ATOM      8  N   UNL     1       2.288   7.628  18.547  0.00  0.00    +0.000 N 
ATOM      9  N   UNL     1       3.670   5.975  17.644  0.00  0.00    +0.000 NA
ATOM     10  C   UNL     1       3.930   4.638  17.463  0.00  0.00    +0.000 A 
ATOM     11  H   UNL     1       1.588   7.835  19.252  0.00  0.00    +0.000 HD
ENDROOT
BRANCH   1  18
ATOM     12  O   UNL     1       5.835   2.642  11.690  0.00  0.00    +0.000 OA
ATOM     13  C   UNL     1       6.147   3.362  12.604  0.00  0.00    +0.000 C 
ATOM     14  N   UNL     1       7.138   4.312  12.598  0.00  0.00    +0.000 N 
ATOM     15  C   UNL     1       7.248   4.934  13.812  0.00  0.00    +0.000 C 
ATOM     16  O   UNL     1       8.024   5.807  14.138  0.00  0.00    +0.000 OA
ATOM     17  C   UNL     1       6.208   4.300  14.659  0.00  0.00    +0.000 C 
ATOM     18  C   UNL     1       5.927   4.590  15.935  0.00  0.00    +0.000 C 
ATOM     19  N   UNL     1       5.580   3.379  13.859  0.00  0.00    +0.000 N 
ATOM     20  H   UNL     1       7.711   4.512  11.797  0.00  0.00    +0.000 HD
ATOM     21  H   UNL     1       4.885   2.717  14.187  0.00  0.00    +0.000 HD
ENDBRANCH   1  18
BRANCH   5  22
ATOM     22  N   UNL     1       1.209   2.952  19.347  0.00  0.00    +0.000 N 
ATOM     23  H   UNL     1       0.671   2.467  18.625  0.00  0.00    +0.000 HD
BRANCH  22  24
ATOM     24  C   UNL     1       1.619   2.205  20.552  0.00  0.00    +0.000 C 
ATOM     25  C   UNL     1       2.703   2.683  21.484  0.00  0.00    +0.000 C 
ATOM     26  C   UNL     1       1.263   2.811  21.888  0.00  0.00    +0.000 C 
ENDBRANCH  22  24
ENDBRANCH   5  22
BRANCH   8  27
ATOM     27  C   UNL     1       2.652   8.745  17.701  0.00  0.00    +0.000 C 
BRANCH  27  28
ATOM     28  C   UNL     1       1.930  10.006  18.114  0.00  0.00    +0.000 A 
ATOM     29  C   UNL     1       2.496  11.277  17.913  0.00  0.00    +0.000 A 
ATOM     30  C   UNL     1       1.816  12.433  18.313  0.00  0.00    +0.000 A 
ATOM     31  C   UNL     1       0.561  12.345  18.916  0.00  0.00    +0.000 A 
ATOM     32  C   UNL     1      -0.032  11.085  19.082  0.00  0.00    +0.000 A 
ATOM     33  C   UNL     1       0.662   9.929  18.709  0.00  0.00    +0.000 A 
ATOM     34  O   UNL     1      -1.282  10.864  19.604  0.00  0.00    +0.000 OA
ATOM     35  C   UNL     1      -2.239  11.823  19.157  0.00  0.00    +0.000 C 
ATOM     36  C   UNL     1      -2.245  13.043  20.061  0.00  0.00    +0.000 C 
ATOM     37  C   UNL     1      -0.838  13.482  20.430  0.00  0.00    +0.000 C 
ATOM     38  O   UNL     1       0.009  13.547  19.282  0.00  0.00    +0.000 OA
ENDBRANCH  27  28
ENDBRANCH   8  27
TORSDOF 5
ENDMDL
MODEL 7
REMARK VINA RESULT:      -8.5      4.977      9.899
REMARK  Name = 
REMARK  5 active torsions:
REMARK  status: ('A' for Active; 'I' for Inactive)
REMARK    1  A    between atoms: C_7  and  C_8
REMARK    2  A    between atoms: C_12  and  N_13
REMARK    3  A    between atoms: N_13  and  C_14
REMARK    4  A    between atoms: N_19  and  C_20
REMARK    5  A    between atoms: C_20  and  C_21
REMARK                            x       y       z     vdW  Elec       q    Type
REMARK                         _______ _______ _______ _____ _____    ______ ____
ROOT
ATOM      1  C   UNL     1       1.027  13.128  19.880  0.00  0.00    +0.000 A 
ATOM      2  C   UNL     1      -0.212  13.706  20.205  0.00  0.00    +0.000 A 
ATOM      3  N   UNL     1      -1.248  13.047  19.669  0.00  0.00    +0.000 NA
ATOM      4  N   UNL     1      -0.681  11.955  19.065  0.00  0.00    +0.000 N 
ATOM      5  C   UNL     1      -1.338  10.845  18.470  0.00  0.00    +0.000 A 
ATOM      6  C   UNL     1      -0.560   9.824  18.063  0.00  0.00    +0.000 A 
ATOM      7  C   UNL     1       0.931   9.968  18.101  0.00  0.00    +0.000 A 
ATOM      8  N   UNL     1       1.668   8.953  17.525  0.00  0.00    +0.000 N 
ATOM      9  N   UNL     1       1.513  11.009  18.623  0.00  0.00    +0.000 NA
ATOM     10  C   UNL     1       0.716  11.992  19.160  0.00  0.00    +0.000 A 
ATOM     11  H   UNL     1       1.182   8.286  16.934  0.00  0.00    +0.000 HD
ENDROOT
BRANCH   1  18
ATOM     12  O   UNL     1       3.305  17.259  17.494  0.00  0.00    +0.000 OA
ATOM     13  C   UNL     1       3.414  16.418  18.351  0.00  0.00    +0.000 C 
ATOM     14  N   UNL     1       4.484  16.239  19.191  0.00  0.00    +0.000 N 
ATOM     15  C   UNL     1       4.294  15.173  20.030  0.00  0.00    +0.000 C 
ATOM     16  O   UNL     1       5.045  14.746  20.879  0.00  0.00    +0.000 OA
ATOM     17  C   UNL     1       2.958  14.640  19.667  0.00  0.00    +0.000 C 
ATOM     18  C   UNL     1       2.333  13.596  20.226  0.00  0.00    +0.000 C 
ATOM     19  N   UNL     1       2.487  15.449  18.664  0.00  0.00    +0.000 N 
ATOM     20  H   UNL     1       5.304  16.820  19.179  0.00  0.00    +0.000 HD
ATOM     21  H   UNL     1       1.635  15.275  18.141  0.00  0.00    +0.000 HD
ENDBRANCH   1  18
BRANCH   5  22
ATOM     22  N   UNL     1      -2.732  10.817  18.438  0.00  0.00    +0.000 N 
ATOM     23  H   UNL     1      -3.134  10.696  19.371  0.00  0.00    +0.000 HD
BRANCH  22  24
ATOM     24  C   UNL     1      -3.503  11.561  17.422  0.00  0.00    +0.000 C 
ATOM     25  C   UNL     1      -4.018  10.926  16.156  0.00  0.00    +0.000 C 
ATOM     26  C   UNL     1      -4.965  11.216  17.283  0.00  0.00    +0.000 C 
ENDBRANCH  22  24
ENDBRANCH   5  22
BRANCH   8  27
ATOM     27  C   UNL     1       3.014   8.574  17.897  0.00  0.00    +0.000 C 
BRANCH  27  28
ATOM     28  C   UNL     1       3.178   7.072  17.916  0.00  0.00    +0.000 A 
ATOM     29  C   UNL     1       4.326   6.451  17.397  0.00  0.00    +0.000 A 
ATOM     30  C   UNL     1       4.454   5.057  17.414  0.00  0.00    +0.000 A 
ATOM     31  C   UNL     1       3.442   4.259  17.951  0.00  0.00    +0.000 A 
ATOM     32  C   UNL     1       2.312   4.870  18.512  0.00  0.00    +0.000 A 
ATOM     33  C   UNL     1       2.173   6.262  18.466  0.00  0.00    +0.000 A 
ATOM     34  O   UNL     1       1.277   4.207  19.123  0.00  0.00    +0.000 OA
ATOM     35  C   UNL     1       1.727   3.124  19.935  0.00  0.00    +0.000 C 
ATOM     36  C   UNL     1       1.857   1.852  19.117  0.00  0.00    +0.000 C 
ATOM     37  C   UNL     1       2.500   2.110  17.765  0.00  0.00    +0.000 C 
ATOM     38  O   UNL     1       3.677   2.908  17.888  0.00  0.00    +0.000 OA
ENDBRANCH  27  28
ENDBRANCH   8  27
TORSDOF 5
ENDMDL
MODEL 8
REMARK VINA RESULT:      -8.4      5.142      9.603
REMARK  Name = 
REMARK  5 active torsions:
REMARK  status: ('A' for Active; 'I' for Inactive)
REMARK    1  A    between atoms: C_7  and  C_8
REMARK    2  A    between atoms: C_12  and  N_13
REMARK    3  A    between atoms: N_13  and  C_14
REMARK    4  A    between atoms: N_19  and  C_20
REMARK    5  A    between atoms: C_20  and  C_21
REMARK                            x       y       z     vdW  Elec       q    Type
REMARK                         _______ _______ _______ _____ _____    ______ ____
ROOT
ATOM      1  C   UNL     1       0.496  12.728  20.185  0.00  0.00    +0.000 A 
ATOM      2  C   UNL     1      -0.792  13.246  20.405  0.00  0.00    +0.000 A 
ATOM      3  N   UNL     1      -1.729  12.634  19.669  0.00  0.00    +0.000 NA
ATOM      4  N   UNL     1      -1.057  11.625  19.030  0.00  0.00    +0.000 N 
ATOM      5  C   UNL     1      -1.597  10.578  18.237  0.00  0.00    +0.000 A 
ATOM      6  C   UNL     1      -0.742   9.622  17.827  0.00  0.00    +0.000 A 
ATOM      7  C   UNL     1       0.728   9.786  18.075  0.00  0.00    +0.000 A 
ATOM      8  N   UNL     1       1.563   8.854  17.494  0.00  0.00    +0.000 N 
ATOM      9  N   UNL     1       1.205  10.772  18.780  0.00  0.00    +0.000 NA
ATOM     10  C   UNL     1       0.315  11.675  19.311  0.00  0.00    +0.000 A 
ATOM     11  H   UNL     1       1.179   8.249  16.775  0.00  0.00    +0.000 HD
ENDROOT
BRANCH   1  18
ATOM     12  O   UNL     1       4.126  15.356  17.380  0.00  0.00    +0.000 OA
ATOM     13  C   UNL     1       3.828  14.918  18.463  0.00  0.00    +0.000 C 
ATOM     14  N   UNL     1       4.576  14.991  19.611  0.00  0.00    +0.000 N 
ATOM     15  C   UNL     1       3.955  14.366  20.659  0.00  0.00    +0.000 C 
ATOM     16  O   UNL     1       4.350  14.244  21.798  0.00  0.00    +0.000 OA
ATOM     17  C   UNL     1       2.683  13.853  20.094  0.00  0.00    +0.000 C 
ATOM     18  C   UNL     1       1.731  13.176  20.748  0.00  0.00    +0.000 C 
ATOM     19  N   UNL     1       2.672  14.238  18.777  0.00  0.00    +0.000 N 
ATOM     20  H   UNL     1       5.472  15.444  19.663  0.00  0.00    +0.000 HD
ATOM     21  H   UNL     1       1.971  13.948  18.102  0.00  0.00    +0.000 HD
ENDBRANCH   1  18
BRANCH   5  22
ATOM     22  N   UNL     1      -2.973  10.531  18.019  0.00  0.00    +0.000 N 
ATOM     23  H   UNL     1      -3.502  10.621  18.890  0.00  0.00    +0.000 HD
BRANCH  22  24
ATOM     24  C   UNL     1      -3.580  11.018  16.764  0.00  0.00    +0.000 C 
ATOM     25  C   UNL     1      -2.829  11.076  15.459  0.00  0.00    +0.000 C 
ATOM     26  C   UNL     1      -3.844   9.994  15.687  0.00  0.00    +0.000 C 
ENDBRANCH  22  24
ENDBRANCH   5  22
BRANCH   8  27
ATOM     27  C   UNL     1       2.862   8.459  17.996  0.00  0.00    +0.000 C 
BRANCH  27  28
ATOM     28  C   UNL     1       2.904   6.981  18.311  0.00  0.00    +0.000 A 
ATOM     29  C   UNL     1       3.672   6.088  17.544  0.00  0.00    +0.000 A 
ATOM     30  C   UNL     1       3.688   4.721  17.844  0.00  0.00    +0.000 A 
ATOM     31  C   UNL     1       2.943   4.220  18.914  0.00  0.00    +0.000 A 
ATOM     32  C   UNL     1       2.209   5.108  19.711  0.00  0.00    +0.000 A 
ATOM     33  C   UNL     1       2.169   6.470  19.391  0.00  0.00    +0.000 A 
ATOM     34  O   UNL     1       1.484   4.757  20.823  0.00  0.00    +0.000 OA
ATOM     35  C   UNL     1       2.152   3.784  21.625  0.00  0.00    +0.000 C 
ATOM     36  C   UNL     1       1.825   2.378  21.155  0.00  0.00    +0.000 C 
ATOM     37  C   UNL     1       1.851   2.266  19.640  0.00  0.00    +0.000 C 
ATOM     38  O   UNL     1       3.026   2.862  19.089  0.00  0.00    +0.000 OA
ENDBRANCH  27  28
ENDBRANCH   8  27
TORSDOF 5
ENDMDL
MODEL 9
REMARK VINA RESULT:      -8.3      4.731      7.583
REMARK  Name = 
REMARK  5 active torsions:
REMARK  status: ('A' for Active; 'I' for Inactive)
REMARK    1  A    between atoms: C_7  and  C_8
REMARK    2  A    between atoms: C_12  and  N_13
REMARK    3  A    between atoms: N_13  and  C_14
REMARK    4  A    between atoms: N_19  and  C_20
REMARK    5  A    between atoms: C_20  and  C_21
REMARK                            x       y       z     vdW  Elec       q    Type
REMARK                         _______ _______ _______ _____ _____    ______ ____
ROOT
ATOM      1  C   UNL     1       4.904   3.976  16.746  0.00  0.00    +0.000 A 
ATOM      2  C   UNL     1       4.660   2.603  16.913  0.00  0.00    +0.000 A 
ATOM      3  N   UNL     1       3.654   2.353  17.760  0.00  0.00    +0.000 NA
ATOM      4  N   UNL     1       3.160   3.592  18.077  0.00  0.00    +0.000 N 
ATOM      5  C   UNL     1       1.994   3.905  18.825  0.00  0.00    +0.000 A 
ATOM      6  C   UNL     1       1.638   5.202  18.884  0.00  0.00    +0.000 A 
ATOM      7  C   UNL     1       2.551   6.247  18.317  0.00  0.00    +0.000 A 
ATOM      8  N   UNL     1       2.208   7.563  18.550  0.00  0.00    +0.000 N 
ATOM      9  N   UNL     1       3.633   5.939  17.661  0.00  0.00    +0.000 NA
ATOM     10  C   UNL     1       3.924   4.607  17.486  0.00  0.00    +0.000 A 
ATOM     11  H   UNL     1       1.499   7.757  19.250  0.00  0.00    +0.000 HD
ENDROOT
BRANCH   1  18
ATOM     12  O   UNL     1       5.892   2.657  11.723  0.00  0.00    +0.000 OA
ATOM     13  C   UNL     1       6.187   3.382  12.640  0.00  0.00    +0.000 C 
ATOM     14  N   UNL     1       7.160   4.349  12.638  0.00  0.00    +0.000 N 
ATOM     15  C   UNL     1       7.254   4.972  13.854  0.00  0.00    +0.000 C 
ATOM     16  O   UNL     1       8.012   5.858  14.185  0.00  0.00    +0.000 OA
ATOM     17  C   UNL     1       6.223   4.317  14.696  0.00  0.00    +0.000 C 
ATOM     18  C   UNL     1       5.931   4.599  15.971  0.00  0.00    +0.000 C 
ATOM     19  N   UNL     1       5.615   3.386  13.892  0.00  0.00    +0.000 N 
ATOM     20  H   UNL     1       7.733   4.562  11.840  0.00  0.00    +0.000 HD
ATOM     21  H   UNL     1       4.931   2.710  14.216  0.00  0.00    +0.000 HD
ENDBRANCH   1  18
BRANCH   5  22
ATOM     22  N   UNL     1       1.228   2.867  19.356  0.00  0.00    +0.000 N 
ATOM     23  H   UNL     1       0.733   2.346  18.629  0.00  0.00    +0.000 HD
BRANCH  22  24
ATOM     24  C   UNL     1       1.621   2.164  20.593  0.00  0.00    +0.000 C 
ATOM     25  C   UNL     1       2.697   2.673  21.519  0.00  0.00    +0.000 C 
ATOM     26  C   UNL     1       1.253   2.820  21.902  0.00  0.00    +0.000 C 
ENDBRANCH  22  24
ENDBRANCH   5  22
BRANCH   8  27
ATOM     27  C   UNL     1       2.554   8.686  17.703  0.00  0.00    +0.000 C 
BRANCH  27  28
ATOM     28  C   UNL     1       1.803   9.933  18.109  0.00  0.00    +0.000 A 
ATOM     29  C   UNL     1       0.461   9.881  18.522  0.00  0.00    +0.000 A 
ATOM     30  C   UNL     1      -0.221  11.048  18.884  0.00  0.00    +0.000 A 
ATOM     31  C   UNL     1       0.422  12.287  18.843  0.00  0.00    +0.000 A 
ATOM     32  C   UNL     1       1.774  12.345  18.475  0.00  0.00    +0.000 A 
ATOM     33  C   UNL     1       2.444  11.180  18.085  0.00  0.00    +0.000 A 
ATOM     34  O   UNL     1       2.537  13.485  18.452  0.00  0.00    +0.000 OA
ATOM     35  C   UNL     1       2.274  14.342  19.562  0.00  0.00    +0.000 C 
ATOM     36  C   UNL     1       1.127  15.287  19.256  0.00  0.00    +0.000 C 
ATOM     37  C   UNL     1      -0.018  14.580  18.549  0.00  0.00    +0.000 C 
ATOM     38  O   UNL     1      -0.360  13.356  19.199  0.00  0.00    +0.000 OA
ENDBRANCH  27  28
ENDBRANCH   8  27
TORSDOF 5
ENDMDL
