MODEL 1
REMARK VINA RESULT:      -7.1      0.000      0.000
REMARK  Name = 
REMARK  10 active torsions:
REMARK  status: ('A' for Active; 'I' for Inactive)
REMARK    1  A    between atoms: C_1  and  C_2
REMARK    2  A    between atoms: C_6  and  C_7
REMARK    3  A    between atoms: C_7  and  N_8
REMARK    4  A    between atoms: N_8  and  C_9
REMARK    5  A    between atoms: N_8  and  C_10
REMARK    6  A    between atoms: C_10  and  C_11
REMARK    7  A    between atoms: C_13  and  C_14
REMARK    8  A    between atoms: C_14  and  C_15
REMARK    9  A    between atoms: C_15  and  C_16
REMARK   10  A    between atoms: C_15  and  C_17
REMARK                            x       y       z     vdW  Elec       q    Type
REMARK                         _______ _______ _______ _____ _____    ______ ____
ROOT
ATOM      1  N   UNL     1       5.567   5.215  17.092  0.00  0.00    +0.000 NA
ATOM      2  C   UNL     1       5.449   6.669  17.274  0.00  0.00    +0.000 C 
ENDROOT
BRANCH   1   3
ATOM      3  C   UNL     1       5.214   4.484  18.326  0.00  0.00    +0.000 C 
BRANCH   3   9
ATOM      4  C   UNL     1       2.008   5.340  17.911  0.00  0.00    +0.000 C 
ATOM      5  C   UNL     1       2.645   4.005  17.991  0.00  0.00    +0.000 A 
ATOM      6  N   UNL     1       1.877   2.869  17.887  0.00  0.00    +0.000 NA
ATOM      7  C   UNL     1       2.720   1.864  17.980  0.00  0.00    +0.000 A 
ATOM      8  N   UNL     1       3.997   2.299  18.149  0.00  0.00    +0.000 N 
ATOM      9  C   UNL     1       3.976   3.672  18.159  0.00  0.00    +0.000 A 
ATOM     10  H   UNL     1       4.832   1.722  18.219  0.00  0.00    +0.000 HD
ENDBRANCH   3   9
ENDBRANCH   1   3
BRANCH   1  11
ATOM     11  C   UNL     1       6.963   4.902  16.680  0.00  0.00    +0.000 C 
BRANCH  11  12
ATOM     12  C   UNL     1       7.149   4.800  15.203  0.00  0.00    +0.000 A 
ATOM     13  N   UNL     1       6.539   4.009  14.346  0.00  0.00    +0.000 NA
ATOM     14  C   UNL     1       7.011   4.472  13.147  0.00  0.00    +0.000 A 
ATOM     15  N   UNL     1       7.917   5.455  13.235  0.00  0.00    +0.000 NA
ATOM     16  O   UNL     1       8.008   5.681  14.612  0.00  0.00    +0.000 OA
BRANCH  14  17
ATOM     17  C   UNL     1       6.467   3.995  11.849  0.00  0.00    +0.000 C 
BRANCH  17  18
ATOM     18  C   UNL     1       5.436   2.860  12.014  0.00  0.00    +0.000 C 
ATOM     19  C   UNL     1       4.079   3.212  11.396  0.00  0.00    +0.000 C 
ATOM     20  C   UNL     1       5.965   1.572  11.381  0.00  0.00    +0.000 C 
ENDBRANCH  17  18
ENDBRANCH  14  17
ENDBRANCH  11  12
ENDBRANCH   1  11
TORSDOF 6
ENDMDL
MODEL 2
REMARK VINA RESULT:      -6.8      1.135      1.234
REMARK  Name = 
REMARK  10 active torsions:
REMARK  status: ('A' for Active; 'I' for Inactive)
REMARK    1  A    between atoms: C_1  and  C_2
REMARK    2  A    between atoms: C_6  and  C_7
REMARK    3  A    between atoms: C_7  and  N_8
REMARK    4  A    between atoms: N_8  and  C_9
REMARK    5  A    between atoms: N_8  and  C_10
REMARK    6  A    between atoms: C_10  and  C_11
REMARK    7  A    between atoms: C_13  and  C_14
REMARK    8  A    between atoms: C_14  and  C_15
REMARK    9  A    between atoms: C_15  and  C_16
REMARK   10  A    between atoms: C_15  and  C_17
REMARK                            x       y       z     vdW  Elec       q    Type
REMARK                         _______ _______ _______ _____ _____    ______ ____
ROOT
ATOM      1  N   UNL     1       5.928   5.488  17.801  0.00  0.00    +0.000 NA
ATOM      2  C   UNL     1       7.190   5.739  18.511  0.00  0.00    +0.000 C 
ENDROOT
BRANCH   1   3
ATOM      3  C   UNL     1       4.779   5.464  18.729  0.00  0.00    +0.000 C 
BRANCH   3   9
ATOM      4  C   UNL     1       1.930   3.957  17.838  0.00  0.00    +0.000 C 
ATOM      5  C   UNL     1       3.096   3.442  18.592  0.00  0.00    +0.000 A 
ATOM      6  N   UNL     1       3.105   2.142  19.044  0.00  0.00    +0.000 NA
ATOM      7  C   UNL     1       4.260   1.988  19.652  0.00  0.00    +0.000 A 
ATOM      8  N   UNL     1       4.995   3.133  19.624  0.00  0.00    +0.000 N 
ATOM      9  C   UNL     1       4.269   4.082  18.947  0.00  0.00    +0.000 A 
ATOM     10  H   UNL     1       5.931   3.264  19.999  0.00  0.00    +0.000 HD
ENDBRANCH   3   9
ENDBRANCH   1   3
BRANCH   1  11
ATOM     11  C   UNL     1       6.043   4.192  17.076  0.00  0.00    +0.000 C 
BRANCH  11  12
ATOM     12  C   UNL     1       6.538   4.324  15.675  0.00  0.00    +0.000 A 
ATOM     13  N   UNL     1       6.316   3.539  14.643  0.00  0.00    +0.000 NA
ATOM     14  C   UNL     1       6.894   4.243  13.621  0.00  0.00    +0.000 A 
ATOM     15  N   UNL     1       7.506   5.378  13.989  0.00  0.00    +0.000 NA
ATOM     16  O   UNL     1       7.264   5.437  15.365  0.00  0.00    +0.000 OA
BRANCH  14  17
ATOM     17  C   UNL     1       6.748   3.833  12.200  0.00  0.00    +0.000 C 
BRANCH  17  18
ATOM     18  C   UNL     1       5.617   2.808  11.987  0.00  0.00    +0.000 C 
ATOM     19  C   UNL     1       4.387   3.429  11.317  0.00  0.00    +0.000 C 
ATOM     20  C   UNL     1       6.119   1.636  11.142  0.00  0.00    +0.000 C 
ENDBRANCH  17  18
ENDBRANCH  14  17
ENDBRANCH  11  12
ENDBRANCH   1  11
TORSDOF 6
ENDMDL
MODEL 3
REMARK VINA RESULT:      -6.7      1.369      1.950
REMARK  Name = 
REMARK  10 active torsions:
REMARK  status: ('A' for Active; 'I' for Inactive)
REMARK    1  A    between atoms: C_1  and  C_2
REMARK    2  A    between atoms: C_6  and  C_7
REMARK    3  A    between atoms: C_7  and  N_8
REMARK    4  A    between atoms: N_8  and  C_9
REMARK    5  A    between atoms: N_8  and  C_10
REMARK    6  A    between atoms: C_10  and  C_11
REMARK    7  A    between atoms: C_13  and  C_14
REMARK    8  A    between atoms: C_14  and  C_15
REMARK    9  A    between atoms: C_15  and  C_16
REMARK   10  A    between atoms: C_15  and  C_17
REMARK                            x       y       z     vdW  Elec       q    Type
REMARK                         _______ _______ _______ _____ _____    ______ ____
ROOT
ATOM      1  N   UNL     1       4.869   5.018  17.605  0.00  0.00    +0.000 NA
ATOM      2  C   UNL     1       6.195   4.461  17.907  0.00  0.00    +0.000 C 
ENDROOT
BRANCH   1   3
ATOM      3  C   UNL     1       3.876   3.953  17.359  0.00  0.00    +0.000 C 
BRANCH   3   9
ATOM      4  C   UNL     1       4.316   2.193  20.169  0.00  0.00    +0.000 C 
ATOM      5  C   UNL     1       3.161   2.998  19.708  0.00  0.00    +0.000 A 
ATOM      6  N   UNL     1       2.037   3.102  20.494  0.00  0.00    +0.000 NA
ATOM      7  C   UNL     1       1.212   3.879  19.829  0.00  0.00    +0.000 A 
ATOM      8  N   UNL     1       1.748   4.276  18.643  0.00  0.00    +0.000 N 
ATOM      9  C   UNL     1       3.001   3.723  18.542  0.00  0.00    +0.000 A 
ATOM     10  H   UNL     1       1.322   4.899  17.962  0.00  0.00    +0.000 HD
ENDBRANCH   3   9
ENDBRANCH   1   3
BRANCH   1  11
ATOM     11  C   UNL     1       4.990   5.905  16.414  0.00  0.00    +0.000 C 
BRANCH  11  12
ATOM     12  C   UNL     1       5.831   5.338  15.321  0.00  0.00    +0.000 A 
ATOM     13  N   UNL     1       5.484   4.516  14.353  0.00  0.00    +0.000 NA
ATOM     14  C   UNL     1       6.622   4.477  13.593  0.00  0.00    +0.000 A 
ATOM     15  N   UNL     1       7.655   5.178  14.081  0.00  0.00    +0.000 NA
ATOM     16  O   UNL     1       7.126   5.760  15.237  0.00  0.00    +0.000 OA
BRANCH  14  17
ATOM     17  C   UNL     1       6.662   3.801  12.270  0.00  0.00    +0.000 C 
BRANCH  17  18
ATOM     18  C   UNL     1       5.535   2.764  12.094  0.00  0.00    +0.000 C 
ATOM     19  C   UNL     1       4.341   3.329  11.317  0.00  0.00    +0.000 C 
ATOM     20  C   UNL     1       6.068   1.523  11.376  0.00  0.00    +0.000 C 
ENDBRANCH  17  18
ENDBRANCH  14  17
ENDBRANCH  11  12
ENDBRANCH   1  11
TORSDOF 6
ENDMDL
MODEL 4
REMARK VINA RESULT:      -6.7      1.186      1.541
REMARK  Name = 
REMARK  10 active torsions:
REMARK  status: ('A' for Active; 'I' for Inactive)
REMARK    1  A    between atoms: C_1  and  C_2
REMARK    2  A    between atoms: C_6  and  C_7
REMARK    3  A    between atoms: C_7  and  N_8
REMARK    4  A    between atoms: N_8  and  C_9
REMARK    5  A    between atoms: N_8  and  C_10
REMARK    6  A    between atoms: C_10  and  C_11
REMARK    7  A    between atoms: C_13  and  C_14
REMARK    8  A    between atoms: C_14  and  C_15
REMARK    9  A    between atoms: C_15  and  C_16
REMARK   10  A    between atoms: C_15  and  C_17
REMARK                            x       y       z     vdW  Elec       q    Type
REMARK                         _______ _______ _______ _____ _____    ______ ____
ROOT
ATOM      1  N   UNL     1       6.444   6.032  17.674  0.00  0.00    +0.000 NA
ATOM      2  C   UNL     1       7.017   7.382  17.772  0.00  0.00    +0.000 C 
ENDROOT
BRANCH   1   3
ATOM      3  C   UNL     1       6.125   5.480  19.006  0.00  0.00    +0.000 C 
BRANCH   3   9
ATOM      4  C   UNL     1       2.893   5.822  18.220  0.00  0.00    +0.000 C 
ATOM      5  C   UNL     1       3.661   4.625  18.633  0.00  0.00    +0.000 A 
ATOM      6  N   UNL     1       3.032   3.406  18.740  0.00  0.00    +0.000 NA
ATOM      7  C   UNL     1       3.968   2.557  19.105  0.00  0.00    +0.000 A 
ATOM      8  N   UNL     1       5.172   3.174  19.248  0.00  0.00    +0.000 N 
ATOM      9  C   UNL     1       5.001   4.504  18.950  0.00  0.00    +0.000 A 
ATOM     10  H   UNL     1       6.054   2.734  19.495  0.00  0.00    +0.000 HD
ENDBRANCH   3   9
ENDBRANCH   1   3
BRANCH   1  11
ATOM     11  C   UNL     1       7.419   5.157  16.964  0.00  0.00    +0.000 C 
BRANCH  11  12
ATOM     12  C   UNL     1       6.955   4.701  15.622  0.00  0.00    +0.000 A 
ATOM     13  N   UNL     1       5.952   3.904  15.321  0.00  0.00    +0.000 NA
ATOM     14  C   UNL     1       5.931   3.979  13.954  0.00  0.00    +0.000 A 
ATOM     15  N   UNL     1       6.903   4.725  13.411  0.00  0.00    +0.000 NA
ATOM     16  O   UNL     1       7.588   5.215  14.527  0.00  0.00    +0.000 OA
BRANCH  14  17
ATOM     17  C   UNL     1       4.840   3.370  13.148  0.00  0.00    +0.000 C 
BRANCH  17  18
ATOM     18  C   UNL     1       5.220   3.195  11.664  0.00  0.00    +0.000 C 
ATOM     19  C   UNL     1       5.839   1.822  11.380  0.00  0.00    +0.000 C 
ATOM     20  C   UNL     1       3.988   3.391  10.778  0.00  0.00    +0.000 C 
ENDBRANCH  17  18
ENDBRANCH  14  17
ENDBRANCH  11  12
ENDBRANCH   1  11
TORSDOF 6
ENDMDL
MODEL 5
REMARK VINA RESULT:      -6.6      1.611      1.939
REMARK  Name = 
REMARK  10 active torsions:
REMARK  status: ('A' for Active; 'I' for Inactive)
REMARK    1  A    between atoms: C_1  and  C_2
REMARK    2  A    between atoms: C_6  and  C_7
REMARK    3  A    between atoms: C_7  and  N_8
REMARK    4  A    between atoms: N_8  and  C_9
REMARK    5  A    between atoms: N_8  and  C_10
REMARK    6  A    between atoms: C_10  and  C_11
REMARK    7  A    between atoms: C_13  and  C_14
REMARK    8  A    between atoms: C_14  and  C_15
REMARK    9  A    between atoms: C_15  and  C_16
REMARK   10  A    between atoms: C_15  and  C_17
REMARK                            x       y       z     vdW  Elec       q    Type
REMARK                         _______ _______ _______ _____ _____    ______ ____
ROOT
ATOM      1  N   UNL     1       5.230   5.530  17.845  0.00  0.00    +0.000 NA
ATOM      2  C   UNL     1       5.781   5.445  19.205  0.00  0.00    +0.000 C 
ENDROOT
BRANCH   1   3
ATOM      3  C   UNL     1       3.798   5.892  17.862  0.00  0.00    +0.000 C 
BRANCH   3   9
ATOM      4  C   UNL     1       2.241   2.932  17.849  0.00  0.00    +0.000 C 
ATOM      5  C   UNL     1       2.396   3.934  18.930  0.00  0.00    +0.000 A 
ATOM      6  N   UNL     1       1.845   3.700  20.168  0.00  0.00    +0.000 NA
ATOM      7  C   UNL     1       2.161   4.748  20.898  0.00  0.00    +0.000 A 
ATOM      8  N   UNL     1       2.884   5.653  20.184  0.00  0.00    +0.000 N 
ATOM      9  C   UNL     1       3.049   5.152  18.915  0.00  0.00    +0.000 A 
ATOM     10  H   UNL     1       3.270   6.528  20.526  0.00  0.00    +0.000 HD
ENDBRANCH   3   9
ENDBRANCH   1   3
BRANCH   1  11
ATOM     11  C   UNL     1       5.430   4.216  17.172  0.00  0.00    +0.000 C 
BRANCH  11  12
ATOM     12  C   UNL     1       6.117   4.312  15.851  0.00  0.00    +0.000 A 
ATOM     13  N   UNL     1       5.855   3.668  14.734  0.00  0.00    +0.000 NA
ATOM     14  C   UNL     1       6.706   4.275  13.850  0.00  0.00    +0.000 A 
ATOM     15  N   UNL     1       7.510   5.205  14.384  0.00  0.00    +0.000 NA
ATOM     16  O   UNL     1       7.114   5.236  15.724  0.00  0.00    +0.000 OA
BRANCH  14  17
ATOM     17  C   UNL     1       6.653   4.000  12.391  0.00  0.00    +0.000 C 
BRANCH  17  18
ATOM     18  C   UNL     1       5.787   2.772  12.045  0.00  0.00    +0.000 C 
ATOM     19  C   UNL     1       4.460   3.163  11.387  0.00  0.00    +0.000 C 
ATOM     20  C   UNL     1       6.556   1.829  11.118  0.00  0.00    +0.000 C 
ENDBRANCH  17  18
ENDBRANCH  14  17
ENDBRANCH  11  12
ENDBRANCH   1  11
TORSDOF 6
ENDMDL
MODEL 6
REMARK VINA RESULT:      -6.6      1.639      1.831
REMARK  Name = 
REMARK  10 active torsions:
REMARK  status: ('A' for Active; 'I' for Inactive)
REMARK    1  A    between atoms: C_1  and  C_2
REMARK    2  A    between atoms: C_6  and  C_7
REMARK    3  A    between atoms: C_7  and  N_8
REMARK    4  A    between atoms: N_8  and  C_9
REMARK    5  A    between atoms: N_8  and  C_10
REMARK    6  A    between atoms: C_10  and  C_11
REMARK    7  A    between atoms: C_13  and  C_14
REMARK    8  A    between atoms: C_14  and  C_15
REMARK    9  A    between atoms: C_15  and  C_16
REMARK   10  A    between atoms: C_15  and  C_17
REMARK                            x       y       z     vdW  Elec       q    Type
REMARK                         _______ _______ _______ _____ _____    ______ ____
ROOT
ATOM      1  N   UNL     1       4.784   4.344  17.584  0.00  0.00    +0.000 NA
ATOM      2  C   UNL     1       3.435   3.862  17.255  0.00  0.00    +0.000 C 
ENDROOT
BRANCH   1   3
ATOM      3  C   UNL     1       4.881   4.760  18.998  0.00  0.00    +0.000 C 
BRANCH   3   9
ATOM      4  C   UNL     1       2.076   6.132  20.197  0.00  0.00    +0.000 C 
ATOM      5  C   UNL     1       2.607   4.754  20.327  0.00  0.00    +0.000 A 
ATOM      6  N   UNL     1       1.903   3.810  21.039  0.00  0.00    +0.000 NA
ATOM      7  C   UNL     1       2.614   2.707  20.960  0.00  0.00    +0.000 A 
ATOM      8  N   UNL     1       3.751   2.897  20.238  0.00  0.00    +0.000 N 
ATOM      9  C   UNL     1       3.769   4.206  19.819  0.00  0.00    +0.000 A 
ATOM     10  H   UNL     1       4.451   2.196  20.010  0.00  0.00    +0.000 HD
ENDBRANCH   3   9
ENDBRANCH   1   3
BRANCH   1  11
ATOM     11  C   UNL     1       5.112   5.482  16.680  0.00  0.00    +0.000 C 
BRANCH  11  12
ATOM     12  C   UNL     1       5.919   5.093  15.487  0.00  0.00    +0.000 A 
ATOM     13  N   UNL     1       5.591   4.295  14.493  0.00  0.00    +0.000 NA
ATOM     14  C   UNL     1       6.656   4.445  13.646  0.00  0.00    +0.000 A 
ATOM     15  N   UNL     1       7.636   5.238  14.101  0.00  0.00    +0.000 NA
ATOM     16  O   UNL     1       7.142   5.678  15.333  0.00  0.00    +0.000 OA
BRANCH  14  17
ATOM     17  C   UNL     1       6.664   3.862  12.279  0.00  0.00    +0.000 C 
BRANCH  17  18
ATOM     18  C   UNL     1       5.585   2.777  12.085  0.00  0.00    +0.000 C 
ATOM     19  C   UNL     1       4.347   3.311  11.357  0.00  0.00    +0.000 C 
ATOM     20  C   UNL     1       6.162   1.593  11.308  0.00  0.00    +0.000 C 
ENDBRANCH  17  18
ENDBRANCH  14  17
ENDBRANCH  11  12
ENDBRANCH   1  11
TORSDOF 6
ENDMDL
MODEL 7
REMARK VINA RESULT:      -6.6      1.305      1.481
REMARK  Name = 
REMARK  10 active torsions:
REMARK  status: ('A' for Active; 'I' for Inactive)
REMARK    1  A    between atoms: C_1  and  C_2
REMARK    2  A    between atoms: C_6  and  C_7
REMARK    3  A    between atoms: C_7  and  N_8
REMARK    4  A    between atoms: N_8  and  C_9
REMARK    5  A    between atoms: N_8  and  C_10
REMARK    6  A    between atoms: C_10  and  C_11
REMARK    7  A    between atoms: C_13  and  C_14
REMARK    8  A    between atoms: C_14  and  C_15
REMARK    9  A    between atoms: C_15  and  C_16
REMARK   10  A    between atoms: C_15  and  C_17
REMARK                            x       y       z     vdW  Elec       q    Type
REMARK                         _______ _______ _______ _____ _____    ______ ____
ROOT
ATOM      1  N   UNL     1       4.324   5.607  17.231  0.00  0.00    +0.000 NA
ATOM      2  C   UNL     1       4.571   6.206  18.551  0.00  0.00    +0.000 C 
ENDROOT
BRANCH   1   3
ATOM      3  C   UNL     1       4.787   4.206  17.176  0.00  0.00    +0.000 C 
BRANCH   3   9
ATOM      4  C   UNL     1       1.688   3.385  18.131  0.00  0.00    +0.000 C 
ATOM      5  C   UNL     1       3.001   3.058  18.736  0.00  0.00    +0.000 A 
ATOM      6  N   UNL     1       3.060   2.296  19.880  0.00  0.00    +0.000 NA
ATOM      7  C   UNL     1       4.340   2.171  20.154  0.00  0.00    +0.000 A 
ATOM      8  N   UNL     1       5.111   2.826  19.244  0.00  0.00    +0.000 N 
ATOM      9  C   UNL     1       4.273   3.404  18.322  0.00  0.00    +0.000 A 
ATOM     10  H   UNL     1       6.126   2.859  19.219  0.00  0.00    +0.000 HD
ENDBRANCH   3   9
ENDBRANCH   1   3
BRANCH   1  11
ATOM     11  C   UNL     1       5.020   6.429  16.202  0.00  0.00    +0.000 C 
BRANCH  11  12
ATOM     12  C   UNL     1       5.834   5.630  15.240  0.00  0.00    +0.000 A 
ATOM     13  N   UNL     1       5.428   4.884  14.235  0.00  0.00    +0.000 NA
ATOM     14  C   UNL     1       6.613   4.536  13.644  0.00  0.00    +0.000 A 
ATOM     15  N   UNL     1       7.712   4.977  14.272  0.00  0.00    +0.000 NA
ATOM     16  O   UNL     1       7.192   5.715  15.340  0.00  0.00    +0.000 OA
BRANCH  14  17
ATOM     17  C   UNL     1       6.664   3.822  12.341  0.00  0.00    +0.000 C 
BRANCH  17  18
ATOM     18  C   UNL     1       5.513   2.810  12.169  0.00  0.00    +0.000 C 
ATOM     19  C   UNL     1       4.319   3.409  11.417  0.00  0.00    +0.000 C 
ATOM     20  C   UNL     1       6.010   1.568  11.428  0.00  0.00    +0.000 C 
ENDBRANCH  17  18
ENDBRANCH  14  17
ENDBRANCH  11  12
ENDBRANCH   1  11
TORSDOF 6
ENDMDL
MODEL 8
REMARK VINA RESULT:      -6.4      1.517      2.034
REMARK  Name = 
REMARK  10 active torsions:
REMARK  status: ('A' for Active; 'I' for Inactive)
REMARK    1  A    between atoms: C_1  and  C_2
REMARK    2  A    between atoms: C_6  and  C_7
REMARK    3  A    between atoms: C_7  and  N_8
REMARK    4  A    between atoms: N_8  and  C_9
REMARK    5  A    between atoms: N_8  and  C_10
REMARK    6  A    between atoms: C_10  and  C_11
REMARK    7  A    between atoms: C_13  and  C_14
REMARK    8  A    between atoms: C_14  and  C_15
REMARK    9  A    between atoms: C_15  and  C_16
REMARK   10  A    between atoms: C_15  and  C_17
REMARK                            x       y       z     vdW  Elec       q    Type
REMARK                         _______ _______ _______ _____ _____    ______ ____
ROOT
ATOM      1  N   UNL     1       6.038   5.083  18.006  0.00  0.00    +0.000 NA
ATOM      2  C   UNL     1       7.422   4.671  17.732  0.00  0.00    +0.000 C 
ENDROOT
BRANCH   1   3
ATOM      3  C   UNL     1       5.543   4.511  19.275  0.00  0.00    +0.000 C 
BRANCH   3   9
ATOM      4  C   UNL     1       2.876   2.516  18.980  0.00  0.00    +0.000 C 
ATOM      5  C   UNL     1       2.970   3.949  19.345  0.00  0.00    +0.000 A 
ATOM      6  N   UNL     1       1.830   4.664  19.627  0.00  0.00    +0.000 NA
ATOM      7  C   UNL     1       2.239   5.878  19.923  0.00  0.00    +0.000 A 
ATOM      8  N   UNL     1       3.593   5.983  19.835  0.00  0.00    +0.000 N 
ATOM      9  C   UNL     1       4.087   4.755  19.466  0.00  0.00    +0.000 A 
ATOM     10  H   UNL     1       4.153   6.806  20.040  0.00  0.00    +0.000 HD
ENDBRANCH   3   9
ENDBRANCH   1   3
BRANCH   1  11
ATOM     11  C   UNL     1       5.182   4.648  16.867  0.00  0.00    +0.000 C 
BRANCH  11  12
ATOM     12  C   UNL     1       5.889   4.625  15.554  0.00  0.00    +0.000 A 
ATOM     13  N   UNL     1       5.965   3.651  14.673  0.00  0.00    +0.000 NA
ATOM     14  C   UNL     1       6.605   4.262  13.629  0.00  0.00    +0.000 A 
ATOM     15  N   UNL     1       6.977   5.530  13.854  0.00  0.00    +0.000 NA
ATOM     16  O   UNL     1       6.493   5.778  15.143  0.00  0.00    +0.000 OA
BRANCH  14  17
ATOM     17  C   UNL     1       6.769   3.599  12.309  0.00  0.00    +0.000 C 
BRANCH  17  18
ATOM     18  C   UNL     1       5.660   2.569  12.015  0.00  0.00    +0.000 C 
ATOM     19  C   UNL     1       4.436   3.207  11.348  0.00  0.00    +0.000 C 
ATOM     20  C   UNL     1       6.201   1.451  11.123  0.00  0.00    +0.000 C 
ENDBRANCH  17  18
ENDBRANCH  14  17
ENDBRANCH  11  12
ENDBRANCH   1  11
TORSDOF 6
ENDMDL
MODEL 9
REMARK VINA RESULT:      -6.3      1.760      2.249
REMARK  Name = 
REMARK  10 active torsions:
REMARK  status: ('A' for Active; 'I' for Inactive)
REMARK    1  A    between atoms: C_1  and  C_2
REMARK    2  A    between atoms: C_6  and  C_7
REMARK    3  A    between atoms: C_7  and  N_8
REMARK    4  A    between atoms: N_8  and  C_9
REMARK    5  A    between atoms: N_8  and  C_10
REMARK    6  A    between atoms: C_10  and  C_11
REMARK    7  A    between atoms: C_13  and  C_14
REMARK    8  A    between atoms: C_14  and  C_15
REMARK    9  A    between atoms: C_15  and  C_16
REMARK   10  A    between atoms: C_15  and  C_17
REMARK                            x       y       z     vdW  Elec       q    Type
REMARK                         _______ _______ _______ _____ _____    ______ ____
ROOT
ATOM      1  N   UNL     1       3.526   5.671  17.614  0.00  0.00    +0.000 NA
ATOM      2  C   UNL     1       4.149   6.976  17.348  0.00  0.00    +0.000 C 
ENDROOT
BRANCH   1   3
ATOM      3  C   UNL     1       2.661   5.717  18.811  0.00  0.00    +0.000 C 
BRANCH   3   9
ATOM      4  C   UNL     1       2.295   3.884  21.584  0.00  0.00    +0.000 C 
ATOM      5  C   UNL     1       1.832   3.636  20.198  0.00  0.00    +0.000 A 
ATOM      6  N   UNL     1       1.129   2.493  19.901  0.00  0.00    +0.000 NA
ATOM      7  C   UNL     1       0.855   2.570  18.618  0.00  0.00    +0.000 A 
ATOM      8  N   UNL     1       1.358   3.708  18.069  0.00  0.00    +0.000 N 
ATOM      9  C   UNL     1       1.991   4.411  19.064  0.00  0.00    +0.000 A 
ATOM     10  H   UNL     1       1.259   4.013  17.104  0.00  0.00    +0.000 HD
ENDBRANCH   3   9
ENDBRANCH   1   3
BRANCH   1  11
ATOM     11  C   UNL     1       4.606   4.660  17.788  0.00  0.00    +0.000 C 
BRANCH  11  12
ATOM     12  C   UNL     1       5.499   4.519  16.601  0.00  0.00    +0.000 A 
ATOM     13  N   UNL     1       5.174   4.337  15.340  0.00  0.00    +0.000 NA
ATOM     14  C   UNL     1       6.389   4.435  14.716  0.00  0.00    +0.000 A 
ATOM     15  N   UNL     1       7.435   4.603  15.536  0.00  0.00    +0.000 NA
ATOM     16  O   UNL     1       6.841   4.665  16.801  0.00  0.00    +0.000 OA
BRANCH  14  17
ATOM     17  C   UNL     1       6.514   4.467  13.236  0.00  0.00    +0.000 C 
BRANCH  17  18
ATOM     18  C   UNL     1       5.995   3.181  12.563  0.00  0.00    +0.000 C 
ATOM     19  C   UNL     1       4.669   3.403  11.828  0.00  0.00    +0.000 C 
ATOM     20  C   UNL     1       7.037   2.642  11.582  0.00  0.00    +0.000 C 
ENDBRANCH  17  18
ENDBRANCH  14  17
ENDBRANCH  11  12
ENDBRANCH   1  11
TORSDOF 6
ENDMDL
