MODEL 1
REMARK VINA RESULT:      -5.9      0.000      0.000
REMARK  Name = 
REMARK  7 active torsions:
REMARK  status: ('A' for Active; 'I' for Inactive)
REMARK    1  A    between atoms: C_1  and  C_2
REMARK    2  A    between atoms: C_2  and  O_3
REMARK    3  A    between atoms: O_3  and  C_4
REMARK    4  A    between atoms: C_4  and  C_6
REMARK    5  A    between atoms: N_10  and  C_11
REMARK    6  A    between atoms: C_11  and  C_12
REMARK    7  A    between atoms: C_11  and  C_13
REMARK                            x       y       z     vdW  Elec       q    Type
REMARK                         _______ _______ _______ _____ _____    ______ ____
ROOT
ATOM      1  C   UNL     1       3.260   4.286  17.560  0.00  0.00    +0.000 C 
ATOM      2  C   UNL     1       2.781   5.458  18.014  0.00  0.00    +0.000 C 
ATOM      3  C   UNL     1       3.520   6.732  17.759  0.00  0.00    +0.000 C 
ATOM      4  C   UNL     1       4.988   6.494  17.371  0.00  0.00    +0.000 C 
ATOM      5  N   UNL     1       5.134   5.473  16.317  0.00  0.00    +0.000 NA
ATOM      6  C   UNL     1       4.534   4.184  16.760  0.00  0.00    +0.000 C 
ENDROOT
BRANCH   5   7
ATOM      7  C   UNL     1       6.551   5.285  15.907  0.00  0.00    +0.000 C 
ATOM      8  C   UNL     1       7.395   4.624  17.011  0.00  0.00    +0.000 C 
ATOM      9  C   UNL     1       6.692   4.420  14.644  0.00  0.00    +0.000 C 
ENDBRANCH   5   7
BRANCH   1  10
ATOM     10  C   UNL     1       2.540   3.004  17.748  0.00  0.00    +0.000 C 
ATOM     11  O   UNL     1       3.076   1.907  17.654  0.00  0.00    +0.000 OA
BRANCH  10  12
ATOM     12  O   UNL     1       1.213   3.221  17.939  0.00  0.00    +0.000 OA
BRANCH  12  14
ATOM     13  C   UNL     1       0.988   3.175  20.312  0.00  0.00    +0.000 C 
ATOM     14  C   UNL     1       0.613   2.487  19.012  0.00  0.00    +0.000 C 
ENDBRANCH  12  14
ENDBRANCH  10  12
ENDBRANCH   1  10
TORSDOF 4
ENDMDL
MODEL 2
REMARK VINA RESULT:      -5.8      2.740      5.314
REMARK  Name = 
REMARK  7 active torsions:
REMARK  status: ('A' for Active; 'I' for Inactive)
REMARK    1  A    between atoms: C_1  and  C_2
REMARK    2  A    between atoms: C_2  and  O_3
REMARK    3  A    between atoms: O_3  and  C_4
REMARK    4  A    between atoms: C_4  and  C_6
REMARK    5  A    between atoms: N_10  and  C_11
REMARK    6  A    between atoms: C_11  and  C_12
REMARK    7  A    between atoms: C_11  and  C_13
REMARK                            x       y       z     vdW  Elec       q    Type
REMARK                         _______ _______ _______ _____ _____    ______ ____
ROOT
ATOM      1  C   UNL     1       6.490   4.957  16.196  0.00  0.00    +0.000 C 
ATOM      2  C   UNL     1       7.211   5.691  17.063  0.00  0.00    +0.000 C 
ATOM      3  C   UNL     1       6.842   5.740  18.510  0.00  0.00    +0.000 C 
ATOM      4  C   UNL     1       5.399   5.278  18.766  0.00  0.00    +0.000 C 
ATOM      5  N   UNL     1       5.087   4.004  18.091  0.00  0.00    +0.000 NA
ATOM      6  C   UNL     1       5.303   4.132  16.623  0.00  0.00    +0.000 C 
ENDROOT
BRANCH   5   7
ATOM      7  C   UNL     1       3.707   3.533  18.385  0.00  0.00    +0.000 C 
ATOM      8  C   UNL     1       2.636   4.407  17.708  0.00  0.00    +0.000 C 
ATOM      9  C   UNL     1       3.467   2.084  17.934  0.00  0.00    +0.000 C 
ENDBRANCH   5   7
BRANCH   1  10
ATOM     10  C   UNL     1       6.844   4.842  14.762  0.00  0.00    +0.000 C 
ATOM     11  O   UNL     1       7.776   5.443  14.245  0.00  0.00    +0.000 OA
BRANCH  10  12
ATOM     12  O   UNL     1       5.944   4.066  14.105  0.00  0.00    +0.000 OA
BRANCH  12  14
ATOM     13  C   UNL     1       5.065   3.295  12.027  0.00  0.00    +0.000 C 
ATOM     14  C   UNL     1       6.329   3.646  12.791  0.00  0.00    +0.000 C 
ENDBRANCH  12  14
ENDBRANCH  10  12
ENDBRANCH   1  10
TORSDOF 4
ENDMDL
MODEL 3
REMARK VINA RESULT:      -5.8      2.664      5.403
REMARK  Name = 
REMARK  7 active torsions:
REMARK  status: ('A' for Active; 'I' for Inactive)
REMARK    1  A    between atoms: C_1  and  C_2
REMARK    2  A    between atoms: C_2  and  O_3
REMARK    3  A    between atoms: O_3  and  C_4
REMARK    4  A    between atoms: C_4  and  C_6
REMARK    5  A    between atoms: N_10  and  C_11
REMARK    6  A    between atoms: C_11  and  C_12
REMARK    7  A    between atoms: C_11  and  C_13
REMARK                            x       y       z     vdW  Elec       q    Type
REMARK                         _______ _______ _______ _____ _____    ______ ____
ROOT
ATOM      1  C   UNL     1       6.096   4.624  16.509  0.00  0.00    +0.000 C 
ATOM      2  C   UNL     1       6.598   5.131  17.649  0.00  0.00    +0.000 C 
ATOM      3  C   UNL     1       5.836   5.025  18.930  0.00  0.00    +0.000 C 
ATOM      4  C   UNL     1       4.347   4.719  18.706  0.00  0.00    +0.000 C 
ATOM      5  N   UNL     1       4.135   3.603  17.765  0.00  0.00    +0.000 NA
ATOM      6  C   UNL     1       4.772   3.906  16.453  0.00  0.00    +0.000 C 
ENDROOT
BRANCH   5   7
ATOM      7  C   UNL     1       2.695   3.277  17.593  0.00  0.00    +0.000 C 
ATOM      8  C   UNL     1       2.218   2.195  18.579  0.00  0.00    +0.000 C 
ATOM      9  C   UNL     1       1.784   4.500  17.780  0.00  0.00    +0.000 C 
ENDBRANCH   5   7
BRANCH   1  10
ATOM     10  C   UNL     1       6.835   4.665  15.224  0.00  0.00    +0.000 C 
ATOM     11  O   UNL     1       7.721   5.473  14.980  0.00  0.00    +0.000 OA
BRANCH  10  12
ATOM     12  O   UNL     1       6.328   3.760  14.348  0.00  0.00    +0.000 OA
BRANCH  12  14
ATOM     13  C   UNL     1       5.682   3.135  12.140  0.00  0.00    +0.000 C 
ATOM     14  C   UNL     1       6.605   4.012  12.966  0.00  0.00    +0.000 C 
ENDBRANCH  12  14
ENDBRANCH  10  12
ENDBRANCH   1  10
TORSDOF 4
ENDMDL
MODEL 4
REMARK VINA RESULT:      -5.8      0.788      1.055
REMARK  Name = 
REMARK  7 active torsions:
REMARK  status: ('A' for Active; 'I' for Inactive)
REMARK    1  A    between atoms: C_1  and  C_2
REMARK    2  A    between atoms: C_2  and  O_3
REMARK    3  A    between atoms: O_3  and  C_4
REMARK    4  A    between atoms: C_4  and  C_6
REMARK    5  A    between atoms: N_10  and  C_11
REMARK    6  A    between atoms: C_11  and  C_12
REMARK    7  A    between atoms: C_11  and  C_13
REMARK                            x       y       z     vdW  Elec       q    Type
REMARK                         _______ _______ _______ _____ _____    ______ ____
ROOT
ATOM      1  C   UNL     1       3.352   4.479  17.661  0.00  0.00    +0.000 C 
ATOM      2  C   UNL     1       2.648   5.589  17.942  0.00  0.00    +0.000 C 
ATOM      3  C   UNL     1       3.260   6.943  17.772  0.00  0.00    +0.000 C 
ATOM      4  C   UNL     1       4.794   6.891  17.703  0.00  0.00    +0.000 C 
ATOM      5  N   UNL     1       5.281   5.868  16.758  0.00  0.00    +0.000 NA
ATOM      6  C   UNL     1       4.767   4.524  17.142  0.00  0.00    +0.000 C 
ENDROOT
BRANCH   5   7
ATOM      7  C   UNL     1       6.765   5.857  16.655  0.00  0.00    +0.000 C 
ATOM      8  C   UNL     1       7.411   7.034  17.409  0.00  0.00    +0.000 C 
ATOM      9  C   UNL     1       7.388   4.564  17.205  0.00  0.00    +0.000 C 
ENDBRANCH   5   7
BRANCH   1  10
ATOM     10  C   UNL     1       2.774   3.119  17.771  0.00  0.00    +0.000 C 
ATOM     11  O   UNL     1       3.443   2.094  17.738  0.00  0.00    +0.000 OA
BRANCH  10  12
ATOM     12  O   UNL     1       1.418   3.175  17.814  0.00  0.00    +0.000 OA
BRANCH  12  14
ATOM     13  C   UNL     1       0.921   3.157  20.146  0.00  0.00    +0.000 C 
ATOM     14  C   UNL     1       0.797   2.393  18.840  0.00  0.00    +0.000 C 
ENDBRANCH  12  14
ENDBRANCH  10  12
ENDBRANCH   1  10
TORSDOF 4
ENDMDL
MODEL 5
REMARK VINA RESULT:      -5.7      0.960      1.512
REMARK  Name = 
REMARK  7 active torsions:
REMARK  status: ('A' for Active; 'I' for Inactive)
REMARK    1  A    between atoms: C_1  and  C_2
REMARK    2  A    between atoms: C_2  and  O_3
REMARK    3  A    between atoms: O_3  and  C_4
REMARK    4  A    between atoms: C_4  and  C_6
REMARK    5  A    between atoms: N_10  and  C_11
REMARK    6  A    between atoms: C_11  and  C_12
REMARK    7  A    between atoms: C_11  and  C_13
REMARK                            x       y       z     vdW  Elec       q    Type
REMARK                         _______ _______ _______ _____ _____    ______ ____
ROOT
ATOM      1  C   UNL     1       2.800   4.675  17.985  0.00  0.00    +0.000 C 
ATOM      2  C   UNL     1       2.740   6.007  18.159  0.00  0.00    +0.000 C 
ATOM      3  C   UNL     1       3.803   6.897  17.598  0.00  0.00    +0.000 C 
ATOM      4  C   UNL     1       5.088   6.131  17.250  0.00  0.00    +0.000 C 
ATOM      5  N   UNL     1       4.823   4.912  16.462  0.00  0.00    +0.000 NA
ATOM      6  C   UNL     1       3.906   4.006  17.208  0.00  0.00    +0.000 C 
ENDROOT
BRANCH   5   7
ATOM      7  C   UNL     1       6.074   4.203  16.082  0.00  0.00    +0.000 C 
ATOM      8  C   UNL     1       6.491   4.493  14.629  0.00  0.00    +0.000 C 
ATOM      9  C   UNL     1       7.262   4.576  16.982  0.00  0.00    +0.000 C 
ENDBRANCH   5   7
BRANCH   1  10
ATOM     10  C   UNL     1       1.748   3.758  18.483  0.00  0.00    +0.000 C 
ATOM     11  O   UNL     1       1.361   2.774  17.866  0.00  0.00    +0.000 OA
BRANCH  10  12
ATOM     12  O   UNL     1       1.223   4.215  19.649  0.00  0.00    +0.000 OA
BRANCH  12  14
ATOM     13  C   UNL     1       2.239   3.264  21.585  0.00  0.00    +0.000 C 
ATOM     14  C   UNL     1       1.028   3.230  20.669  0.00  0.00    +0.000 C 
ENDBRANCH  12  14
ENDBRANCH  10  12
ENDBRANCH   1  10
TORSDOF 4
ENDMDL
MODEL 6
REMARK VINA RESULT:      -5.7      2.588      5.221
REMARK  Name = 
REMARK  7 active torsions:
REMARK  status: ('A' for Active; 'I' for Inactive)
REMARK    1  A    between atoms: C_1  and  C_2
REMARK    2  A    between atoms: C_2  and  O_3
REMARK    3  A    between atoms: O_3  and  C_4
REMARK    4  A    between atoms: C_4  and  C_6
REMARK    5  A    between atoms: N_10  and  C_11
REMARK    6  A    between atoms: C_11  and  C_12
REMARK    7  A    between atoms: C_11  and  C_13
REMARK                            x       y       z     vdW  Elec       q    Type
REMARK                         _______ _______ _______ _____ _____    ______ ____
ROOT
ATOM      1  C   UNL     1       5.292   5.269  15.970  0.00  0.00    +0.000 C 
ATOM      2  C   UNL     1       5.109   6.547  16.350  0.00  0.00    +0.000 C 
ATOM      3  C   UNL     1       4.185   6.882  17.476  0.00  0.00    +0.000 C 
ATOM      4  C   UNL     1       3.208   5.740  17.796  0.00  0.00    +0.000 C 
ATOM      5  N   UNL     1       3.885   4.435  17.917  0.00  0.00    +0.000 NA
ATOM      6  C   UNL     1       4.613   4.112  16.659  0.00  0.00    +0.000 C 
ENDROOT
BRANCH   5   7
ATOM      7  C   UNL     1       2.942   3.343  18.279  0.00  0.00    +0.000 C 
ATOM      8  C   UNL     1       3.160   2.835  19.716  0.00  0.00    +0.000 C 
ATOM      9  C   UNL     1       1.470   3.768  18.161  0.00  0.00    +0.000 C 
ENDBRANCH   5   7
BRANCH   1  10
ATOM     10  C   UNL     1       6.231   4.885  14.890  0.00  0.00    +0.000 C 
ATOM     11  O   UNL     1       7.366   5.332  14.790  0.00  0.00    +0.000 OA
BRANCH  10  12
ATOM     12  O   UNL     1       5.625   4.061  13.996  0.00  0.00    +0.000 OA
BRANCH  12  14
ATOM     13  C   UNL     1       5.491   2.997  11.867  0.00  0.00    +0.000 C 
ATOM     14  C   UNL     1       6.404   3.716  12.845  0.00  0.00    +0.000 C 
ENDBRANCH  12  14
ENDBRANCH  10  12
ENDBRANCH   1  10
TORSDOF 4
ENDMDL
MODEL 7
REMARK VINA RESULT:      -5.7      2.666      5.431
REMARK  Name = 
REMARK  7 active torsions:
REMARK  status: ('A' for Active; 'I' for Inactive)
REMARK    1  A    between atoms: C_1  and  C_2
REMARK    2  A    between atoms: C_2  and  O_3
REMARK    3  A    between atoms: O_3  and  C_4
REMARK    4  A    between atoms: C_4  and  C_6
REMARK    5  A    between atoms: N_10  and  C_11
REMARK    6  A    between atoms: C_11  and  C_12
REMARK    7  A    between atoms: C_11  and  C_13
REMARK                            x       y       z     vdW  Elec       q    Type
REMARK                         _______ _______ _______ _____ _____    ______ ____
ROOT
ATOM      1  C   UNL     1       6.418   4.867  16.159  0.00  0.00    +0.000 C 
ATOM      2  C   UNL     1       7.299   4.915  17.174  0.00  0.00    +0.000 C 
ATOM      3  C   UNL     1       6.827   5.032  18.587  0.00  0.00    +0.000 C 
ATOM      4  C   UNL     1       5.375   5.524  18.683  0.00  0.00    +0.000 C 
ATOM      5  N   UNL     1       4.467   4.783  17.787  0.00  0.00    +0.000 NA
ATOM      6  C   UNL     1       4.927   4.901  16.375  0.00  0.00    +0.000 C 
ENDROOT
BRANCH   5   7
ATOM      7  C   UNL     1       3.054   5.228  17.922  0.00  0.00    +0.000 C 
ATOM      8  C   UNL     1       2.055   4.087  17.657  0.00  0.00    +0.000 C 
ATOM      9  C   UNL     1       2.743   5.793  19.317  0.00  0.00    +0.000 C 
ENDBRANCH   5   7
BRANCH   1  10
ATOM     10  C   UNL     1       6.838   4.705  14.746  0.00  0.00    +0.000 C 
ATOM     11  O   UNL     1       7.758   5.332  14.238  0.00  0.00    +0.000 OA
BRANCH  10  12
ATOM     12  O   UNL     1       6.009   3.852  14.093  0.00  0.00    +0.000 OA
BRANCH  12  14
ATOM     13  C   UNL     1       5.050   3.279  11.986  0.00  0.00    +0.000 C 
ATOM     14  C   UNL     1       6.339   3.591  12.724  0.00  0.00    +0.000 C 
ENDBRANCH  12  14
ENDBRANCH  10  12
ENDBRANCH   1  10
TORSDOF 4
ENDMDL
MODEL 8
REMARK VINA RESULT:      -5.7      2.671      5.139
REMARK  Name = 
REMARK  7 active torsions:
REMARK  status: ('A' for Active; 'I' for Inactive)
REMARK    1  A    between atoms: C_1  and  C_2
REMARK    2  A    between atoms: C_2  and  O_3
REMARK    3  A    between atoms: O_3  and  C_4
REMARK    4  A    between atoms: C_4  and  C_6
REMARK    5  A    between atoms: N_10  and  C_11
REMARK    6  A    between atoms: C_11  and  C_12
REMARK    7  A    between atoms: C_11  and  C_13
REMARK                            x       y       z     vdW  Elec       q    Type
REMARK                         _______ _______ _______ _____ _____    ______ ____
ROOT
ATOM      1  C   UNL     1       5.599   5.303  16.422  0.00  0.00    +0.000 C 
ATOM      2  C   UNL     1       5.262   6.597  16.564  0.00  0.00    +0.000 C 
ATOM      3  C   UNL     1       4.122   6.995  17.445  0.00  0.00    +0.000 C 
ATOM      4  C   UNL     1       3.181   5.821  17.756  0.00  0.00    +0.000 C 
ATOM      5  N   UNL     1       3.909   4.614  18.192  0.00  0.00    +0.000 NA
ATOM      6  C   UNL     1       4.882   4.192  17.147  0.00  0.00    +0.000 C 
ENDROOT
BRANCH   5   7
ATOM      7  C   UNL     1       2.990   3.498  18.542  0.00  0.00    +0.000 C 
ATOM      8  C   UNL     1       1.570   3.715  17.990  0.00  0.00    +0.000 C 
ATOM      9  C   UNL     1       3.483   2.140  18.019  0.00  0.00    +0.000 C 
ENDBRANCH   5   7
BRANCH   1  10
ATOM     10  C   UNL     1       6.749   4.864  15.596  0.00  0.00    +0.000 C 
ATOM     11  O   UNL     1       7.834   4.545  16.064  0.00  0.00    +0.000 OA
BRANCH  10  12
ATOM     12  O   UNL     1       6.457   4.962  14.274  0.00  0.00    +0.000 OA
BRANCH  12  14
ATOM     13  C   UNL     1       6.560   3.666  12.275  0.00  0.00    +0.000 C 
ATOM     14  C   UNL     1       5.950   3.771  13.661  0.00  0.00    +0.000 C 
ENDBRANCH  12  14
ENDBRANCH  10  12
ENDBRANCH   1  10
TORSDOF 4
ENDMDL
MODEL 9
REMARK VINA RESULT:      -5.6      2.546      5.380
REMARK  Name = 
REMARK  7 active torsions:
REMARK  status: ('A' for Active; 'I' for Inactive)
REMARK    1  A    between atoms: C_1  and  C_2
REMARK    2  A    between atoms: C_2  and  O_3
REMARK    3  A    between atoms: O_3  and  C_4
REMARK    4  A    between atoms: C_4  and  C_6
REMARK    5  A    between atoms: N_10  and  C_11
REMARK    6  A    between atoms: C_11  and  C_12
REMARK    7  A    between atoms: C_11  and  C_13
REMARK                            x       y       z     vdW  Elec       q    Type
REMARK                         _______ _______ _______ _____ _____    ______ ____
ROOT
ATOM      1  C   UNL     1       4.626   5.116  18.889  0.00  0.00    +0.000 C 
ATOM      2  C   UNL     1       4.143   6.135  18.156  0.00  0.00    +0.000 C 
ATOM      3  C   UNL     1       2.669   6.354  18.036  0.00  0.00    +0.000 C 
ATOM      4  C   UNL     1       1.855   5.110  18.424  0.00  0.00    +0.000 C 
ATOM      5  N   UNL     1       2.292   4.527  19.707  0.00  0.00    +0.000 NA
ATOM      6  C   UNL     1       3.735   4.164  19.644  0.00  0.00    +0.000 C 
ENDROOT
BRANCH   5   7
ATOM      7  C   UNL     1       1.467   3.355  20.104  0.00  0.00    +0.000 C 
ATOM      8  C   UNL     1       1.660   2.157  19.157  0.00  0.00    +0.000 C 
ATOM      9  C   UNL     1       1.777   2.868  21.528  0.00  0.00    +0.000 C 
ENDBRANCH   5   7
BRANCH   1  10
ATOM     10  C   UNL     1       6.079   4.887  19.074  0.00  0.00    +0.000 C 
ATOM     11  O   UNL     1       6.750   5.453  19.927  0.00  0.00    +0.000 OA
BRANCH  10  12
ATOM     12  O   UNL     1       6.560   4.050  18.119  0.00  0.00    +0.000 OA
BRANCH  12  14
ATOM     13  C   UNL     1       6.883   4.633  15.830  0.00  0.00    +0.000 C 
ATOM     14  C   UNL     1       7.509   4.624  17.213  0.00  0.00    +0.000 C 
ENDBRANCH  12  14
ENDBRANCH  10  12
ENDBRANCH   1  10
TORSDOF 4
ENDMDL
