MODEL 1
REMARK VINA RESULT:      -7.0      0.000      0.000
REMARK  Name = 
REMARK  9 active torsions:
REMARK  status: ('A' for Active; 'I' for Inactive)
REMARK    1  A    between atoms: C_1  and  C_2
REMARK    2  A    between atoms: C_6  and  C_7
REMARK    3  A    between atoms: C_8  and  N_9
REMARK    4  A    between atoms: N_9  and  C_10
REMARK    5  A    between atoms: C_10  and  C_11
REMARK    6  A    between atoms: N_13  and  C_14
REMARK    7  A    between atoms: C_14  and  C_15
REMARK    8  A    between atoms: C_15  and  O_16
REMARK    9  A    between atoms: C_15  and  C_17
REMARK                            x       y       z     vdW  Elec       q    Type
REMARK                         _______ _______ _______ _____ _____    ______ ____
ROOT
ATOM      1  C   UNL     1       6.462   5.071  19.084  0.00  0.00    +0.000 C 
ATOM      2  O   UNL     1       7.206   5.494  19.967  0.00  0.00    +0.000 OA
ATOM      3  N   UNL     1       7.037   4.396  18.041  0.00  0.00    +0.000 N 
ATOM      4  H   UNL     1       8.049   4.346  18.123  0.00  0.00    +0.000 HD
ENDROOT
BRANCH   1   5
ATOM      5  C   UNL     1       4.939   5.281  19.099  0.00  0.00    +0.000 C 
BRANCH   5   6
ATOM      6  N   UNL     1       4.243   4.312  19.935  0.00  0.00    +0.000 N 
ATOM      7  H   UNL     1       4.457   4.341  20.926  0.00  0.00    +0.000 HD
BRANCH   6  15
ATOM      8  C   UNL     1       4.078   1.744  18.262  0.00  0.00    +0.000 C 
ATOM      9  C   UNL     1       2.927   2.465  18.908  0.00  0.00    +0.000 A 
ATOM     10  C   UNL     1       1.651   1.911  18.673  0.00  0.00    +0.000 A 
ATOM     11  C   UNL     1       0.496   2.535  19.116  0.00  0.00    +0.000 A 
ATOM     12  C   UNL     1       0.591   3.733  19.808  0.00  0.00    +0.000 A 
ATOM     13  C   UNL     1       1.847   4.308  20.070  0.00  0.00    +0.000 A 
ATOM     14  C   UNL     1       1.874   5.598  20.852  0.00  0.00    +0.000 C 
ATOM     15  C   UNL     1       3.046   3.676  19.629  0.00  0.00    +0.000 A 
ENDBRANCH   6  15
ENDBRANCH   5   6
ENDBRANCH   1   5
BRANCH   3  16
ATOM     16  C   UNL     1       6.456   4.173  16.728  0.00  0.00    +0.000 C 
BRANCH  16  17
ATOM     17  C   UNL     1       6.914   5.185  15.650  0.00  0.00    +0.000 C 
BRANCH  17  18
ATOM     18  C   UNL     1       6.782   4.654  14.244  0.00  0.00    +0.000 A 
ATOM     19  C   UNL     1       7.621   5.064  13.149  0.00  0.00    +0.000 A 
ATOM     20  C   UNL     1       7.306   4.433  11.966  0.00  0.00    +0.000 A 
ATOM     21  S   UNL     1       5.999   3.352  12.148  0.00  0.00    +0.000 S 
ATOM     22  C   UNL     1       5.849   3.729  13.810  0.00  0.00    +0.000 A 
ENDBRANCH  17  18
BRANCH  17  23
ATOM     23  O   UNL     1       6.194   6.408  15.829  0.00  0.00    +0.000 OA
ATOM     24  H   UNL     1       5.478   6.240  16.463  0.00  0.00    +0.000 HD
ENDBRANCH  17  23
ENDBRANCH  16  17
ENDBRANCH   3  16
TORSDOF 7
ENDMDL
MODEL 2
REMARK VINA RESULT:      -6.9      3.183      5.258
REMARK  Name = 
REMARK  9 active torsions:
REMARK  status: ('A' for Active; 'I' for Inactive)
REMARK    1  A    between atoms: C_1  and  C_2
REMARK    2  A    between atoms: C_6  and  C_7
REMARK    3  A    between atoms: C_8  and  N_9
REMARK    4  A    between atoms: N_9  and  C_10
REMARK    5  A    between atoms: C_10  and  C_11
REMARK    6  A    between atoms: N_13  and  C_14
REMARK    7  A    between atoms: C_14  and  C_15
REMARK    8  A    between atoms: C_15  and  O_16
REMARK    9  A    between atoms: C_15  and  C_17
REMARK                            x       y       z     vdW  Elec       q    Type
REMARK                         _______ _______ _______ _____ _____    ______ ____
ROOT
ATOM      1  C   UNL     1       2.132   4.043  20.984  0.00  0.00    +0.000 C 
ATOM      2  O   UNL     1       2.277   3.744  22.168  0.00  0.00    +0.000 OA
ATOM      3  N   UNL     1       2.695   3.216  20.049  0.00  0.00    +0.000 N 
ATOM      4  H   UNL     1       3.198   2.440  20.471  0.00  0.00    +0.000 HD
ENDROOT
BRANCH   1   5
ATOM      5  C   UNL     1       1.369   5.295  20.522  0.00  0.00    +0.000 C 
BRANCH   5   6
ATOM      6  N   UNL     1       2.213   6.481  20.466  0.00  0.00    +0.000 N 
ATOM      7  H   UNL     1       3.213   6.324  20.534  0.00  0.00    +0.000 HD
BRANCH   6  15
ATOM      8  C   UNL     1       0.396   8.518  21.870  0.00  0.00    +0.000 C 
ATOM      9  C   UNL     1       1.077   8.695  20.541  0.00  0.00    +0.000 A 
ATOM     10  C   UNL     1       0.805   9.909  19.875  0.00  0.00    +0.000 A 
ATOM     11  C   UNL     1       1.279  10.156  18.597  0.00  0.00    +0.000 A 
ATOM     12  C   UNL     1       2.039   9.192  17.952  0.00  0.00    +0.000 A 
ATOM     13  C   UNL     1       2.338   7.976  18.592  0.00  0.00    +0.000 A 
ATOM     14  C   UNL     1       3.193   6.985  17.839  0.00  0.00    +0.000 C 
ATOM     15  C   UNL     1       1.866   7.708  19.909  0.00  0.00    +0.000 A 
ENDBRANCH   6  15
ENDBRANCH   5   6
ENDBRANCH   1   5
BRANCH   3  16
ATOM     16  C   UNL     1       3.010   3.553  18.672  0.00  0.00    +0.000 C 
BRANCH  16  17
ATOM     17  C   UNL     1       4.365   2.992  18.174  0.00  0.00    +0.000 C 
BRANCH  17  18
ATOM     18  C   UNL     1       5.178   4.003  17.404  0.00  0.00    +0.000 A 
ATOM     19  C   UNL     1       5.010   4.264  15.999  0.00  0.00    +0.000 A 
ATOM     20  C   UNL     1       5.868   5.233  15.527  0.00  0.00    +0.000 A 
ATOM     21  S   UNL     1       6.888   5.834  16.756  0.00  0.00    +0.000 S 
ATOM     22  C   UNL     1       6.188   4.796  17.921  0.00  0.00    +0.000 A 
ENDBRANCH  17  18
BRANCH  17  23
ATOM     23  O   UNL     1       5.086   2.466  19.293  0.00  0.00    +0.000 OA
ATOM     24  H   UNL     1       4.906   3.039  20.056  0.00  0.00    +0.000 HD
ENDBRANCH  17  23
ENDBRANCH  16  17
ENDBRANCH   3  16
TORSDOF 7
ENDMDL
MODEL 3
REMARK VINA RESULT:      -6.9      1.120      1.155
REMARK  Name = 
REMARK  9 active torsions:
REMARK  status: ('A' for Active; 'I' for Inactive)
REMARK    1  A    between atoms: C_1  and  C_2
REMARK    2  A    between atoms: C_6  and  C_7
REMARK    3  A    between atoms: C_8  and  N_9
REMARK    4  A    between atoms: N_9  and  C_10
REMARK    5  A    between atoms: C_10  and  C_11
REMARK    6  A    between atoms: N_13  and  C_14
REMARK    7  A    between atoms: C_14  and  C_15
REMARK    8  A    between atoms: C_15  and  O_16
REMARK    9  A    between atoms: C_15  and  C_17
REMARK                            x       y       z     vdW  Elec       q    Type
REMARK                         _______ _______ _______ _____ _____    ______ ____
ROOT
ATOM      1  C   UNL     1       6.777   5.215  19.036  0.00  0.00    +0.000 C 
ATOM      2  O   UNL     1       7.676   5.361  19.863  0.00  0.00    +0.000 OA
ATOM      3  N   UNL     1       6.983   4.308  18.031  0.00  0.00    +0.000 N 
ATOM      4  H   UNL     1       7.897   3.868  18.088  0.00  0.00    +0.000 HD
ENDROOT
BRANCH   1   5
ATOM      5  C   UNL     1       5.461   6.009  19.078  0.00  0.00    +0.000 C 
BRANCH   5   6
ATOM      6  N   UNL     1       4.408   5.319  19.809  0.00  0.00    +0.000 N 
ATOM      7  H   UNL     1       4.134   5.730  20.695  0.00  0.00    +0.000 HD
BRANCH   6  15
ATOM      8  C   UNL     1       4.480   2.275  20.202  0.00  0.00    +0.000 C 
ATOM      9  C   UNL     1       3.428   3.056  19.463  0.00  0.00    +0.000 A 
ATOM     10  C   UNL     1       2.407   2.289  18.866  0.00  0.00    +0.000 A 
ATOM     11  C   UNL     1       1.436   2.870  18.066  0.00  0.00    +0.000 A 
ATOM     12  C   UNL     1       1.465   4.238  17.843  0.00  0.00    +0.000 A 
ATOM     13  C   UNL     1       2.463   5.035  18.432  0.00  0.00    +0.000 A 
ATOM     14  C   UNL     1       2.415   6.520  18.168  0.00  0.00    +0.000 C 
ATOM     15  C   UNL     1       3.464   4.456  19.265  0.00  0.00    +0.000 A 
ENDBRANCH   6  15
ENDBRANCH   5   6
ENDBRANCH   1   5
BRANCH   3  16
ATOM     16  C   UNL     1       6.288   4.255  16.756  0.00  0.00    +0.000 C 
BRANCH  16  17
ATOM     17  C   UNL     1       6.860   5.212  15.681  0.00  0.00    +0.000 C 
BRANCH  17  18
ATOM     18  C   UNL     1       6.745   4.664  14.279  0.00  0.00    +0.000 A 
ATOM     19  C   UNL     1       7.602   5.057  13.192  0.00  0.00    +0.000 A 
ATOM     20  C   UNL     1       7.301   4.414  12.012  0.00  0.00    +0.000 A 
ATOM     21  S   UNL     1       5.987   3.341  12.189  0.00  0.00    +0.000 S 
ATOM     22  C   UNL     1       5.814   3.738  13.843  0.00  0.00    +0.000 A 
ENDBRANCH  17  18
BRANCH  17  23
ATOM     23  O   UNL     1       6.223   6.486  15.810  0.00  0.00    +0.000 OA
ATOM     24  H   UNL     1       6.603   7.075  15.138  0.00  0.00    +0.000 HD
ENDBRANCH  17  23
ENDBRANCH  16  17
ENDBRANCH   3  16
TORSDOF 7
ENDMDL
MODEL 4
REMARK VINA RESULT:      -6.8      2.907      4.660
REMARK  Name = 
REMARK  9 active torsions:
REMARK  status: ('A' for Active; 'I' for Inactive)
REMARK    1  A    between atoms: C_1  and  C_2
REMARK    2  A    between atoms: C_6  and  C_7
REMARK    3  A    between atoms: C_8  and  N_9
REMARK    4  A    between atoms: N_9  and  C_10
REMARK    5  A    between atoms: C_10  and  C_11
REMARK    6  A    between atoms: N_13  and  C_14
REMARK    7  A    between atoms: C_14  and  C_15
REMARK    8  A    between atoms: C_15  and  O_16
REMARK    9  A    between atoms: C_15  and  C_17
REMARK                            x       y       z     vdW  Elec       q    Type
REMARK                         _______ _______ _______ _____ _____    ______ ____
ROOT
ATOM      1  C   UNL     1       2.314   4.043  20.979  0.00  0.00    +0.000 C 
ATOM      2  O   UNL     1       2.292   3.744  22.171  0.00  0.00    +0.000 OA
ATOM      3  N   UNL     1       3.109   3.293  20.153  0.00  0.00    +0.000 N 
ATOM      4  H   UNL     1       3.615   2.569  20.654  0.00  0.00    +0.000 HD
ENDROOT
BRANCH   1   5
ATOM      5  C   UNL     1       1.509   5.214  20.392  0.00  0.00    +0.000 C 
BRANCH   5   6
ATOM      6  N   UNL     1       2.167   6.500  20.578  0.00  0.00    +0.000 N 
ATOM      7  H   UNL     1       3.072   6.479  21.036  0.00  0.00    +0.000 HD
BRANCH   6  15
ATOM      8  C   UNL     1       3.216   6.939  17.727  0.00  0.00    +0.000 C 
ATOM      9  C   UNL     1       2.345   7.879  18.513  0.00  0.00    +0.000 A 
ATOM     10  C   UNL     1       2.026   9.095  17.871  0.00  0.00    +0.000 A 
ATOM     11  C   UNL     1       1.323  10.096  18.522  0.00  0.00    +0.000 A 
ATOM     12  C   UNL     1       0.922   9.905  19.835  0.00  0.00    +0.000 A 
ATOM     13  C   UNL     1       1.212   8.701  20.501  0.00  0.00    +0.000 A 
ATOM     14  C   UNL     1       0.719   8.553  21.920  0.00  0.00    +0.000 C 
ATOM     15  C   UNL     1       1.926   7.657  19.845  0.00  0.00    +0.000 A 
ENDBRANCH   6  15
ENDBRANCH   5   6
ENDBRANCH   1   5
BRANCH   3  16
ATOM     16  C   UNL     1       3.610   3.682  18.845  0.00  0.00    +0.000 C 
BRANCH  16  17
ATOM     17  C   UNL     1       5.132   3.961  18.806  0.00  0.00    +0.000 C 
BRANCH  17  18
ATOM     18  C   UNL     1       5.646   4.248  17.416  0.00  0.00    +0.000 A 
ATOM     19  C   UNL     1       6.909   4.882  17.144  0.00  0.00    +0.000 A 
ATOM     20  C   UNL     1       7.155   5.030  15.797  0.00  0.00    +0.000 A 
ATOM     21  S   UNL     1       5.877   4.421  14.845  0.00  0.00    +0.000 S 
ATOM     22  C   UNL     1       4.989   3.963  16.233  0.00  0.00    +0.000 A 
ENDBRANCH  17  18
BRANCH  17  23
ATOM     23  O   UNL     1       5.431   5.024  19.716  0.00  0.00    +0.000 OA
ATOM     24  H   UNL     1       4.954   5.814  19.414  0.00  0.00    +0.000 HD
ENDBRANCH  17  23
ENDBRANCH  16  17
ENDBRANCH   3  16
TORSDOF 7
ENDMDL
MODEL 5
REMARK VINA RESULT:      -6.7      0.763      2.042
REMARK  Name = 
REMARK  9 active torsions:
REMARK  status: ('A' for Active; 'I' for Inactive)
REMARK    1  A    between atoms: C_1  and  C_2
REMARK    2  A    between atoms: C_6  and  C_7
REMARK    3  A    between atoms: C_8  and  N_9
REMARK    4  A    between atoms: N_9  and  C_10
REMARK    5  A    between atoms: C_10  and  C_11
REMARK    6  A    between atoms: N_13  and  C_14
REMARK    7  A    between atoms: C_14  and  C_15
REMARK    8  A    between atoms: C_15  and  O_16
REMARK    9  A    between atoms: C_15  and  C_17
REMARK                            x       y       z     vdW  Elec       q    Type
REMARK                         _______ _______ _______ _____ _____    ______ ____
ROOT
ATOM      1  C   UNL     1       6.203   5.142  18.972  0.00  0.00    +0.000 C 
ATOM      2  O   UNL     1       6.916   5.347  19.953  0.00  0.00    +0.000 OA
ATOM      3  N   UNL     1       6.644   4.233  18.048  0.00  0.00    +0.000 N 
ATOM      4  H   UNL     1       7.550   3.842  18.292  0.00  0.00    +0.000 HD
ENDROOT
BRANCH   1   5
ATOM      5  C   UNL     1       4.867   5.867  18.739  0.00  0.00    +0.000 C 
BRANCH   5   6
ATOM      6  N   UNL     1       3.820   4.979  18.254  0.00  0.00    +0.000 N 
ATOM      7  H   UNL     1       3.992   4.529  17.362  0.00  0.00    +0.000 HD
BRANCH   6  15
ATOM      8  C   UNL     1       2.056   6.464  20.280  0.00  0.00    +0.000 C 
ATOM      9  C   UNL     1       1.985   5.002  19.937  0.00  0.00    +0.000 A 
ATOM     10  C   UNL     1       1.035   4.252  20.661  0.00  0.00    +0.000 A 
ATOM     11  C   UNL     1       0.938   2.876  20.523  0.00  0.00    +0.000 A 
ATOM     12  C   UNL     1       1.795   2.216  19.655  0.00  0.00    +0.000 A 
ATOM     13  C   UNL     1       2.747   2.934  18.910  0.00  0.00    +0.000 A 
ATOM     14  C   UNL     1       3.626   2.152  17.964  0.00  0.00    +0.000 C 
ATOM     15  C   UNL     1       2.854   4.350  19.032  0.00  0.00    +0.000 A 
ENDBRANCH   6  15
ENDBRANCH   5   6
ENDBRANCH   1   5
BRANCH   3  16
ATOM     16  C   UNL     1       6.214   4.125  16.665  0.00  0.00    +0.000 C 
BRANCH  16  17
ATOM     17  C   UNL     1       7.015   5.011  15.680  0.00  0.00    +0.000 C 
BRANCH  17  18
ATOM     18  C   UNL     1       6.877   4.573  14.242  0.00  0.00    +0.000 A 
ATOM     19  C   UNL     1       7.669   5.102  13.164  0.00  0.00    +0.000 A 
ATOM     20  C   UNL     1       7.360   4.540  11.945  0.00  0.00    +0.000 A 
ATOM     21  S   UNL     1       6.114   3.381  12.076  0.00  0.00    +0.000 S 
ATOM     22  C   UNL     1       5.983   3.633  13.762  0.00  0.00    +0.000 A 
ENDBRANCH  17  18
BRANCH  17  23
ATOM     23  O   UNL     1       6.623   6.375  15.862  0.00  0.00    +0.000 OA
ATOM     24  H   UNL     1       6.473   6.515  16.811  0.00  0.00    +0.000 HD
ENDBRANCH  17  23
ENDBRANCH  16  17
ENDBRANCH   3  16
TORSDOF 7
ENDMDL
MODEL 6
REMARK VINA RESULT:      -6.7      1.134      1.974
REMARK  Name = 
REMARK  9 active torsions:
REMARK  status: ('A' for Active; 'I' for Inactive)
REMARK    1  A    between atoms: C_1  and  C_2
REMARK    2  A    between atoms: C_6  and  C_7
REMARK    3  A    between atoms: C_8  and  N_9
REMARK    4  A    between atoms: N_9  and  C_10
REMARK    5  A    between atoms: C_10  and  C_11
REMARK    6  A    between atoms: N_13  and  C_14
REMARK    7  A    between atoms: C_14  and  C_15
REMARK    8  A    between atoms: C_15  and  O_16
REMARK    9  A    between atoms: C_15  and  C_17
REMARK                            x       y       z     vdW  Elec       q    Type
REMARK                         _______ _______ _______ _____ _____    ______ ____
ROOT
ATOM      1  C   UNL     1       6.943   5.138  19.055  0.00  0.00    +0.000 C 
ATOM      2  O   UNL     1       7.805   5.508  19.849  0.00  0.00    +0.000 OA
ATOM      3  N   UNL     1       7.352   4.404  17.973  0.00  0.00    +0.000 N 
ATOM      4  H   UNL     1       8.358   4.270  17.954  0.00  0.00    +0.000 HD
ENDROOT
BRANCH   1   5
ATOM      5  C   UNL     1       5.451   5.474  19.218  0.00  0.00    +0.000 C 
BRANCH   5   6
ATOM      6  N   UNL     1       4.587   4.320  19.014  0.00  0.00    +0.000 N 
ATOM      7  H   UNL     1       5.009   3.518  18.560  0.00  0.00    +0.000 HD
BRANCH   6  15
ATOM      8  C   UNL     1       2.159   6.194  19.144  0.00  0.00    +0.000 C 
ATOM      9  C   UNL     1       2.272   4.834  19.774  0.00  0.00    +0.000 A 
ATOM     10  C   UNL     1       1.155   4.417  20.529  0.00  0.00    +0.000 A 
ATOM     11  C   UNL     1       1.167   3.234  21.251  0.00  0.00    +0.000 A 
ATOM     12  C   UNL     1       2.302   2.438  21.236  0.00  0.00    +0.000 A 
ATOM     13  C   UNL     1       3.429   2.817  20.485  0.00  0.00    +0.000 A 
ATOM     14  C   UNL     1       4.617   1.886  20.494  0.00  0.00    +0.000 C 
ATOM     15  C   UNL     1       3.431   4.025  19.730  0.00  0.00    +0.000 A 
ENDBRANCH   6  15
ENDBRANCH   5   6
ENDBRANCH   1   5
BRANCH   3  16
ATOM     16  C   UNL     1       6.623   4.213  16.730  0.00  0.00    +0.000 C 
BRANCH  16  17
ATOM     17  C   UNL     1       6.989   5.226  15.618  0.00  0.00    +0.000 C 
BRANCH  17  18
ATOM     18  C   UNL     1       6.807   4.670  14.227  0.00  0.00    +0.000 A 
ATOM     19  C   UNL     1       7.656   5.003  13.114  0.00  0.00    +0.000 A 
ATOM     20  C   UNL     1       7.290   4.364  11.950  0.00  0.00    +0.000 A 
ATOM     21  S   UNL     1       5.923   3.367  12.173  0.00  0.00    +0.000 S 
ATOM     22  C   UNL     1       5.816   3.792  13.827  0.00  0.00    +0.000 A 
ENDBRANCH  17  18
BRANCH  17  23
ATOM     23  O   UNL     1       6.232   6.424  15.817  0.00  0.00    +0.000 OA
ATOM     24  H   UNL     1       6.396   7.006  15.057  0.00  0.00    +0.000 HD
ENDBRANCH  17  23
ENDBRANCH  16  17
ENDBRANCH   3  16
TORSDOF 7
ENDMDL
MODEL 7
REMARK VINA RESULT:      -6.7      0.784      1.094
REMARK  Name = 
REMARK  9 active torsions:
REMARK  status: ('A' for Active; 'I' for Inactive)
REMARK    1  A    between atoms: C_1  and  C_2
REMARK    2  A    between atoms: C_6  and  C_7
REMARK    3  A    between atoms: C_8  and  N_9
REMARK    4  A    between atoms: N_9  and  C_10
REMARK    5  A    between atoms: C_10  and  C_11
REMARK    6  A    between atoms: N_13  and  C_14
REMARK    7  A    between atoms: C_14  and  C_15
REMARK    8  A    between atoms: C_15  and  O_16
REMARK    9  A    between atoms: C_15  and  C_17
REMARK                            x       y       z     vdW  Elec       q    Type
REMARK                         _______ _______ _______ _____ _____    ______ ____
ROOT
ATOM      1  C   UNL     1       6.438   5.167  18.966  0.00  0.00    +0.000 C 
ATOM      2  O   UNL     1       7.278   5.468  19.812  0.00  0.00    +0.000 OA
ATOM      3  N   UNL     1       6.826   4.321  17.962  0.00  0.00    +0.000 N 
ATOM      4  H   UNL     1       7.803   4.053  18.037  0.00  0.00    +0.000 HD
ENDROOT
BRANCH   1   5
ATOM      5  C   UNL     1       4.999   5.708  18.983  0.00  0.00    +0.000 C 
BRANCH   5   6
ATOM      6  N   UNL     1       4.217   5.199  20.101  0.00  0.00    +0.000 N 
ATOM      7  H   UNL     1       4.270   5.730  20.964  0.00  0.00    +0.000 HD
BRANCH   6  15
ATOM      8  C   UNL     1       4.407   2.207  19.444  0.00  0.00    +0.000 C 
ATOM      9  C   UNL     1       3.154   2.973  19.766  0.00  0.00    +0.000 A 
ATOM     10  C   UNL     1       1.956   2.231  19.713  0.00  0.00    +0.000 A 
ATOM     11  C   UNL     1       0.719   2.835  19.881  0.00  0.00    +0.000 A 
ATOM     12  C   UNL     1       0.654   4.201  20.105  0.00  0.00    +0.000 A 
ATOM     13  C   UNL     1       1.829   4.970  20.175  0.00  0.00    +0.000 A 
ATOM     14  C   UNL     1       1.681   6.447  20.450  0.00  0.00    +0.000 C 
ATOM     15  C   UNL     1       3.109   4.364  20.014  0.00  0.00    +0.000 A 
ENDBRANCH   6  15
ENDBRANCH   5   6
ENDBRANCH   1   5
BRANCH   3  16
ATOM     16  C   UNL     1       6.178   4.152  16.672  0.00  0.00    +0.000 C 
BRANCH  16  17
ATOM     17  C   UNL     1       6.586   5.205  15.614  0.00  0.00    +0.000 C 
BRANCH  17  18
ATOM     18  C   UNL     1       6.614   4.654  14.209  0.00  0.00    +0.000 A 
ATOM     19  C   UNL     1       5.660   3.703  13.703  0.00  0.00    +0.000 A 
ATOM     20  C   UNL     1       5.894   3.356  12.391  0.00  0.00    +0.000 A 
ATOM     21  S   UNL     1       7.261   4.155  11.754  0.00  0.00    +0.000 S 
ATOM     22  C   UNL     1       7.545   4.964  13.234  0.00  0.00    +0.000 A 
ENDBRANCH  17  18
BRANCH  17  23
ATOM     23  O   UNL     1       5.717   6.336  15.727  0.00  0.00    +0.000 OA
ATOM     24  H   UNL     1       6.262   7.136  15.656  0.00  0.00    +0.000 HD
ENDBRANCH  17  23
ENDBRANCH  16  17
ENDBRANCH   3  16
TORSDOF 7
ENDMDL
MODEL 8
REMARK VINA RESULT:      -6.6      1.064      1.127
REMARK  Name = 
REMARK  9 active torsions:
REMARK  status: ('A' for Active; 'I' for Inactive)
REMARK    1  A    between atoms: C_1  and  C_2
REMARK    2  A    between atoms: C_6  and  C_7
REMARK    3  A    between atoms: C_8  and  N_9
REMARK    4  A    between atoms: N_9  and  C_10
REMARK    5  A    between atoms: C_10  and  C_11
REMARK    6  A    between atoms: N_13  and  C_14
REMARK    7  A    between atoms: C_14  and  C_15
REMARK    8  A    between atoms: C_15  and  O_16
REMARK    9  A    between atoms: C_15  and  C_17
REMARK                            x       y       z     vdW  Elec       q    Type
REMARK                         _______ _______ _______ _____ _____    ______ ____
ROOT
ATOM      1  C   UNL     1       5.556   5.215  18.697  0.00  0.00    +0.000 C 
ATOM      2  O   UNL     1       6.094   5.375  19.791  0.00  0.00    +0.000 OA
ATOM      3  N   UNL     1       6.044   4.222  17.890  0.00  0.00    +0.000 N 
ATOM      4  H   UNL     1       6.833   3.737  18.308  0.00  0.00    +0.000 HD
ENDROOT
BRANCH   1   5
ATOM      5  C   UNL     1       4.386   6.082  18.202  0.00  0.00    +0.000 C 
BRANCH   5   6
ATOM      6  N   UNL     1       3.173   5.311  17.966  0.00  0.00    +0.000 N 
ATOM      7  H   UNL     1       2.937   5.132  16.996  0.00  0.00    +0.000 HD
BRANCH   6  15
ATOM      8  C   UNL     1       2.911   2.289  17.500  0.00  0.00    +0.000 C 
ATOM      9  C   UNL     1       2.465   3.047  18.720  0.00  0.00    +0.000 A 
ATOM     10  C   UNL     1       1.829   2.277  19.716  0.00  0.00    +0.000 A 
ATOM     11  C   UNL     1       1.272   2.864  20.842  0.00  0.00    +0.000 A 
ATOM     12  C   UNL     1       1.338   4.240  20.996  0.00  0.00    +0.000 A 
ATOM     13  C   UNL     1       1.975   5.036  20.028  0.00  0.00    +0.000 A 
ATOM     14  C   UNL     1       2.033   6.524  20.278  0.00  0.00    +0.000 C 
ATOM     15  C   UNL     1       2.561   4.449  18.869  0.00  0.00    +0.000 A 
ENDBRANCH   6  15
ENDBRANCH   5   6
ENDBRANCH   1   5
BRANCH   3  16
ATOM     16  C   UNL     1       5.867   4.108  16.453  0.00  0.00    +0.000 C 
BRANCH  16  17
ATOM     17  C   UNL     1       7.060   4.641  15.622  0.00  0.00    +0.000 C 
BRANCH  17  18
ATOM     18  C   UNL     1       6.913   4.386  14.142  0.00  0.00    +0.000 A 
ATOM     19  C   UNL     1       7.697   5.047  13.133  0.00  0.00    +0.000 A 
ATOM     20  C   UNL     1       7.379   4.642  11.855  0.00  0.00    +0.000 A 
ATOM     21  S   UNL     1       6.134   3.475  11.848  0.00  0.00    +0.000 S 
ATOM     22  C   UNL     1       6.015   3.513  13.554  0.00  0.00    +0.000 A 
ENDBRANCH  17  18
BRANCH  17  23
ATOM     23  O   UNL     1       7.239   6.031  15.910  0.00  0.00    +0.000 OA
ATOM     24  H   UNL     1       7.969   6.356  15.357  0.00  0.00    +0.000 HD
ENDBRANCH  17  23
ENDBRANCH  16  17
ENDBRANCH   3  16
TORSDOF 7
ENDMDL
MODEL 9
REMARK VINA RESULT:      -6.6      3.247      6.525
REMARK  Name = 
REMARK  9 active torsions:
REMARK  status: ('A' for Active; 'I' for Inactive)
REMARK    1  A    between atoms: C_1  and  C_2
REMARK    2  A    between atoms: C_6  and  C_7
REMARK    3  A    between atoms: C_8  and  N_9
REMARK    4  A    between atoms: N_9  and  C_10
REMARK    5  A    between atoms: C_10  and  C_11
REMARK    6  A    between atoms: N_13  and  C_14
REMARK    7  A    between atoms: C_14  and  C_15
REMARK    8  A    between atoms: C_15  and  O_16
REMARK    9  A    between atoms: C_15  and  C_17
REMARK                            x       y       z     vdW  Elec       q    Type
REMARK                         _______ _______ _______ _____ _____    ______ ____
ROOT
ATOM      1  C   UNL     1       3.872   2.341  19.829  0.00  0.00    +0.000 C 
ATOM      2  O   UNL     1       3.955   1.467  18.968  0.00  0.00    +0.000 OA
ATOM      3  N   UNL     1       2.819   2.272  20.702  0.00  0.00    +0.000 N 
ATOM      4  H   UNL     1       2.205   1.487  20.507  0.00  0.00    +0.000 HD
ENDROOT
BRANCH   1   5
ATOM      5  C   UNL     1       4.879   3.497  19.951  0.00  0.00    +0.000 C 
BRANCH   5   6
ATOM      6  N   UNL     1       5.799   3.566  18.824  0.00  0.00    +0.000 N 
ATOM      7  H   UNL     1       5.988   2.691  18.346  0.00  0.00    +0.000 HD
BRANCH   6  15
ATOM      8  C   UNL     1       7.852   5.675  19.694  0.00  0.00    +0.000 C 
ATOM      9  C   UNL     1       7.067   5.668  18.411  0.00  0.00    +0.000 A 
ATOM     10  C   UNL     1       7.283   6.771  17.558  0.00  0.00    +0.000 A 
ATOM     11  C   UNL     1       6.547   6.945  16.397  0.00  0.00    +0.000 A 
ATOM     12  C   UNL     1       5.574   6.017  16.061  0.00  0.00    +0.000 A 
ATOM     13  C   UNL     1       5.340   4.900  16.882  0.00  0.00    +0.000 A 
ATOM     14  C   UNL     1       4.284   3.917  16.438  0.00  0.00    +0.000 C 
ATOM     15  C   UNL     1       6.094   4.699  18.075  0.00  0.00    +0.000 A 
ENDBRANCH   6  15
ENDBRANCH   5   6
ENDBRANCH   1   5
BRANCH   3  16
ATOM     16  C   UNL     1       2.287   3.360  21.505  0.00  0.00    +0.000 C 
BRANCH  16  17
ATOM     17  C   UNL     1       1.148   4.156  20.821  0.00  0.00    +0.000 C 
BRANCH  17  18
ATOM     18  C   UNL     1       1.633   5.407  20.130  0.00  0.00    +0.000 A 
ATOM     19  C   UNL     1       1.564   6.722  20.712  0.00  0.00    +0.000 A 
ATOM     20  C   UNL     1       2.073   7.701  19.888  0.00  0.00    +0.000 A 
ATOM     21  S   UNL     1       2.629   7.061  18.407  0.00  0.00    +0.000 S 
ATOM     22  C   UNL     1       2.186   5.473  18.864  0.00  0.00    +0.000 A 
ENDBRANCH  17  18
BRANCH  17  23
ATOM     23  O   UNL     1       0.451   3.287  19.924  0.00  0.00    +0.000 OA
ATOM     24  H   UNL     1       0.745   2.379  20.104  0.00  0.00    +0.000 HD
ENDBRANCH  17  23
ENDBRANCH  16  17
ENDBRANCH   3  16
TORSDOF 7
ENDMDL
