MODEL 1
REMARK VINA RESULT:      -8.0      0.000      0.000
REMARK  Name = 
REMARK  6 active torsions:
REMARK  status: ('A' for Active; 'I' for Inactive)
REMARK    1  A    between atoms: C_1  and  O_2
REMARK    2  A    between atoms: O_2  and  C_3
REMARK    3  A    between atoms: C_6  and  N_7
REMARK    4  A    between atoms: C_14  and  S_15
REMARK    5  A    between atoms: S_15  and  C_16
REMARK    6  A    between atoms: C_23  and  C_24
REMARK                            x       y       z     vdW  Elec       q    Type
REMARK                         _______ _______ _______ _____ _____    ______ ____
ROOT
ATOM      1  N   UNL     1       2.043   8.418  18.341  0.00  0.00    +0.000 N 
ATOM      2  C   UNL     1       1.570   8.753  19.607  0.00  0.00    +0.000 C 
ATOM      3  O   UNL     1       1.764   8.079  20.610  0.00  0.00    +0.000 OA
ATOM      4  N   UNL     1       0.832   9.922  19.614  0.00  0.00    +0.000 N 
ATOM      5  C   UNL     1       0.304  10.363  20.810  0.00  0.00    +0.000 A 
ATOM      6  N   UNL     1       0.633  10.022  22.035  0.00  0.00    +0.000 NA
ATOM      7  N   UNL     1      -0.190  10.598  22.978  0.00  0.00    +0.000 NA
ATOM      8  C   UNL     1      -1.110  11.370  22.425  0.00  0.00    +0.000 A 
ATOM      9  S   UNL     1      -0.977  11.489  20.710  0.00  0.00    +0.000 S 
ATOM     10  H   UNL     1       2.003   9.124  17.623  0.00  0.00    +0.000 HD
ATOM     11  H   UNL     1       0.441  10.292  18.763  0.00  0.00    +0.000 HD
ENDROOT
BRANCH   1  15
ATOM     12  C   UNL     1       4.056   4.790  17.381  0.00  0.00    +0.000 A 
ATOM     13  C   UNL     1       4.688   6.011  17.185  0.00  0.00    +0.000 A 
ATOM     14  C   UNL     1       4.049   7.210  17.515  0.00  0.00    +0.000 A 
ATOM     15  C   UNL     1       2.743   7.222  18.016  0.00  0.00    +0.000 A 
ATOM     16  C   UNL     1       2.108   5.987  18.207  0.00  0.00    +0.000 A 
ATOM     17  C   UNL     1       2.760   4.776  17.891  0.00  0.00    +0.000 A 
BRANCH  12  19
ATOM     18  C   UNL     1       5.720   3.902  15.948  0.00  0.00    +0.000 C 
ATOM     19  O   UNL     1       4.786   3.701  16.999  0.00  0.00    +0.000 OA
ENDBRANCH  12  19
ENDBRANCH   1  15
BRANCH   8  20
ATOM     20  S   UNL     1      -2.381  12.063  23.413  0.00  0.00    +0.000 S 
BRANCH  20  21
ATOM     21  C   UNL     1      -2.040  13.778  23.169  0.00  0.00    +0.000 A 
ATOM     22  N   UNL     1      -0.743  14.127  23.353  0.00  0.00    +0.000 NA
ATOM     23  C   UNL     1      -0.357  15.363  23.048  0.00  0.00    +0.000 A 
ATOM     24  N   UNL     1      -1.119  16.330  22.560  0.00  0.00    +0.000 NA
ATOM     25  C   UNL     1      -2.399  15.963  22.390  0.00  0.00    +0.000 A 
ATOM     26  S   UNL     1      -3.478  17.098  21.737  0.00  0.00    +0.000 S 
ATOM     27  C   UNL     1      -4.768  16.004  21.837  0.00  0.00    +0.000 A 
ATOM     28  C   UNL     1      -4.410  14.761  22.340  0.00  0.00    +0.000 A 
ATOM     29  C   UNL     1      -2.974  14.719  22.670  0.00  0.00    +0.000 A 
BRANCH  28  30
ATOM     30  C   UNL     1      -5.474  13.754  22.490  0.00  0.00    +0.000 A 
ATOM     31  C   UNL     1      -6.041  13.478  23.744  0.00  0.00    +0.000 A 
ATOM     32  C   UNL     1      -7.015  12.494  23.843  0.00  0.00    +0.000 A 
ATOM     33  N   UNL     1      -7.488  11.803  22.791  0.00  0.00    +0.000 NA
ATOM     34  C   UNL     1      -6.924  12.067  21.595  0.00  0.00    +0.000 A 
ATOM     35  C   UNL     1      -5.899  12.983  21.411  0.00  0.00    +0.000 A 
ENDBRANCH  28  30
ENDBRANCH  20  21
ENDBRANCH   8  20
TORSDOF 5
ENDMDL
MODEL 2
REMARK VINA RESULT:      -8.0      0.117      1.171
REMARK  Name = 
REMARK  6 active torsions:
REMARK  status: ('A' for Active; 'I' for Inactive)
REMARK    1  A    between atoms: C_1  and  O_2
REMARK    2  A    between atoms: O_2  and  C_3
REMARK    3  A    between atoms: C_6  and  N_7
REMARK    4  A    between atoms: C_14  and  S_15
REMARK    5  A    between atoms: S_15  and  C_16
REMARK    6  A    between atoms: C_23  and  C_24
REMARK                            x       y       z     vdW  Elec       q    Type
REMARK                         _______ _______ _______ _____ _____    ______ ____
ROOT
ATOM      1  N   UNL     1       2.059   8.494  18.377  0.00  0.00    +0.000 N 
ATOM      2  C   UNL     1       1.568   8.796  19.644  0.00  0.00    +0.000 C 
ATOM      3  O   UNL     1       1.735   8.088  20.629  0.00  0.00    +0.000 OA
ATOM      4  N   UNL     1       0.844   9.973  19.675  0.00  0.00    +0.000 N 
ATOM      5  C   UNL     1       0.301  10.383  20.875  0.00  0.00    +0.000 A 
ATOM      6  N   UNL     1       0.603   9.999  22.094  0.00  0.00    +0.000 NA
ATOM      7  N   UNL     1      -0.230  10.556  23.040  0.00  0.00    +0.000 NA
ATOM      8  C   UNL     1      -1.130  11.357  22.496  0.00  0.00    +0.000 A 
ATOM      9  S   UNL     1      -0.964  11.528  20.788  0.00  0.00    +0.000 S 
ATOM     10  H   UNL     1       2.042   9.224  17.681  0.00  0.00    +0.000 HD
ATOM     11  H   UNL     1       0.474  10.375  18.830  0.00  0.00    +0.000 HD
ENDROOT
BRANCH   1  15
ATOM     12  C   UNL     1       4.208   4.975  17.311  0.00  0.00    +0.000 A 
ATOM     13  C   UNL     1       2.946   4.875  17.883  0.00  0.00    +0.000 A 
ATOM     14  C   UNL     1       2.220   6.021  18.219  0.00  0.00    +0.000 A 
ATOM     15  C   UNL     1       2.751   7.301  18.026  0.00  0.00    +0.000 A 
ATOM     16  C   UNL     1       4.027   7.395  17.454  0.00  0.00    +0.000 A 
ATOM     17  C   UNL     1       4.753   6.239  17.097  0.00  0.00    +0.000 A 
BRANCH  12  19
ATOM     18  C   UNL     1       5.768   3.769  15.999  0.00  0.00    +0.000 C 
ATOM     19  O   UNL     1       4.813   3.779  17.051  0.00  0.00    +0.000 OA
ENDBRANCH  12  19
ENDBRANCH   1  15
BRANCH   8  20
ATOM     20  S   UNL     1      -2.410  12.035  23.483  0.00  0.00    +0.000 S 
BRANCH  20  21
ATOM     21  C   UNL     1      -2.089  13.754  23.238  0.00  0.00    +0.000 A 
ATOM     22  N   UNL     1      -0.800  14.122  23.438  0.00  0.00    +0.000 NA
ATOM     23  C   UNL     1      -0.428  15.362  23.134  0.00  0.00    +0.000 A 
ATOM     24  N   UNL     1      -1.197  16.316  22.632  0.00  0.00    +0.000 NA
ATOM     25  C   UNL     1      -2.470  15.931  22.446  0.00  0.00    +0.000 A 
ATOM     26  S   UNL     1      -3.556  17.049  21.776  0.00  0.00    +0.000 S 
ATOM     27  C   UNL     1      -4.831  15.937  21.862  0.00  0.00    +0.000 A 
ATOM     28  C   UNL     1      -4.462  14.701  22.374  0.00  0.00    +0.000 A 
ATOM     29  C   UNL     1      -3.031  14.680  22.724  0.00  0.00    +0.000 A 
BRANCH  28  30
ATOM     30  C   UNL     1      -5.514  13.679  22.513  0.00  0.00    +0.000 A 
ATOM     31  C   UNL     1      -5.981  12.963  21.401  0.00  0.00    +0.000 A 
ATOM     32  C   UNL     1      -7.001  12.036  21.573  0.00  0.00    +0.000 A 
ATOM     33  N   UNL     1      -7.551  11.745  22.766  0.00  0.00    +0.000 NA
ATOM     34  C   UNL     1      -7.103  12.451  23.824  0.00  0.00    +0.000 A 
ATOM     35  C   UNL     1      -6.139  13.444  23.736  0.00  0.00    +0.000 A 
ENDBRANCH  28  30
ENDBRANCH  20  21
ENDBRANCH   8  20
TORSDOF 5
ENDMDL
MODEL 3
REMARK VINA RESULT:      -7.9      0.564      1.062
REMARK  Name = 
REMARK  6 active torsions:
REMARK  status: ('A' for Active; 'I' for Inactive)
REMARK    1  A    between atoms: C_1  and  O_2
REMARK    2  A    between atoms: O_2  and  C_3
REMARK    3  A    between atoms: C_6  and  N_7
REMARK    4  A    between atoms: C_14  and  S_15
REMARK    5  A    between atoms: S_15  and  C_16
REMARK    6  A    between atoms: C_23  and  C_24
REMARK                            x       y       z     vdW  Elec       q    Type
REMARK                         _______ _______ _______ _____ _____    ______ ____
ROOT
ATOM      1  N   UNL     1       2.031   8.190  18.559  0.00  0.00    +0.000 N 
ATOM      2  C   UNL     1       1.527   8.551  19.806  0.00  0.00    +0.000 C 
ATOM      3  O   UNL     1       1.599   7.846  20.804  0.00  0.00    +0.000 OA
ATOM      4  N   UNL     1       0.907   9.787  19.799  0.00  0.00    +0.000 N 
ATOM      5  C   UNL     1       0.362  10.260  20.975  0.00  0.00    +0.000 A 
ATOM      6  N   UNL     1       0.590   9.868  22.208  0.00  0.00    +0.000 NA
ATOM      7  N   UNL     1      -0.222  10.508  23.119  0.00  0.00    +0.000 NA
ATOM      8  C   UNL     1      -1.031  11.376  22.536  0.00  0.00    +0.000 A 
ATOM      9  S   UNL     1      -0.795  11.508  20.832  0.00  0.00    +0.000 S 
ATOM     10  H   UNL     1       2.099   8.908  17.855  0.00  0.00    +0.000 HD
ATOM     11  H   UNL     1       0.601  10.207  18.937  0.00  0.00    +0.000 HD
ENDROOT
BRANCH   1  15
ATOM     12  C   UNL     1       3.901   4.483  17.612  0.00  0.00    +0.000 A 
ATOM     13  C   UNL     1       2.596   4.504  18.087  0.00  0.00    +0.000 A 
ATOM     14  C   UNL     1       1.961   5.714  18.382  0.00  0.00    +0.000 A 
ATOM     15  C   UNL     1       2.627   6.936  18.246  0.00  0.00    +0.000 A 
ATOM     16  C   UNL     1       3.946   6.909  17.772  0.00  0.00    +0.000 A 
ATOM     17  C   UNL     1       4.581   5.688  17.456  0.00  0.00    +0.000 A 
BRANCH  12  19
ATOM     18  C   UNL     1       3.659   2.145  17.906  0.00  0.00    +0.000 C 
ATOM     19  O   UNL     1       4.404   3.235  17.382  0.00  0.00    +0.000 OA
ENDBRANCH  12  19
ENDBRANCH   1  15
BRANCH   8  20
ATOM     20  S   UNL     1      -2.279  12.177  23.471  0.00  0.00    +0.000 S 
BRANCH  20  21
ATOM     21  C   UNL     1      -1.920  13.856  23.061  0.00  0.00    +0.000 A 
ATOM     22  N   UNL     1      -0.620  14.210  23.216  0.00  0.00    +0.000 NA
ATOM     23  C   UNL     1      -0.222  15.406  22.793  0.00  0.00    +0.000 A 
ATOM     24  N   UNL     1      -0.973  16.327  22.209  0.00  0.00    +0.000 NA
ATOM     25  C   UNL     1      -2.256  15.957  22.070  0.00  0.00    +0.000 A 
ATOM     26  S   UNL     1      -3.322  17.032  21.304  0.00  0.00    +0.000 S 
ATOM     27  C   UNL     1      -4.623  15.965  21.505  0.00  0.00    +0.000 A 
ATOM     28  C   UNL     1      -4.278  14.775  22.129  0.00  0.00    +0.000 A 
ATOM     29  C   UNL     1      -2.844  14.752  22.469  0.00  0.00    +0.000 A 
BRANCH  28  30
ATOM     30  C   UNL     1      -5.353  13.796  22.372  0.00  0.00    +0.000 A 
ATOM     31  C   UNL     1      -5.881  13.604  23.658  0.00  0.00    +0.000 A 
ATOM     32  C   UNL     1      -6.865  12.644  23.847  0.00  0.00    +0.000 A 
ATOM     33  N   UNL     1      -7.385  11.902  22.852  0.00  0.00    +0.000 NA
ATOM     34  C   UNL     1      -6.858  12.086  21.625  0.00  0.00    +0.000 A 
ATOM     35  C   UNL     1      -5.825  12.972  21.354  0.00  0.00    +0.000 A 
ENDBRANCH  28  30
ENDBRANCH  20  21
ENDBRANCH   8  20
TORSDOF 5
ENDMDL
MODEL 4
REMARK VINA RESULT:      -7.8      0.992      1.354
REMARK  Name = 
REMARK  6 active torsions:
REMARK  status: ('A' for Active; 'I' for Inactive)
REMARK    1  A    between atoms: C_1  and  O_2
REMARK    2  A    between atoms: O_2  and  C_3
REMARK    3  A    between atoms: C_6  and  N_7
REMARK    4  A    between atoms: C_14  and  S_15
REMARK    5  A    between atoms: S_15  and  C_16
REMARK    6  A    between atoms: C_23  and  C_24
REMARK                            x       y       z     vdW  Elec       q    Type
REMARK                         _______ _______ _______ _____ _____    ______ ____
ROOT
ATOM      1  N   UNL     1       2.166   7.820  18.749  0.00  0.00    +0.000 N 
ATOM      2  C   UNL     1       1.607   8.227  19.957  0.00  0.00    +0.000 C 
ATOM      3  O   UNL     1       1.533   7.515  20.951  0.00  0.00    +0.000 OA
ATOM      4  N   UNL     1       1.114   9.518  19.915  0.00  0.00    +0.000 N 
ATOM      5  C   UNL     1       0.531  10.040  21.051  0.00  0.00    +0.000 A 
ATOM      6  N   UNL     1       0.625   9.626  22.294  0.00  0.00    +0.000 NA
ATOM      7  N   UNL     1      -0.186  10.342  23.148  0.00  0.00    +0.000 NA
ATOM      8  C   UNL     1      -0.858  11.286  22.513  0.00  0.00    +0.000 A 
ATOM      9  S   UNL     1      -0.483  11.398  20.834  0.00  0.00    +0.000 S 
ATOM     10  H   UNL     1       2.357   8.529  18.058  0.00  0.00    +0.000 HD
ATOM     11  H   UNL     1       0.917   9.968  19.037  0.00  0.00    +0.000 HD
ENDROOT
BRANCH   1  15
ATOM     12  C   UNL     1       3.547   3.886  17.881  0.00  0.00    +0.000 A 
ATOM     13  C   UNL     1       4.453   4.885  18.215  0.00  0.00    +0.000 A 
ATOM     14  C   UNL     1       4.013   6.176  18.523  0.00  0.00    +0.000 A 
ATOM     15  C   UNL     1       2.657   6.513  18.469  0.00  0.00    +0.000 A 
ATOM     16  C   UNL     1       1.748   5.503  18.127  0.00  0.00    +0.000 A 
ATOM     17  C   UNL     1       2.190   4.194  17.834  0.00  0.00    +0.000 A 
BRANCH  12  19
ATOM     18  C   UNL     1       3.527   1.539  18.199  0.00  0.00    +0.000 C 
ATOM     19  O   UNL     1       4.112   2.679  17.586  0.00  0.00    +0.000 OA
ENDBRANCH  12  19
ENDBRANCH   1  15
BRANCH   8  20
ATOM     20  S   UNL     1      -2.089  12.205  23.360  0.00  0.00    +0.000 S 
BRANCH  20  21
ATOM     21  C   UNL     1      -1.670  13.830  22.812  0.00  0.00    +0.000 A 
ATOM     22  N   UNL     1      -0.389  14.197  23.061  0.00  0.00    +0.000 NA
ATOM     23  C   UNL     1       0.065  15.341  22.556  0.00  0.00    +0.000 A 
ATOM     24  N   UNL     1      -0.611  16.194  21.801  0.00  0.00    +0.000 NA
ATOM     25  C   UNL     1      -1.877  15.812  21.571  0.00  0.00    +0.000 A 
ATOM     26  S   UNL     1      -2.846  16.800  20.589  0.00  0.00    +0.000 S 
ATOM     27  C   UNL     1      -4.173  15.761  20.767  0.00  0.00    +0.000 A 
ATOM     28  C   UNL     1      -3.908  14.645  21.548  0.00  0.00    +0.000 A 
ATOM     29  C   UNL     1      -2.517  14.657  22.034  0.00  0.00    +0.000 A 
BRANCH  28  30
ATOM     30  C   UNL     1      -5.014  13.699  21.782  0.00  0.00    +0.000 A 
ATOM     31  C   UNL     1      -5.488  12.869  20.756  0.00  0.00    +0.000 A 
ATOM     32  C   UNL     1      -6.557  12.021  21.012  0.00  0.00    +0.000 A 
ATOM     33  N   UNL     1      -7.152  11.912  22.214  0.00  0.00    +0.000 NA
ATOM     34  C   UNL     1      -6.695  12.726  23.187  0.00  0.00    +0.000 A 
ATOM     35  C   UNL     1      -5.680  13.653  23.005  0.00  0.00    +0.000 A 
ENDBRANCH  28  30
ENDBRANCH  20  21
ENDBRANCH   8  20
TORSDOF 5
ENDMDL
MODEL 5
REMARK VINA RESULT:      -7.7      3.775     12.165
REMARK  Name = 
REMARK  6 active torsions:
REMARK  status: ('A' for Active; 'I' for Inactive)
REMARK    1  A    between atoms: C_1  and  O_2
REMARK    2  A    between atoms: O_2  and  C_3
REMARK    3  A    between atoms: C_6  and  N_7
REMARK    4  A    between atoms: C_14  and  S_15
REMARK    5  A    between atoms: S_15  and  C_16
REMARK    6  A    between atoms: C_23  and  C_24
REMARK                            x       y       z     vdW  Elec       q    Type
REMARK                         _______ _______ _______ _____ _____    ______ ____
ROOT
ATOM      1  N   UNL     1      -1.218  12.647  21.382  0.00  0.00    +0.000 N 
ATOM      2  C   UNL     1      -0.449  11.487  21.428  0.00  0.00    +0.000 C 
ATOM      3  O   UNL     1       0.017  11.015  22.457  0.00  0.00    +0.000 OA
ATOM      4  N   UNL     1      -0.241  10.929  20.181  0.00  0.00    +0.000 N 
ATOM      5  C   UNL     1       0.510   9.775  20.090  0.00  0.00    +0.000 A 
ATOM      6  N   UNL     1       0.826   8.918  21.033  0.00  0.00    +0.000 NA
ATOM      7  N   UNL     1       1.681   7.936  20.583  0.00  0.00    +0.000 NA
ATOM      8  C   UNL     1       1.971   8.082  19.301  0.00  0.00    +0.000 A 
ATOM      9  S   UNL     1       1.153   9.403  18.551  0.00  0.00    +0.000 S 
ATOM     10  H   UNL     1      -1.716  12.846  20.529  0.00  0.00    +0.000 HD
ATOM     11  H   UNL     1      -0.370  11.472  19.343  0.00  0.00    +0.000 HD
ENDROOT
BRANCH   1  15
ATOM     12  C   UNL     1      -2.158  15.097  24.737  0.00  0.00    +0.000 A 
ATOM     13  C   UNL     1      -0.971  15.291  24.043  0.00  0.00    +0.000 A 
ATOM     14  C   UNL     1      -0.657  14.508  22.927  0.00  0.00    +0.000 A 
ATOM     15  C   UNL     1      -1.507  13.485  22.496  0.00  0.00    +0.000 A 
ATOM     16  C   UNL     1      -2.702  13.290  23.203  0.00  0.00    +0.000 A 
ATOM     17  C   UNL     1      -3.028  14.092  24.318  0.00  0.00    +0.000 A 
BRANCH  12  19
ATOM     18  C   UNL     1      -1.224  16.733  26.172  0.00  0.00    +0.000 C 
ATOM     19  O   UNL     1      -2.330  15.915  25.816  0.00  0.00    +0.000 OA
ENDBRANCH  12  19
ENDBRANCH   1  15
BRANCH   8  20
ATOM     20  S   UNL     1       3.182   7.058  18.554  0.00  0.00    +0.000 S 
BRANCH  20  21
ATOM     21  C   UNL     1       2.642   5.486  19.147  0.00  0.00    +0.000 A 
ATOM     22  N   UNL     1       1.611   5.537  20.026  0.00  0.00    +0.000 NA
ATOM     23  C   UNL     1       1.036   4.402  20.415  0.00  0.00    +0.000 A 
ATOM     24  N   UNL     1       1.360   3.180  20.024  0.00  0.00    +0.000 NA
ATOM     25  C   UNL     1       2.385   3.152  19.157  0.00  0.00    +0.000 A 
ATOM     26  S   UNL     1       2.880   1.648  18.549  0.00  0.00    +0.000 S 
ATOM     27  C   UNL     1       4.106   2.368  17.627  0.00  0.00    +0.000 A 
ATOM     28  C   UNL     1       4.153   3.750  17.741  0.00  0.00    +0.000 A 
ATOM     29  C   UNL     1       3.109   4.241  18.658  0.00  0.00    +0.000 A 
BRANCH  28  30
ATOM     30  C   UNL     1       5.208   4.460  16.997  0.00  0.00    +0.000 A 
ATOM     31  C   UNL     1       5.308   4.353  15.602  0.00  0.00    +0.000 A 
ATOM     32  C   UNL     1       6.341   5.009  14.946  0.00  0.00    +0.000 A 
ATOM     33  N   UNL     1       7.244   5.789  15.568  0.00  0.00    +0.000 NA
ATOM     34  C   UNL     1       7.144   5.871  16.911  0.00  0.00    +0.000 A 
ATOM     35  C   UNL     1       6.189   5.196  17.657  0.00  0.00    +0.000 A 
ENDBRANCH  28  30
ENDBRANCH  20  21
ENDBRANCH   8  20
TORSDOF 5
ENDMDL
MODEL 6
REMARK VINA RESULT:      -7.7      2.361      3.146
REMARK  Name = 
REMARK  6 active torsions:
REMARK  status: ('A' for Active; 'I' for Inactive)
REMARK    1  A    between atoms: C_1  and  O_2
REMARK    2  A    between atoms: O_2  and  C_3
REMARK    3  A    between atoms: C_6  and  N_7
REMARK    4  A    between atoms: C_14  and  S_15
REMARK    5  A    between atoms: S_15  and  C_16
REMARK    6  A    between atoms: C_23  and  C_24
REMARK                            x       y       z     vdW  Elec       q    Type
REMARK                         _______ _______ _______ _____ _____    ______ ____
ROOT
ATOM      1  N   UNL     1       3.242   5.976  19.799  0.00  0.00    +0.000 N 
ATOM      2  C   UNL     1       2.453   7.117  19.679  0.00  0.00    +0.000 C 
ATOM      3  O   UNL     1       2.313   7.746  18.638  0.00  0.00    +0.000 OA
ATOM      4  N   UNL     1       1.858   7.488  20.871  0.00  0.00    +0.000 N 
ATOM      5  C   UNL     1       1.051   8.607  20.886  0.00  0.00    +0.000 A 
ATOM      6  N   UNL     1       0.490   9.237  19.879  0.00  0.00    +0.000 NA
ATOM      7  N   UNL     1      -0.164  10.382  20.277  0.00  0.00    +0.000 NA
ATOM      8  C   UNL     1      -0.084  10.569  21.583  0.00  0.00    +0.000 A 
ATOM      9  S   UNL     1       0.748   9.308  22.415  0.00  0.00    +0.000 S 
ATOM     10  H   UNL     1       3.140   5.421  20.634  0.00  0.00    +0.000 HD
ATOM     11  H   UNL     1       2.209   7.150  21.752  0.00  0.00    +0.000 HD
ENDROOT
BRANCH   1  15
ATOM     12  C   UNL     1       5.740   4.338  16.763  0.00  0.00    +0.000 A 
ATOM     13  C   UNL     1       4.358   4.267  16.643  0.00  0.00    +0.000 A 
ATOM     14  C   UNL     1       3.525   4.818  17.620  0.00  0.00    +0.000 A 
ATOM     15  C   UNL     1       4.051   5.425  18.765  0.00  0.00    +0.000 A 
ATOM     16  C   UNL     1       5.446   5.489  18.885  0.00  0.00    +0.000 A 
ATOM     17  C   UNL     1       6.288   4.949  17.889  0.00  0.00    +0.000 A 
BRANCH  12  19
ATOM     18  C   UNL     1       6.138   4.191  14.433  0.00  0.00    +0.000 C 
ATOM     19  O   UNL     1       6.433   3.743  15.749  0.00  0.00    +0.000 OA
ENDBRANCH  12  19
ENDBRANCH   1  15
BRANCH   8  20
ATOM     20  S   UNL     1      -0.686  12.054  22.294  0.00  0.00    +0.000 S 
BRANCH  20  21
ATOM     21  C   UNL     1       0.316  13.221  21.426  0.00  0.00    +0.000 A 
ATOM     22  N   UNL     1       1.615  12.860  21.291  0.00  0.00    +0.000 NA
ATOM     23  C   UNL     1       2.415  13.598  20.526  0.00  0.00    +0.000 A 
ATOM     24  N   UNL     1       2.076  14.683  19.848  0.00  0.00    +0.000 NA
ATOM     25  C   UNL     1       0.786  15.024  19.999  0.00  0.00    +0.000 A 
ATOM     26  S   UNL     1       0.211  16.379  19.155  0.00  0.00    +0.000 S 
ATOM     27  C   UNL     1      -1.341  16.191  19.810  0.00  0.00    +0.000 A 
ATOM     28  C   UNL     1      -1.462  15.097  20.655  0.00  0.00    +0.000 A 
ATOM     29  C   UNL     1      -0.182  14.374  20.771  0.00  0.00    +0.000 A 
BRANCH  28  30
ATOM     30  C   UNL     1      -2.770  14.871  21.294  0.00  0.00    +0.000 A 
ATOM     31  C   UNL     1      -3.709  13.992  20.734  0.00  0.00    +0.000 A 
ATOM     32  C   UNL     1      -4.943  13.839  21.350  0.00  0.00    +0.000 A 
ATOM     33  N   UNL     1      -5.289  14.458  22.492  0.00  0.00    +0.000 NA
ATOM     34  C   UNL     1      -4.383  15.312  23.012  0.00  0.00    +0.000 A 
ATOM     35  C   UNL     1      -3.153  15.580  22.429  0.00  0.00    +0.000 A 
ENDBRANCH  28  30
ENDBRANCH  20  21
ENDBRANCH   8  20
TORSDOF 5
ENDMDL
MODEL 7
REMARK VINA RESULT:      -7.7      2.346      2.971
REMARK  Name = 
REMARK  6 active torsions:
REMARK  status: ('A' for Active; 'I' for Inactive)
REMARK    1  A    between atoms: C_1  and  O_2
REMARK    2  A    between atoms: O_2  and  C_3
REMARK    3  A    between atoms: C_6  and  N_7
REMARK    4  A    between atoms: C_14  and  S_15
REMARK    5  A    between atoms: S_15  and  C_16
REMARK    6  A    between atoms: C_23  and  C_24
REMARK                            x       y       z     vdW  Elec       q    Type
REMARK                         _______ _______ _______ _____ _____    ______ ____
ROOT
ATOM      1  N   UNL     1       3.166   6.010  19.808  0.00  0.00    +0.000 N 
ATOM      2  C   UNL     1       2.371   7.147  19.691  0.00  0.00    +0.000 C 
ATOM      3  O   UNL     1       2.193   7.753  18.643  0.00  0.00    +0.000 OA
ATOM      4  N   UNL     1       1.817   7.542  20.895  0.00  0.00    +0.000 N 
ATOM      5  C   UNL     1       1.009   8.660  20.915  0.00  0.00    +0.000 A 
ATOM      6  N   UNL     1       0.411   9.267  19.915  0.00  0.00    +0.000 NA
ATOM      7  N   UNL     1      -0.232  10.419  20.310  0.00  0.00    +0.000 NA
ATOM      8  C   UNL     1      -0.106  10.635  21.608  0.00  0.00    +0.000 A 
ATOM      9  S   UNL     1       0.757   9.393  22.438  0.00  0.00    +0.000 S 
ATOM     10  H   UNL     1       3.095   5.473  20.658  0.00  0.00    +0.000 HD
ATOM     11  H   UNL     1       2.199   7.224  21.770  0.00  0.00    +0.000 HD
ENDROOT
BRANCH   1  15
ATOM     12  C   UNL     1       5.400   4.250  16.638  0.00  0.00    +0.000 A 
ATOM     13  C   UNL     1       5.956   5.268  17.401  0.00  0.00    +0.000 A 
ATOM     14  C   UNL     1       5.244   5.842  18.458  0.00  0.00    +0.000 A 
ATOM     15  C   UNL     1       3.939   5.438  18.759  0.00  0.00    +0.000 A 
ATOM     16  C   UNL     1       3.380   4.414  17.981  0.00  0.00    +0.000 A 
ATOM     17  C   UNL     1       4.106   3.821  16.926  0.00  0.00    +0.000 A 
BRANCH  12  19
ATOM     18  C   UNL     1       7.086   4.738  15.047  0.00  0.00    +0.000 C 
ATOM     19  O   UNL     1       6.196   3.794  15.627  0.00  0.00    +0.000 OA
ENDBRANCH  12  19
ENDBRANCH   1  15
BRANCH   8  20
ATOM     20  S   UNL     1      -0.686  12.134  22.308  0.00  0.00    +0.000 S 
BRANCH  20  21
ATOM     21  C   UNL     1       0.321  13.280  21.420  0.00  0.00    +0.000 A 
ATOM     22  N   UNL     1       1.609  12.890  21.254  0.00  0.00    +0.000 NA
ATOM     23  C   UNL     1       2.407  13.612  20.473  0.00  0.00    +0.000 A 
ATOM     24  N   UNL     1       2.078  14.707  19.805  0.00  0.00    +0.000 NA
ATOM     25  C   UNL     1       0.800  15.077  19.988  0.00  0.00    +0.000 A 
ATOM     26  S   UNL     1       0.237  16.448  19.162  0.00  0.00    +0.000 S 
ATOM     27  C   UNL     1      -1.303  16.293  19.852  0.00  0.00    +0.000 A 
ATOM     28  C   UNL     1      -1.430  15.199  20.697  0.00  0.00    +0.000 A 
ATOM     29  C   UNL     1      -0.165  14.447  20.781  0.00  0.00    +0.000 A 
BRANCH  28  30
ATOM     30  C   UNL     1      -2.727  15.001  21.366  0.00  0.00    +0.000 A 
ATOM     31  C   UNL     1      -3.036  15.667  22.562  0.00  0.00    +0.000 A 
ATOM     32  C   UNL     1      -4.256  15.421  23.176  0.00  0.00    +0.000 A 
ATOM     33  N   UNL     1      -5.195  14.602  22.670  0.00  0.00    +0.000 NA
ATOM     34  C   UNL     1      -4.880  13.957  21.528  0.00  0.00    +0.000 A 
ATOM     35  C   UNL     1      -3.660  14.087  20.881  0.00  0.00    +0.000 A 
ENDBRANCH  28  30
ENDBRANCH  20  21
ENDBRANCH   8  20
TORSDOF 5
ENDMDL
MODEL 8
REMARK VINA RESULT:      -7.6      2.256      3.061
REMARK  Name = 
REMARK  6 active torsions:
REMARK  status: ('A' for Active; 'I' for Inactive)
REMARK    1  A    between atoms: C_1  and  O_2
REMARK    2  A    between atoms: O_2  and  C_3
REMARK    3  A    between atoms: C_6  and  N_7
REMARK    4  A    between atoms: C_14  and  S_15
REMARK    5  A    between atoms: S_15  and  C_16
REMARK    6  A    between atoms: C_23  and  C_24
REMARK                            x       y       z     vdW  Elec       q    Type
REMARK                         _______ _______ _______ _____ _____    ______ ____
ROOT
ATOM      1  N   UNL     1       3.889   5.966  18.857  0.00  0.00    +0.000 N 
ATOM      2  C   UNL     1       3.029   7.060  18.911  0.00  0.00    +0.000 C 
ATOM      3  O   UNL     1       2.911   7.882  18.012  0.00  0.00    +0.000 OA
ATOM      4  N   UNL     1       2.333   7.140  20.103  0.00  0.00    +0.000 N 
ATOM      5  C   UNL     1       1.448   8.182  20.284  0.00  0.00    +0.000 A 
ATOM      6  N   UNL     1       0.909   8.974  19.385  0.00  0.00    +0.000 NA
ATOM      7  N   UNL     1       0.149   9.972  19.955  0.00  0.00    +0.000 NA
ATOM      8  C   UNL     1       0.132   9.888  21.274  0.00  0.00    +0.000 A 
ATOM      9  S   UNL     1       0.998   8.531  21.894  0.00  0.00    +0.000 S 
ATOM     10  H   UNL     1       3.774   5.245  19.552  0.00  0.00    +0.000 HD
ATOM     11  H   UNL     1       2.650   6.646  20.922  0.00  0.00    +0.000 HD
ENDROOT
BRANCH   1  15
ATOM     12  C   UNL     1       6.686   5.178  15.744  0.00  0.00    +0.000 A 
ATOM     13  C   UNL     1       5.414   4.623  15.695  0.00  0.00    +0.000 A 
ATOM     14  C   UNL     1       4.477   4.889  16.699  0.00  0.00    +0.000 A 
ATOM     15  C   UNL     1       4.800   5.689  17.799  0.00  0.00    +0.000 A 
ATOM     16  C   UNL     1       6.087   6.242  17.847  0.00  0.00    +0.000 A 
ATOM     17  C   UNL     1       7.027   5.989  16.824  0.00  0.00    +0.000 A 
BRANCH  12  19
ATOM     18  C   UNL     1       6.872   4.291  13.556  0.00  0.00    +0.000 C 
ATOM     19  O   UNL     1       7.505   4.821  14.712  0.00  0.00    +0.000 OA
ENDBRANCH  12  19
ENDBRANCH   1  15
BRANCH   8  20
ATOM     20  S   UNL     1      -0.620  11.155  22.223  0.00  0.00    +0.000 S 
BRANCH  20  21
ATOM     21  C   UNL     1       0.144  12.565  21.486  0.00  0.00    +0.000 A 
ATOM     22  N   UNL     1       1.469  12.423  21.234  0.00  0.00    +0.000 NA
ATOM     23  C   UNL     1       2.101  13.370  20.547  0.00  0.00    +0.000 A 
ATOM     24  N   UNL     1       1.567  14.476  20.052  0.00  0.00    +0.000 NA
ATOM     25  C   UNL     1       0.256  14.598  20.317  0.00  0.00    +0.000 A 
ATOM     26  S   UNL     1      -0.560  15.956  19.711  0.00  0.00    +0.000 S 
ATOM     27  C   UNL     1      -2.020  15.451  20.408  0.00  0.00    +0.000 A 
ATOM     28  C   UNL     1      -1.927  14.246  21.089  0.00  0.00    +0.000 A 
ATOM     29  C   UNL     1      -0.555  13.712  21.034  0.00  0.00    +0.000 A 
BRANCH  28  30
ATOM     30  C   UNL     1      -3.143  13.743  21.753  0.00  0.00    +0.000 A 
ATOM     31  C   UNL     1      -3.251  13.727  23.152  0.00  0.00    +0.000 A 
ATOM     32  C   UNL     1      -4.399  13.209  23.734  0.00  0.00    +0.000 A 
ATOM     33  N   UNL     1      -5.451  12.750  23.032  0.00  0.00    +0.000 NA
ATOM     34  C   UNL     1      -5.327  12.757  21.689  0.00  0.00    +0.000 A 
ATOM     35  C   UNL     1      -4.191  13.190  21.021  0.00  0.00    +0.000 A 
ENDBRANCH  28  30
ENDBRANCH  20  21
ENDBRANCH   8  20
TORSDOF 5
ENDMDL
MODEL 9
REMARK VINA RESULT:      -7.6      2.447      4.217
REMARK  Name = 
REMARK  6 active torsions:
REMARK  status: ('A' for Active; 'I' for Inactive)
REMARK    1  A    between atoms: C_1  and  O_2
REMARK    2  A    between atoms: O_2  and  C_3
REMARK    3  A    between atoms: C_6  and  N_7
REMARK    4  A    between atoms: C_14  and  S_15
REMARK    5  A    between atoms: S_15  and  C_16
REMARK    6  A    between atoms: C_23  and  C_24
REMARK                            x       y       z     vdW  Elec       q    Type
REMARK                         _______ _______ _______ _____ _____    ______ ____
ROOT
ATOM      1  N   UNL     1       1.964   7.740  20.551  0.00  0.00    +0.000 N 
ATOM      2  C   UNL     1       0.916   8.388  21.200  0.00  0.00    +0.000 C 
ATOM      3  O   UNL     1      -0.155   7.858  21.467  0.00  0.00    +0.000 OA
ATOM      4  N   UNL     1       1.198   9.709  21.492  0.00  0.00    +0.000 N 
ATOM      5  C   UNL     1       0.237  10.463  22.134  0.00  0.00    +0.000 A 
ATOM      6  N   UNL     1      -0.819  10.062  22.803  0.00  0.00    +0.000 NA
ATOM      7  N   UNL     1      -1.608  11.112  23.217  0.00  0.00    +0.000 NA
ATOM      8  C   UNL     1      -1.107  12.280  22.852  0.00  0.00    +0.000 A 
ATOM      9  S   UNL     1       0.406  12.161  22.033  0.00  0.00    +0.000 S 
ATOM     10  H   UNL     1       2.866   8.192  20.551  0.00  0.00    +0.000 HD
ATOM     11  H   UNL     1       1.938  10.198  21.016  0.00  0.00    +0.000 HD
ENDROOT
BRANCH   1  15
ATOM     12  C   UNL     1       1.877   3.796  18.948  0.00  0.00    +0.000 A 
ATOM     13  C   UNL     1       1.520   4.018  20.271  0.00  0.00    +0.000 A 
ATOM     14  C   UNL     1       1.523   5.310  20.807  0.00  0.00    +0.000 A 
ATOM     15  C   UNL     1       1.920   6.412  20.042  0.00  0.00    +0.000 A 
ATOM     16  C   UNL     1       2.284   6.181  18.709  0.00  0.00    +0.000 A 
ATOM     17  C   UNL     1       2.263   4.880  18.162  0.00  0.00    +0.000 A 
BRANCH  12  19
ATOM     18  C   UNL     1       2.985   2.011  17.854  0.00  0.00    +0.000 C 
ATOM     19  O   UNL     1       1.848   2.487  18.561  0.00  0.00    +0.000 OA
ENDBRANCH  12  19
ENDBRANCH   1  15
BRANCH   8  20
ATOM     20  S   UNL     1      -2.029  13.748  23.110  0.00  0.00    +0.000 S 
BRANCH  20  21
ATOM     21  C   UNL     1      -3.659  13.117  22.863  0.00  0.00    +0.000 A 
ATOM     22  N   UNL     1      -4.445  13.133  23.968  0.00  0.00    +0.000 NA
ATOM     23  C   UNL     1      -5.731  12.818  23.850  0.00  0.00    +0.000 A 
ATOM     24  N   UNL     1      -6.364  12.485  22.736  0.00  0.00    +0.000 NA
ATOM     25  C   UNL     1      -5.566  12.472  21.656  0.00  0.00    +0.000 A 
ATOM     26  S   UNL     1      -6.258  12.093  20.154  0.00  0.00    +0.000 S 
ATOM     27  C   UNL     1      -4.764  12.251  19.369  0.00  0.00    +0.000 A 
ATOM     28  C   UNL     1      -3.725  12.612  20.215  0.00  0.00    +0.000 A 
ATOM     29  C   UNL     1      -4.198  12.759  21.602  0.00  0.00    +0.000 A 
BRANCH  28  30
ATOM     30  C   UNL     1      -2.381  12.744  19.624  0.00  0.00    +0.000 A 
ATOM     31  C   UNL     1      -1.716  13.980  19.604  0.00  0.00    +0.000 A 
ATOM     32  C   UNL     1      -0.468  14.065  19.004  0.00  0.00    +0.000 A 
ATOM     33  N   UNL     1       0.176  13.014  18.466  0.00  0.00    +0.000 NA
ATOM     34  C   UNL     1      -0.481  11.836  18.479  0.00  0.00    +0.000 A 
ATOM     35  C   UNL     1      -1.758  11.670  18.995  0.00  0.00    +0.000 A 
ENDBRANCH  28  30
ENDBRANCH  20  21
ENDBRANCH   8  20
TORSDOF 5
ENDMDL
