MODEL 1
REMARK VINA RESULT:      -8.0      0.000      0.000
REMARK  Name = 
REMARK  5 active torsions:
REMARK  status: ('A' for Active; 'I' for Inactive)
REMARK    1  A    between atoms: C_1  and  C_2
REMARK    2  A    between atoms: C_4  and  C_5
REMARK    3  A    between atoms: N_7  and  C_8
REMARK    4  A    between atoms: C_8  and  C_9
REMARK    5  A    between atoms: C_9  and  O_10
REMARK                            x       y       z     vdW  Elec       q    Type
REMARK                         _______ _______ _______ _____ _____    ______ ____
ROOT
ATOM      1  C   UNL     1       6.477   4.663  17.491  0.00  0.00    +0.000 C 
ATOM      2  O   UNL     1       7.411   4.492  18.266  0.00  0.00    +0.000 OA
ATOM      3  N   UNL     1       5.185   4.918  17.897  0.00  0.00    +0.000 N 
ATOM      4  H   UNL     1       4.485   5.021  17.170  0.00  0.00    +0.000 HD
ENDROOT
BRANCH   1   8
ATOM      5  C   UNL     1       6.335   3.685  12.508  0.00  0.00    +0.000 C 
ATOM      6  C   UNL     1       6.536   4.142  13.893  0.00  0.00    +0.000 A 
ATOM      7  C   UNL     1       6.073   3.731  15.117  0.00  0.00    +0.000 A 
ATOM      8  C   UNL     1       6.647   4.641  16.038  0.00  0.00    +0.000 A 
ATOM      9  N   UNL     1       7.433   5.531  15.405  0.00  0.00    +0.000 NA
ATOM     10  O   UNL     1       7.354   5.216  14.061  0.00  0.00    +0.000 OA
ENDBRANCH   1   8
BRANCH   3  11
ATOM     11  C   UNL     1       4.806   5.082  19.297  0.00  0.00    +0.000 C 
BRANCH  11  12
ATOM     12  C   UNL     1       3.342   4.649  19.589  0.00  0.00    +0.000 C 
ATOM     13  C   UNL     1       2.480   4.812  18.367  0.00  0.00    +0.000 C 
ATOM     14  C   UNL     1       1.464   3.990  18.060  0.00  0.00    +0.000 C 
ATOM     15  C   UNL     1       1.046   2.832  18.912  0.00  0.00    +0.000 C 
ATOM     16  C   UNL     1       1.867   2.624  20.186  0.00  0.00    +0.000 C 
ATOM     17  C   UNL     1       3.280   3.207  20.129  0.00  0.00    +0.000 C 
BRANCH  12  18
ATOM     18  O   UNL     1       2.791   5.549  20.559  0.00  0.00    +0.000 OA
ATOM     19  H   UNL     1       1.874   5.268  20.710  0.00  0.00    +0.000 HD
ENDBRANCH  12  18
ENDBRANCH  11  12
ENDBRANCH   3  11
TORSDOF 4
ENDMDL
MODEL 2
REMARK VINA RESULT:      -7.8      1.020      1.345
REMARK  Name = 
REMARK  5 active torsions:
REMARK  status: ('A' for Active; 'I' for Inactive)
REMARK    1  A    between atoms: C_1  and  C_2
REMARK    2  A    between atoms: C_4  and  C_5
REMARK    3  A    between atoms: N_7  and  C_8
REMARK    4  A    between atoms: C_8  and  C_9
REMARK    5  A    between atoms: C_9  and  O_10
REMARK                            x       y       z     vdW  Elec       q    Type
REMARK                         _______ _______ _______ _____ _____    ______ ____
ROOT
ATOM      1  C   UNL     1       6.124   4.759  17.382  0.00  0.00    +0.000 C 
ATOM      2  O   UNL     1       6.840   4.339  18.283  0.00  0.00    +0.000 OA
ATOM      3  N   UNL     1       4.860   5.270  17.587  0.00  0.00    +0.000 N 
ATOM      4  H   UNL     1       4.345   5.570  16.764  0.00  0.00    +0.000 HD
ENDROOT
BRANCH   1   8
ATOM      5  C   UNL     1       6.820   4.020  12.404  0.00  0.00    +0.000 C 
ATOM      6  C   UNL     1       6.799   4.396  13.828  0.00  0.00    +0.000 A 
ATOM      7  C   UNL     1       6.089   3.973  14.922  0.00  0.00    +0.000 A 
ATOM      8  C   UNL     1       6.554   4.787  15.984  0.00  0.00    +0.000 A 
ATOM      9  N   UNL     1       7.510   5.632  15.556  0.00  0.00    +0.000 NA
ATOM     10  O   UNL     1       7.653   5.385  14.203  0.00  0.00    +0.000 OA
ENDBRANCH   1   8
BRANCH   3  11
ATOM     11  C   UNL     1       4.269   5.430  18.911  0.00  0.00    +0.000 C 
BRANCH  11  12
ATOM     12  C   UNL     1       3.423   4.204  19.355  0.00  0.00    +0.000 C 
ATOM     13  C   UNL     1       2.552   4.550  20.532  0.00  0.00    +0.000 C 
ATOM     14  C   UNL     1       1.328   4.036  20.728  0.00  0.00    +0.000 C 
ATOM     15  C   UNL     1       0.693   3.032  19.815  0.00  0.00    +0.000 C 
ATOM     16  C   UNL     1       1.537   2.616  18.609  0.00  0.00    +0.000 C 
ATOM     17  C   UNL     1       2.586   3.646  18.186  0.00  0.00    +0.000 C 
BRANCH  12  18
ATOM     18  O   UNL     1       4.315   3.191  19.833  0.00  0.00    +0.000 OA
ATOM     19  H   UNL     1       4.717   3.536  20.648  0.00  0.00    +0.000 HD
ENDBRANCH  12  18
ENDBRANCH  11  12
ENDBRANCH   3  11
TORSDOF 4
ENDMDL
MODEL 3
REMARK VINA RESULT:      -7.7      1.441      1.898
REMARK  Name = 
REMARK  5 active torsions:
REMARK  status: ('A' for Active; 'I' for Inactive)
REMARK    1  A    between atoms: C_1  and  C_2
REMARK    2  A    between atoms: C_4  and  C_5
REMARK    3  A    between atoms: N_7  and  C_8
REMARK    4  A    between atoms: C_8  and  C_9
REMARK    5  A    between atoms: C_9  and  O_10
REMARK                            x       y       z     vdW  Elec       q    Type
REMARK                         _______ _______ _______ _____ _____    ______ ____
ROOT
ATOM      1  C   UNL     1       5.824   5.092  17.298  0.00  0.00    +0.000 C 
ATOM      2  O   UNL     1       5.586   6.178  17.813  0.00  0.00    +0.000 OA
ATOM      3  N   UNL     1       5.607   3.885  17.928  0.00  0.00    +0.000 N 
ATOM      4  H   UNL     1       5.862   3.046  17.417  0.00  0.00    +0.000 HD
ENDROOT
BRANCH   1   8
ATOM      5  C   UNL     1       6.749   3.893  12.449  0.00  0.00    +0.000 C 
ATOM      6  C   UNL     1       6.680   4.380  13.837  0.00  0.00    +0.000 A 
ATOM      7  C   UNL     1       5.859   4.122  14.905  0.00  0.00    +0.000 A 
ATOM      8  C   UNL     1       6.343   4.964  15.937  0.00  0.00    +0.000 A 
ATOM      9  N   UNL     1       7.410   5.668  15.518  0.00  0.00    +0.000 NA
ATOM     10  O   UNL     1       7.612   5.301  14.201  0.00  0.00    +0.000 OA
ENDBRANCH   1   8
BRANCH   3  11
ATOM     11  C   UNL     1       5.003   3.773  19.252  0.00  0.00    +0.000 C 
BRANCH  11  12
ATOM     12  C   UNL     1       3.666   2.980  19.249  0.00  0.00    +0.000 C 
ATOM     13  C   UNL     1       3.114   2.852  20.643  0.00  0.00    +0.000 C 
ATOM     14  C   UNL     1       1.803   2.852  20.925  0.00  0.00    +0.000 C 
ATOM     15  C   UNL     1       0.729   2.949  19.886  0.00  0.00    +0.000 C 
ATOM     16  C   UNL     1       1.221   3.056  18.441  0.00  0.00    +0.000 C 
ATOM     17  C   UNL     1       2.636   3.619  18.296  0.00  0.00    +0.000 C 
BRANCH  12  18
ATOM     18  O   UNL     1       3.939   1.637  18.829  0.00  0.00    +0.000 OA
ATOM     19  H   UNL     1       4.789   1.388  19.228  0.00  0.00    +0.000 HD
ENDBRANCH  12  18
ENDBRANCH  11  12
ENDBRANCH   3  11
TORSDOF 4
ENDMDL
MODEL 4
REMARK VINA RESULT:      -7.6      1.170      1.619
REMARK  Name = 
REMARK  5 active torsions:
REMARK  status: ('A' for Active; 'I' for Inactive)
REMARK    1  A    between atoms: C_1  and  C_2
REMARK    2  A    between atoms: C_4  and  C_5
REMARK    3  A    between atoms: N_7  and  C_8
REMARK    4  A    between atoms: C_8  and  C_9
REMARK    5  A    between atoms: C_9  and  O_10
REMARK                            x       y       z     vdW  Elec       q    Type
REMARK                         _______ _______ _______ _____ _____    ______ ____
ROOT
ATOM      1  C   UNL     1       6.149   4.770  17.405  0.00  0.00    +0.000 C 
ATOM      2  O   UNL     1       6.878   4.363  18.301  0.00  0.00    +0.000 OA
ATOM      3  N   UNL     1       4.888   5.283  17.621  0.00  0.00    +0.000 N 
ATOM      4  H   UNL     1       4.361   5.570  16.802  0.00  0.00    +0.000 HD
ENDROOT
BRANCH   1   8
ATOM      5  C   UNL     1       6.755   3.979  12.424  0.00  0.00    +0.000 C 
ATOM      6  C   UNL     1       6.764   4.366  13.844  0.00  0.00    +0.000 A 
ATOM      7  C   UNL     1       6.061   3.967  14.952  0.00  0.00    +0.000 A 
ATOM      8  C   UNL     1       6.559   4.778  16.001  0.00  0.00    +0.000 A 
ATOM      9  N   UNL     1       7.526   5.600  15.551  0.00  0.00    +0.000 NA
ATOM     10  O   UNL     1       7.644   5.340  14.199  0.00  0.00    +0.000 OA
ENDBRANCH   1   8
BRANCH   3  11
ATOM     11  C   UNL     1       4.316   5.461  18.951  0.00  0.00    +0.000 C 
BRANCH  11  12
ATOM     12  C   UNL     1       3.146   4.482  19.250  0.00  0.00    +0.000 C 
ATOM     13  C   UNL     1       3.640   3.262  19.979  0.00  0.00    +0.000 C 
ATOM     14  C   UNL     1       2.923   2.612  20.908  0.00  0.00    +0.000 C 
ATOM     15  C   UNL     1       1.534   3.002  21.310  0.00  0.00    +0.000 C 
ATOM     16  C   UNL     1       0.960   4.222  20.587  0.00  0.00    +0.000 C 
ATOM     17  C   UNL     1       2.014   5.180  20.030  0.00  0.00    +0.000 C 
BRANCH  12  18
ATOM     18  O   UNL     1       2.638   3.993  18.002  0.00  0.00    +0.000 OA
ATOM     19  H   UNL     1       2.265   4.759  17.534  0.00  0.00    +0.000 HD
ENDBRANCH  12  18
ENDBRANCH  11  12
ENDBRANCH   3  11
TORSDOF 4
ENDMDL
MODEL 5
REMARK VINA RESULT:      -7.5      1.350      1.363
REMARK  Name = 
REMARK  5 active torsions:
REMARK  status: ('A' for Active; 'I' for Inactive)
REMARK    1  A    between atoms: C_1  and  C_2
REMARK    2  A    between atoms: C_4  and  C_5
REMARK    3  A    between atoms: N_7  and  C_8
REMARK    4  A    between atoms: C_8  and  C_9
REMARK    5  A    between atoms: C_9  and  O_10
REMARK                            x       y       z     vdW  Elec       q    Type
REMARK                         _______ _______ _______ _____ _____    ______ ____
ROOT
ATOM      1  C   UNL     1       5.338   5.946  17.112  0.00  0.00    +0.000 C 
ATOM      2  O   UNL     1       4.886   7.080  17.215  0.00  0.00    +0.000 OA
ATOM      3  N   UNL     1       5.238   4.991  18.101  0.00  0.00    +0.000 N 
ATOM      4  H   UNL     1       5.670   4.090  17.917  0.00  0.00    +0.000 HD
ENDROOT
BRANCH   1   8
ATOM      5  C   UNL     1       6.674   3.787  12.711  0.00  0.00    +0.000 C 
ATOM      6  C   UNL     1       6.516   4.496  13.992  0.00  0.00    +0.000 A 
ATOM      7  C   UNL     1       5.496   4.620  14.901  0.00  0.00    +0.000 A 
ATOM      8  C   UNL     1       6.015   5.477  15.903  0.00  0.00    +0.000 A 
ATOM      9  N   UNL     1       7.285   5.825  15.623  0.00  0.00    +0.000 NA
ATOM     10  O   UNL     1       7.589   5.212  14.422  0.00  0.00    +0.000 OA
ENDBRANCH   1   8
BRANCH   3  11
ATOM     11  C   UNL     1       4.518   5.209  19.351  0.00  0.00    +0.000 C 
BRANCH  11  12
ATOM     12  C   UNL     1       2.997   4.909  19.241  0.00  0.00    +0.000 C 
ATOM     13  C   UNL     1       2.726   3.896  18.162  0.00  0.00    +0.000 C 
ATOM     14  C   UNL     1       1.749   2.978  18.233  0.00  0.00    +0.000 C 
ATOM     15  C   UNL     1       0.792   2.871  19.380  0.00  0.00    +0.000 C 
ATOM     16  C   UNL     1       0.996   3.890  20.502  0.00  0.00    +0.000 C 
ATOM     17  C   UNL     1       2.415   4.454  20.594  0.00  0.00    +0.000 C 
BRANCH  12  18
ATOM     18  O   UNL     1       2.332   6.102  18.809  0.00  0.00    +0.000 OA
ATOM     19  H   UNL     1       1.713   5.839  18.108  0.00  0.00    +0.000 HD
ENDBRANCH  12  18
ENDBRANCH  11  12
ENDBRANCH   3  11
TORSDOF 4
ENDMDL
MODEL 6
REMARK VINA RESULT:      -7.4      1.191      1.304
REMARK  Name = 
REMARK  5 active torsions:
REMARK  status: ('A' for Active; 'I' for Inactive)
REMARK    1  A    between atoms: C_1  and  C_2
REMARK    2  A    between atoms: C_4  and  C_5
REMARK    3  A    between atoms: N_7  and  C_8
REMARK    4  A    between atoms: C_8  and  C_9
REMARK    5  A    between atoms: C_9  and  O_10
REMARK                            x       y       z     vdW  Elec       q    Type
REMARK                         _______ _______ _______ _____ _____    ______ ____
ROOT
ATOM      1  C   UNL     1       6.856   5.222  16.283  0.00  0.00    +0.000 C 
ATOM      2  O   UNL     1       7.449   6.230  16.646  0.00  0.00    +0.000 OA
ATOM      3  N   UNL     1       6.141   4.408  17.136  0.00  0.00    +0.000 N 
ATOM      4  H   UNL     1       5.708   3.584  16.732  0.00  0.00    +0.000 HD
ENDROOT
BRANCH   1   8
ATOM      5  C   UNL     1       5.926   2.985  11.818  0.00  0.00    +0.000 C 
ATOM      6  C   UNL     1       6.365   3.759  12.990  0.00  0.00    +0.000 A 
ATOM      7  C   UNL     1       6.027   3.763  14.320  0.00  0.00    +0.000 A 
ATOM      8  C   UNL     1       6.823   4.789  14.886  0.00  0.00    +0.000 A 
ATOM      9  N   UNL     1       7.614   5.350  13.953  0.00  0.00    +0.000 NA
ATOM     10  O   UNL     1       7.317   4.705  12.768  0.00  0.00    +0.000 OA
ENDBRANCH   1   8
BRANCH   3  11
ATOM     11  C   UNL     1       5.957   4.703  18.553  0.00  0.00    +0.000 C 
BRANCH  11  12
ATOM     12  C   UNL     1       4.486   4.540  19.026  0.00  0.00    +0.000 C 
ATOM     13  C   UNL     1       3.525   4.929  17.935  0.00  0.00    +0.000 C 
ATOM     14  C   UNL     1       2.338   4.332  17.743  0.00  0.00    +0.000 C 
ATOM     15  C   UNL     1       1.813   3.229  18.609  0.00  0.00    +0.000 C 
ATOM     16  C   UNL     1       2.731   2.801  19.755  0.00  0.00    +0.000 C 
ATOM     17  C   UNL     1       4.212   3.108  19.527  0.00  0.00    +0.000 C 
BRANCH  12  18
ATOM     18  O   UNL     1       4.247   5.473  20.086  0.00  0.00    +0.000 OA
ATOM     19  H   UNL     1       3.431   5.950  19.859  0.00  0.00    +0.000 HD
ENDBRANCH  12  18
ENDBRANCH  11  12
ENDBRANCH   3  11
TORSDOF 4
ENDMDL
MODEL 7
REMARK VINA RESULT:      -7.4      1.570      1.796
REMARK  Name = 
REMARK  5 active torsions:
REMARK  status: ('A' for Active; 'I' for Inactive)
REMARK    1  A    between atoms: C_1  and  C_2
REMARK    2  A    between atoms: C_4  and  C_5
REMARK    3  A    between atoms: N_7  and  C_8
REMARK    4  A    between atoms: C_8  and  C_9
REMARK    5  A    between atoms: C_9  and  O_10
REMARK                            x       y       z     vdW  Elec       q    Type
REMARK                         _______ _______ _______ _____ _____    ______ ____
ROOT
ATOM      1  C   UNL     1       6.522   5.257  16.308  0.00  0.00    +0.000 C 
ATOM      2  O   UNL     1       6.758   6.386  16.719  0.00  0.00    +0.000 OA
ATOM      3  N   UNL     1       6.016   4.247  17.098  0.00  0.00    +0.000 N 
ATOM      4  H   UNL     1       5.880   3.342  16.659  0.00  0.00    +0.000 HD
ENDROOT
BRANCH   1   8
ATOM      5  C   UNL     1       6.411   3.136  11.693  0.00  0.00    +0.000 C 
ATOM      6  C   UNL     1       6.626   3.886  12.942  0.00  0.00    +0.000 A 
ATOM      7  C   UNL     1       6.077   3.836  14.198  0.00  0.00    +0.000 A 
ATOM      8  C   UNL     1       6.732   4.868  14.914  0.00  0.00    +0.000 A 
ATOM      9  N   UNL     1       7.642   5.485  14.137  0.00  0.00    +0.000 NA
ATOM     10  O   UNL     1       7.565   4.869  12.902  0.00  0.00    +0.000 OA
ENDBRANCH   1   8
BRANCH   3  11
ATOM     11  C   UNL     1       5.639   4.439  18.495  0.00  0.00    +0.000 C 
BRANCH  11  12
ATOM     12  C   UNL     1       4.449   3.542  18.936  0.00  0.00    +0.000 C 
ATOM     13  C   UNL     1       3.499   4.305  19.819  0.00  0.00    +0.000 C 
ATOM     14  C   UNL     1       2.171   4.114  19.822  0.00  0.00    +0.000 C 
ATOM     15  C   UNL     1       1.476   3.097  18.969  0.00  0.00    +0.000 C 
ATOM     16  C   UNL     1       2.388   2.267  18.064  0.00  0.00    +0.000 C 
ATOM     17  C   UNL     1       3.718   2.938  17.720  0.00  0.00    +0.000 C 
BRANCH  12  18
ATOM     18  O   UNL     1       4.961   2.487  19.760  0.00  0.00    +0.000 OA
ATOM     19  H   UNL     1       5.840   2.772  20.062  0.00  0.00    +0.000 HD
ENDBRANCH  12  18
ENDBRANCH  11  12
ENDBRANCH   3  11
TORSDOF 4
ENDMDL
MODEL 8
REMARK VINA RESULT:      -7.2      2.408      3.547
REMARK  Name = 
REMARK  5 active torsions:
REMARK  status: ('A' for Active; 'I' for Inactive)
REMARK    1  A    between atoms: C_1  and  C_2
REMARK    2  A    between atoms: C_4  and  C_5
REMARK    3  A    between atoms: N_7  and  C_8
REMARK    4  A    between atoms: C_8  and  C_9
REMARK    5  A    between atoms: C_9  and  O_10
REMARK                            x       y       z     vdW  Elec       q    Type
REMARK                         _______ _______ _______ _____ _____    ______ ____
ROOT
ATOM      1  C   UNL     1       5.578   4.287  16.912  0.00  0.00    +0.000 C 
ATOM      2  O   UNL     1       5.836   3.643  15.902  0.00  0.00    +0.000 OA
ATOM      3  N   UNL     1       4.437   4.102  17.664  0.00  0.00    +0.000 N 
ATOM      4  H   UNL     1       4.313   4.707  18.469  0.00  0.00    +0.000 HD
ENDROOT
BRANCH   1   8
ATOM      5  C   UNL     1       8.191   8.515  17.962  0.00  0.00    +0.000 C 
ATOM      6  C   UNL     1       7.573   7.185  17.828  0.00  0.00    +0.000 A 
ATOM      7  C   UNL     1       6.610   6.652  17.010  0.00  0.00    +0.000 A 
ATOM      8  C   UNL     1       6.477   5.310  17.444  0.00  0.00    +0.000 A 
ATOM      9  N   UNL     1       7.332   5.046  18.449  0.00  0.00    +0.000 NA
ATOM     10  O   UNL     1       8.010   6.227  18.689  0.00  0.00    +0.000 OA
ENDBRANCH   1   8
BRANCH   3  11
ATOM     11  C   UNL     1       3.449   3.068  17.374  0.00  0.00    +0.000 C 
BRANCH  11  12
ATOM     12  C   UNL     1       2.529   2.745  18.584  0.00  0.00    +0.000 C 
ATOM     13  C   UNL     1       3.343   2.404  19.803  0.00  0.00    +0.000 C 
ATOM     14  C   UNL     1       2.974   2.718  21.054  0.00  0.00    +0.000 C 
ATOM     15  C   UNL     1       1.693   3.417  21.393  0.00  0.00    +0.000 C 
ATOM     16  C   UNL     1       0.804   3.771  20.199  0.00  0.00    +0.000 C 
ATOM     17  C   UNL     1       1.551   3.903  18.871  0.00  0.00    +0.000 C 
BRANCH  12  18
ATOM     18  O   UNL     1       1.789   1.556  18.283  0.00  0.00    +0.000 OA
ATOM     19  H   UNL     1       1.746   1.492  17.314  0.00  0.00    +0.000 HD
ENDBRANCH  12  18
ENDBRANCH  11  12
ENDBRANCH   3  11
TORSDOF 4
ENDMDL
MODEL 9
REMARK VINA RESULT:      -7.1      1.509      1.776
REMARK  Name = 
REMARK  5 active torsions:
REMARK  status: ('A' for Active; 'I' for Inactive)
REMARK    1  A    between atoms: C_1  and  C_2
REMARK    2  A    between atoms: C_4  and  C_5
REMARK    3  A    between atoms: N_7  and  C_8
REMARK    4  A    between atoms: C_8  and  C_9
REMARK    5  A    between atoms: C_9  and  O_10
REMARK                            x       y       z     vdW  Elec       q    Type
REMARK                         _______ _______ _______ _____ _____    ______ ____
ROOT
ATOM      1  C   UNL     1       4.920   5.870  16.835  0.00  0.00    +0.000 C 
ATOM      2  O   UNL     1       5.175   6.847  17.529  0.00  0.00    +0.000 OA
ATOM      3  N   UNL     1       3.784   5.103  16.985  0.00  0.00    +0.000 N 
ATOM      4  H   UNL     1       3.685   4.301  16.370  0.00  0.00    +0.000 HD
ENDROOT
BRANCH   1   8
ATOM      5  C   UNL     1       6.980   3.835  12.661  0.00  0.00    +0.000 C 
ATOM      6  C   UNL     1       6.608   4.503  13.919  0.00  0.00    +0.000 A 
ATOM      7  C   UNL     1       5.447   4.616  14.640  0.00  0.00    +0.000 A 
ATOM      8  C   UNL     1       5.792   5.429  15.747  0.00  0.00    +0.000 A 
ATOM      9  N   UNL     1       7.095   5.763  15.706  0.00  0.00    +0.000 NA
ATOM     10  O   UNL     1       7.598   5.185  14.556  0.00  0.00    +0.000 OA
ENDBRANCH   1   8
BRANCH   3  11
ATOM     11  C   UNL     1       2.729   5.418  17.942  0.00  0.00    +0.000 C 
BRANCH  11  12
ATOM     12  C   UNL     1       2.959   4.777  19.339  0.00  0.00    +0.000 C 
ATOM     13  C   UNL     1       1.684   4.756  20.137  0.00  0.00    +0.000 C 
ATOM     14  C   UNL     1       1.360   3.777  20.995  0.00  0.00    +0.000 C 
ATOM     15  C   UNL     1       2.243   2.602  21.286  0.00  0.00    +0.000 C 
ATOM     16  C   UNL     1       3.570   2.574  20.526  0.00  0.00    +0.000 C 
ATOM     17  C   UNL     1       3.564   3.364  19.216  0.00  0.00    +0.000 C 
BRANCH  12  18
ATOM     18  O   UNL     1       3.851   5.619  20.080  0.00  0.00    +0.000 OA
ATOM     19  H   UNL     1       3.415   5.809  20.927  0.00  0.00    +0.000 HD
ENDBRANCH  12  18
ENDBRANCH  11  12
ENDBRANCH   3  11
TORSDOF 4
ENDMDL
