MODEL 1
REMARK VINA RESULT:      -9.9      0.000      0.000
REMARK  Name = 
REMARK  5 active torsions:
REMARK  status: ('A' for Active; 'I' for Inactive)
REMARK    1  A    between atoms: C_1  and  C_2
REMARK    2  A    between atoms: C_8  and  N_9
REMARK    3  A    between atoms: C_10  and  C_12
REMARK    4  A    between atoms: N_19  and  C_20
REMARK    5  A    between atoms: C_24  and  C_25
REMARK                            x       y       z     vdW  Elec       q    Type
REMARK                         _______ _______ _______ _____ _____    ______ ____
ROOT
ATOM      1  C   UNL     1       2.803   4.595  19.834  0.00  0.00    +0.000 A 
ATOM      2  C   UNL     1       2.933   3.402  20.569  0.00  0.00    +0.000 A 
ATOM      3 CL   UNL     1       1.898   2.994  21.896  0.00  0.00    +0.000 Cl
ATOM      4  C   UNL     1       3.886   2.431  20.217  0.00  0.00    +0.000 A 
ATOM      5  C   UNL     1       4.727   2.597  19.106  0.00  0.00    +0.000 A 
ATOM      6  C   UNL     1       4.594   3.769  18.343  0.00  0.00    +0.000 A 
ATOM      7  C   UNL     1       5.141   4.308  17.143  0.00  0.00    +0.000 A 
ATOM      8  N   UNL     1       6.055   3.662  16.373  0.00  0.00    +0.000 N 
ATOM      9  N   UNL     1       4.610   5.511  16.889  0.00  0.00    +0.000 NA
ATOM     10  O   UNL     1       3.714   5.768  17.888  0.00  0.00    +0.000 OA
ATOM     11  C   UNL     1       3.662   4.715  18.742  0.00  0.00    +0.000 A 
ATOM     12  H   UNL     1       6.610   2.911  16.766  0.00  0.00    +0.000 HD
ENDROOT
BRANCH   8  13
ATOM     13  C   UNL     1       6.314   3.897  15.005  0.00  0.00    +0.000 A 
ATOM     14  C   UNL     1       7.362   4.740  14.625  0.00  0.00    +0.000 A 
ATOM     15  C   UNL     1       7.547   5.085  13.281  0.00  0.00    +0.000 A 
ATOM     16  C   UNL     1       6.683   4.593  12.302  0.00  0.00    +0.000 A 
ATOM     17  C   UNL     1       5.630   3.743  12.653  0.00  0.00    +0.000 A 
ATOM     18  C   UNL     1       5.466   3.400  14.003  0.00  0.00    +0.000 A 
BRANCH  17  19
ATOM     19  C   UNL     1       4.663   3.200  11.635  0.00  0.00    +0.000 C 
ATOM     20  F   UNL     1       5.048   2.010  11.095  0.00  0.00    +0.000 F 
ATOM     21  F   UNL     1       3.422   2.989  12.157  0.00  0.00    +0.000 F 
ATOM     22  F   UNL     1       4.482   4.044  10.581  0.00  0.00    +0.000 F 
ENDBRANCH  17  19
ENDBRANCH   8  13
BRANCH   1  24
ATOM     23  N   UNL     1       2.339   6.980  20.111  0.00  0.00    +0.000 N 
ATOM     24  C   UNL     1       1.855   5.676  20.167  0.00  0.00    +0.000 C 
ATOM     25  O   UNL     1       0.716   5.371  20.492  0.00  0.00    +0.000 OA
ATOM     26  H   UNL     1       3.319   7.120  19.892  0.00  0.00    +0.000 HD
BRANCH  23  34
ATOM     27  C   UNL     1      -1.920  13.278  22.027  0.00  0.00    +0.000 C 
ATOM     28  C   UNL     1      -0.982  12.109  22.157  0.00  0.00    +0.000 C 
ATOM     29  O   UNL     1      -0.631  11.726  23.268  0.00  0.00    +0.000 OA
ATOM     30  N   UNL     1      -0.615  11.585  20.940  0.00  0.00    +0.000 N 
ATOM     31  C   UNL     1       0.135  10.429  20.779  0.00  0.00    +0.000 A 
ATOM     32  N   UNL     1       0.372   9.634  21.822  0.00  0.00    +0.000 NA
ATOM     33  C   UNL     1       1.089   8.513  21.607  0.00  0.00    +0.000 A 
ATOM     34  C   UNL     1       1.588   8.146  20.378  0.00  0.00    +0.000 A 
ATOM     35  C   UNL     1       1.279   9.038  19.365  0.00  0.00    +0.000 A 
ATOM     36  N   UNL     1       0.547  10.169  19.527  0.00  0.00    +0.000 NA
ATOM     37  H   UNL     1      -0.828  12.062  20.078  0.00  0.00    +0.000 HD
ENDBRANCH  23  34
ENDBRANCH   1  24
TORSDOF 4
ENDMDL
MODEL 2
REMARK VINA RESULT:      -9.6      0.758      1.097
REMARK  Name = 
REMARK  5 active torsions:
REMARK  status: ('A' for Active; 'I' for Inactive)
REMARK    1  A    between atoms: C_1  and  C_2
REMARK    2  A    between atoms: C_8  and  N_9
REMARK    3  A    between atoms: C_10  and  C_12
REMARK    4  A    between atoms: N_19  and  C_20
REMARK    5  A    between atoms: C_24  and  C_25
REMARK                            x       y       z     vdW  Elec       q    Type
REMARK                         _______ _______ _______ _____ _____    ______ ____
ROOT
ATOM      1  C   UNL     1       2.725   4.662  19.915  0.00  0.00    +0.000 A 
ATOM      2  C   UNL     1       2.799   3.454  20.635  0.00  0.00    +0.000 A 
ATOM      3 CL   UNL     1       1.723   3.063  21.933  0.00  0.00    +0.000 Cl
ATOM      4  C   UNL     1       3.725   2.456  20.286  0.00  0.00    +0.000 A 
ATOM      5  C   UNL     1       4.594   2.611  19.196  0.00  0.00    +0.000 A 
ATOM      6  C   UNL     1       4.517   3.798  18.449  0.00  0.00    +0.000 A 
ATOM      7  C   UNL     1       5.107   4.336  17.269  0.00  0.00    +0.000 A 
ATOM      8  N   UNL     1       6.015   3.671  16.507  0.00  0.00    +0.000 N 
ATOM      9  N   UNL     1       4.622   5.560  17.023  0.00  0.00    +0.000 NA
ATOM     10  O   UNL     1       3.715   5.833  18.008  0.00  0.00    +0.000 OA
ATOM     11  C   UNL     1       3.610   4.769  18.843  0.00  0.00    +0.000 A 
ATOM     12  H   UNL     1       6.536   2.895  16.899  0.00  0.00    +0.000 HD
ENDROOT
BRANCH   8  13
ATOM     13  C   UNL     1       6.310   3.918  15.148  0.00  0.00    +0.000 A 
ATOM     14  C   UNL     1       7.354   4.781  14.803  0.00  0.00    +0.000 A 
ATOM     15  C   UNL     1       7.572   5.136  13.468  0.00  0.00    +0.000 A 
ATOM     16  C   UNL     1       6.747   4.634  12.461  0.00  0.00    +0.000 A 
ATOM     17  C   UNL     1       5.699   3.764  12.776  0.00  0.00    +0.000 A 
ATOM     18  C   UNL     1       5.501   3.412  14.119  0.00  0.00    +0.000 A 
BRANCH  17  19
ATOM     19  C   UNL     1       4.772   3.210  11.727  0.00  0.00    +0.000 C 
ATOM     20  F   UNL     1       5.192   2.029  11.195  0.00  0.00    +0.000 F 
ATOM     21  F   UNL     1       3.520   2.977  12.211  0.00  0.00    +0.000 F 
ATOM     22  F   UNL     1       4.609   4.056  10.672  0.00  0.00    +0.000 F 
ENDBRANCH  17  19
ENDBRANCH   8  13
BRANCH   1  24
ATOM     23  N   UNL     1       2.353   7.049  20.292  0.00  0.00    +0.000 N 
ATOM     24  C   UNL     1       1.808   5.770  20.246  0.00  0.00    +0.000 C 
ATOM     25  O   UNL     1       0.636   5.505  20.481  0.00  0.00    +0.000 OA
ATOM     26  H   UNL     1       3.351   7.153  20.144  0.00  0.00    +0.000 HD
BRANCH  23  34
ATOM     27  C   UNL     1      -1.572  13.746  21.404  0.00  0.00    +0.000 C 
ATOM     28  C   UNL     1      -1.085  12.480  20.752  0.00  0.00    +0.000 C 
ATOM     29  O   UNL     1      -1.331  12.267  19.569  0.00  0.00    +0.000 OA
ATOM     30  N   UNL     1      -0.382  11.674  21.615  0.00  0.00    +0.000 N 
ATOM     31  C   UNL     1       0.284  10.516  21.241  0.00  0.00    +0.000 A 
ATOM     32  N   UNL     1       0.450  10.228  19.950  0.00  0.00    +0.000 NA
ATOM     33  C   UNL     1       1.121   9.101  19.639  0.00  0.00    +0.000 A 
ATOM     34  C   UNL     1       1.641   8.236  20.575  0.00  0.00    +0.000 A 
ATOM     35  C   UNL     1       1.416   8.633  21.883  0.00  0.00    +0.000 A 
ATOM     36  N   UNL     1       0.763   9.766  22.245  0.00  0.00    +0.000 NA
ATOM     37  H   UNL     1      -0.365  11.858  22.606  0.00  0.00    +0.000 HD
ENDBRANCH  23  34
ENDBRANCH   1  24
TORSDOF 4
ENDMDL
MODEL 3
REMARK VINA RESULT:      -8.8      1.233      1.665
REMARK  Name = 
REMARK  5 active torsions:
REMARK  status: ('A' for Active; 'I' for Inactive)
REMARK    1  A    between atoms: C_1  and  C_2
REMARK    2  A    between atoms: C_8  and  N_9
REMARK    3  A    between atoms: C_10  and  C_12
REMARK    4  A    between atoms: N_19  and  C_20
REMARK    5  A    between atoms: C_24  and  C_25
REMARK                            x       y       z     vdW  Elec       q    Type
REMARK                         _______ _______ _______ _____ _____    ______ ____
ROOT
ATOM      1  C   UNL     1       3.071   5.976  19.228  0.00  0.00    +0.000 A 
ATOM      2  C   UNL     1       3.056   4.891  20.125  0.00  0.00    +0.000 A 
ATOM      3 CL   UNL     1       1.986   4.805  21.483  0.00  0.00    +0.000 Cl
ATOM      4  C   UNL     1       3.878   3.769  19.923  0.00  0.00    +0.000 A 
ATOM      5  C   UNL     1       4.726   3.672  18.810  0.00  0.00    +0.000 A 
ATOM      6  C   UNL     1       4.736   4.734  17.889  0.00  0.00    +0.000 A 
ATOM      7  C   UNL     1       5.339   5.026  16.632  0.00  0.00    +0.000 A 
ATOM      8  N   UNL     1       6.160   4.171  15.969  0.00  0.00    +0.000 N 
ATOM      9  N   UNL     1       4.960   6.239  16.205  0.00  0.00    +0.000 NA
ATOM     10  O   UNL     1       4.109   6.742  17.149  0.00  0.00    +0.000 OA
ATOM     11  C   UNL     1       3.932   5.834  18.141  0.00  0.00    +0.000 A 
ATOM     12  H   UNL     1       6.620   3.419  16.470  0.00  0.00    +0.000 HD
ENDROOT
BRANCH   8  13
ATOM     13  C   UNL     1       6.439   4.178  14.585  0.00  0.00    +0.000 A 
ATOM     14  C   UNL     1       7.555   4.864  14.098  0.00  0.00    +0.000 A 
ATOM     15  C   UNL     1       7.767   4.989  12.721  0.00  0.00    +0.000 A 
ATOM     16  C   UNL     1       6.865   4.432  11.814  0.00  0.00    +0.000 A 
ATOM     17  C   UNL     1       5.744   3.735  12.273  0.00  0.00    +0.000 A 
ATOM     18  C   UNL     1       5.552   3.611  13.657  0.00  0.00    +0.000 A 
BRANCH  17  19
ATOM     19  C   UNL     1       4.734   3.130  11.335  0.00  0.00    +0.000 C 
ATOM     20  F   UNL     1       4.485   3.892  10.234  0.00  0.00    +0.000 F 
ATOM     21  F   UNL     1       5.127   1.912  10.864  0.00  0.00    +0.000 F 
ATOM     22  F   UNL     1       3.525   2.925  11.927  0.00  0.00    +0.000 F 
ENDBRANCH  17  19
ENDBRANCH   8  13
BRANCH   1  24
ATOM     23  N   UNL     1       1.996   7.606  20.699  0.00  0.00    +0.000 N 
ATOM     24  C   UNL     1       2.268   7.202  19.396  0.00  0.00    +0.000 C 
ATOM     25  O   UNL     1       1.870   7.779  18.392  0.00  0.00    +0.000 OA
ATOM     26  H   UNL     1       2.318   7.021  21.462  0.00  0.00    +0.000 HD
BRANCH  23  34
ATOM     27  C   UNL     1      -2.083  14.114  22.280  0.00  0.00    +0.000 C 
ATOM     28  C   UNL     1      -1.585  12.896  21.550  0.00  0.00    +0.000 C 
ATOM     29  O   UNL     1      -1.872  12.729  20.370  0.00  0.00    +0.000 OA
ATOM     30  N   UNL     1      -0.823  12.074  22.347  0.00  0.00    +0.000 N 
ATOM     31  C   UNL     1      -0.138  10.957  21.892  0.00  0.00    +0.000 A 
ATOM     32  N   UNL     1      -0.016  10.734  20.583  0.00  0.00    +0.000 NA
ATOM     33  C   UNL     1       0.676   9.645  20.193  0.00  0.00    +0.000 A 
ATOM     34  C   UNL     1       1.259   8.755  21.066  0.00  0.00    +0.000 A 
ATOM     35  C   UNL     1       1.077   9.084  22.399  0.00  0.00    +0.000 A 
ATOM     36  N   UNL     1       0.405  10.177  22.840  0.00  0.00    +0.000 NA
ATOM     37  H   UNL     1      -0.771  12.212  23.343  0.00  0.00    +0.000 HD
ENDBRANCH  23  34
ENDBRANCH   1  24
TORSDOF 4
ENDMDL
MODEL 4
REMARK VINA RESULT:      -8.7      1.287      1.653
REMARK  Name = 
REMARK  5 active torsions:
REMARK  status: ('A' for Active; 'I' for Inactive)
REMARK    1  A    between atoms: C_1  and  C_2
REMARK    2  A    between atoms: C_8  and  N_9
REMARK    3  A    between atoms: C_10  and  C_12
REMARK    4  A    between atoms: N_19  and  C_20
REMARK    5  A    between atoms: C_24  and  C_25
REMARK                            x       y       z     vdW  Elec       q    Type
REMARK                         _______ _______ _______ _____ _____    ______ ____
ROOT
ATOM      1  C   UNL     1       2.851   5.000  19.706  0.00  0.00    +0.000 A 
ATOM      2  C   UNL     1       2.798   3.786  20.417  0.00  0.00    +0.000 A 
ATOM      3 CL   UNL     1       1.707   3.510  21.732  0.00  0.00    +0.000 Cl
ATOM      4  C   UNL     1       3.598   2.692  20.046  0.00  0.00    +0.000 A 
ATOM      5  C   UNL     1       4.460   2.754  18.941  0.00  0.00    +0.000 A 
ATOM      6  C   UNL     1       4.506   3.949  18.202  0.00  0.00    +0.000 A 
ATOM      7  C   UNL     1       5.134   4.425  17.015  0.00  0.00    +0.000 A 
ATOM      8  N   UNL     1       5.945   3.667  16.232  0.00  0.00    +0.000 N 
ATOM      9  N   UNL     1       4.788   5.698  16.785  0.00  0.00    +0.000 NA
ATOM     10  O   UNL     1       3.935   6.065  17.788  0.00  0.00    +0.000 OA
ATOM     11  C   UNL     1       3.724   5.014  18.619  0.00  0.00    +0.000 A 
ATOM     12  H   UNL     1       6.381   2.833  16.610  0.00  0.00    +0.000 HD
ENDROOT
BRANCH   8  13
ATOM     13  C   UNL     1       6.244   3.888  14.870  0.00  0.00    +0.000 A 
ATOM     14  C   UNL     1       7.312   4.715  14.512  0.00  0.00    +0.000 A 
ATOM     15  C   UNL     1       7.536   5.048  13.172  0.00  0.00    +0.000 A 
ATOM     16  C   UNL     1       6.692   4.561  12.173  0.00  0.00    +0.000 A 
ATOM     17  C   UNL     1       5.620   3.727  12.503  0.00  0.00    +0.000 A 
ATOM     18  C   UNL     1       5.416   3.396  13.850  0.00  0.00    +0.000 A 
BRANCH  17  19
ATOM     19  C   UNL     1       4.673   3.189  11.463  0.00  0.00    +0.000 C 
ATOM     20  F   UNL     1       4.516   4.011  10.388  0.00  0.00    +0.000 F 
ATOM     21  F   UNL     1       5.081   1.990  10.959  0.00  0.00    +0.000 F 
ATOM     22  F   UNL     1       3.420   2.977  11.954  0.00  0.00    +0.000 F 
ENDBRANCH  17  19
ENDBRANCH   8  13
BRANCH   1  24
ATOM     23  N   UNL     1       2.277   7.339  19.283  0.00  0.00    +0.000 N 
ATOM     24  C   UNL     1       2.072   6.203  20.060  0.00  0.00    +0.000 C 
ATOM     25  O   UNL     1       1.315   6.145  21.020  0.00  0.00    +0.000 OA
ATOM     26  H   UNL     1       2.976   7.301  18.550  0.00  0.00    +0.000 HD
BRANCH  23  34
ATOM     27  C   UNL     1      -1.188  14.354  19.806  0.00  0.00    +0.000 C 
ATOM     28  C   UNL     1      -0.642  13.084  19.211  0.00  0.00    +0.000 C 
ATOM     29  O   UNL     1      -0.535  12.974  17.995  0.00  0.00    +0.000 OA
ATOM     30  N   UNL     1      -0.309  12.151  20.165  0.00  0.00    +0.000 N 
ATOM     31  C   UNL     1       0.334  10.952  19.898  0.00  0.00    +0.000 A 
ATOM     32  N   UNL     1       0.857  10.728  18.692  0.00  0.00    +0.000 NA
ATOM     33  C   UNL     1       1.489   9.554  18.490  0.00  0.00    +0.000 A 
ATOM     34  C   UNL     1       1.620   8.579  19.453  0.00  0.00    +0.000 A 
ATOM     35  C   UNL     1       1.046   8.917  20.667  0.00  0.00    +0.000 A 
ATOM     36  N   UNL     1       0.417  10.091  20.924  0.00  0.00    +0.000 NA
ATOM     37  H   UNL     1      -0.576  12.270  21.129  0.00  0.00    +0.000 HD
ENDBRANCH  23  34
ENDBRANCH   1  24
TORSDOF 4
ENDMDL
MODEL 5
REMARK VINA RESULT:      -8.6      2.040      2.621
REMARK  Name = 
REMARK  5 active torsions:
REMARK  status: ('A' for Active; 'I' for Inactive)
REMARK    1  A    between atoms: C_1  and  C_2
REMARK    2  A    between atoms: C_8  and  N_9
REMARK    3  A    between atoms: C_10  and  C_12
REMARK    4  A    between atoms: N_19  and  C_20
REMARK    5  A    between atoms: C_24  and  C_25
REMARK                            x       y       z     vdW  Elec       q    Type
REMARK                         _______ _______ _______ _____ _____    ______ ____
ROOT
ATOM      1  C   UNL     1       2.661   7.369  18.632  0.00  0.00    +0.000 A 
ATOM      2  C   UNL     1       2.467   6.463  19.692  0.00  0.00    +0.000 A 
ATOM      3 CL   UNL     1       1.278   6.699  20.928  0.00  0.00    +0.000 Cl
ATOM      4  C   UNL     1       3.198   5.265  19.767  0.00  0.00    +0.000 A 
ATOM      5  C   UNL     1       4.129   4.911  18.780  0.00  0.00    +0.000 A 
ATOM      6  C   UNL     1       4.317   5.789  17.699  0.00  0.00    +0.000 A 
ATOM      7  C   UNL     1       5.054   5.810  16.480  0.00  0.00    +0.000 A 
ATOM      8  N   UNL     1       5.849   4.792  16.059  0.00  0.00    +0.000 N 
ATOM      9  N   UNL     1       4.826   6.953  15.819  0.00  0.00    +0.000 NA
ATOM     10  O   UNL     1       3.945   7.677  16.571  0.00  0.00    +0.000 OA
ATOM     11  C   UNL     1       3.598   6.974  17.678  0.00  0.00    +0.000 A 
ATOM     12  H   UNL     1       6.192   4.108  16.724  0.00  0.00    +0.000 HD
ENDROOT
BRANCH   8  13
ATOM     13  C   UNL     1       6.248   4.534  14.730  0.00  0.00    +0.000 A 
ATOM     14  C   UNL     1       7.470   5.023  14.257  0.00  0.00    +0.000 A 
ATOM     15  C   UNL     1       7.816   4.888  12.909  0.00  0.00    +0.000 A 
ATOM     16  C   UNL     1       6.944   4.264  12.015  0.00  0.00    +0.000 A 
ATOM     17  C   UNL     1       5.719   3.761  12.462  0.00  0.00    +0.000 A 
ATOM     18  C   UNL     1       5.392   3.896  13.819  0.00  0.00    +0.000 A 
BRANCH  17  19
ATOM     19  C   UNL     1       4.738   3.094  11.533  0.00  0.00    +0.000 C 
ATOM     20  F   UNL     1       3.516   2.876  12.094  0.00  0.00    +0.000 F 
ATOM     21  F   UNL     1       4.508   3.828  10.408  0.00  0.00    +0.000 F 
ATOM     22  F   UNL     1       5.171   1.877  11.100  0.00  0.00    +0.000 F 
ENDBRANCH  17  19
ENDBRANCH   8  13
BRANCH   1  24
ATOM     23  N   UNL     1       1.332   9.153  19.647  0.00  0.00    +0.000 N 
ATOM     24  C   UNL     1       1.961   8.662  18.507  0.00  0.00    +0.000 C 
ATOM     25  O   UNL     1       1.953   9.216  17.415  0.00  0.00    +0.000 OA
ATOM     26  H   UNL     1       1.344   8.585  20.485  0.00  0.00    +0.000 HD
BRANCH  23  34
ATOM     27  C   UNL     1      -2.223  16.104  20.379  0.00  0.00    +0.000 C 
ATOM     28  C   UNL     1      -1.132  15.081  20.213  0.00  0.00    +0.000 C 
ATOM     29  O   UNL     1       0.043  15.413  20.331  0.00  0.00    +0.000 OA
ATOM     30  N   UNL     1      -1.619  13.825  19.936  0.00  0.00    +0.000 N 
ATOM     31  C   UNL     1      -0.840  12.680  19.866  0.00  0.00    +0.000 A 
ATOM     32  N   UNL     1       0.429  12.708  20.275  0.00  0.00    +0.000 NA
ATOM     33  C   UNL     1       1.137  11.563  20.204  0.00  0.00    +0.000 A 
ATOM     34  C   UNL     1       0.626  10.375  19.733  0.00  0.00    +0.000 A 
ATOM     35  C   UNL     1      -0.699  10.456  19.341  0.00  0.00    +0.000 A 
ATOM     36  N   UNL     1      -1.458  11.579  19.410  0.00  0.00    +0.000 NA
ATOM     37  H   UNL     1      -2.589  13.679  19.705  0.00  0.00    +0.000 HD
ENDBRANCH  23  34
ENDBRANCH   1  24
TORSDOF 4
ENDMDL
MODEL 6
REMARK VINA RESULT:      -8.5      1.203      1.433
REMARK  Name = 
REMARK  5 active torsions:
REMARK  status: ('A' for Active; 'I' for Inactive)
REMARK    1  A    between atoms: C_1  and  C_2
REMARK    2  A    between atoms: C_8  and  N_9
REMARK    3  A    between atoms: C_10  and  C_12
REMARK    4  A    between atoms: N_19  and  C_20
REMARK    5  A    between atoms: C_24  and  C_25
REMARK                            x       y       z     vdW  Elec       q    Type
REMARK                         _______ _______ _______ _____ _____    ______ ____
ROOT
ATOM      1  C   UNL     1       3.019   5.966  19.296  0.00  0.00    +0.000 A 
ATOM      2  C   UNL     1       2.962   4.865  20.171  0.00  0.00    +0.000 A 
ATOM      3 CL   UNL     1       1.878   4.787  21.518  0.00  0.00    +0.000 Cl
ATOM      4  C   UNL     1       3.751   3.723  19.953  0.00  0.00    +0.000 A 
ATOM      5  C   UNL     1       4.606   3.621  18.845  0.00  0.00    +0.000 A 
ATOM      6  C   UNL     1       4.656   4.699  17.946  0.00  0.00    +0.000 A 
ATOM      7  C   UNL     1       5.279   4.998  16.700  0.00  0.00    +0.000 A 
ATOM      8  N   UNL     1       6.080   4.130  16.027  0.00  0.00    +0.000 N 
ATOM      9  N   UNL     1       4.942   6.229  16.294  0.00  0.00    +0.000 NA
ATOM     10  O   UNL     1       4.099   6.741  17.240  0.00  0.00    +0.000 OA
ATOM     11  C   UNL     1       3.884   5.820  18.212  0.00  0.00    +0.000 A 
ATOM     12  H   UNL     1       6.511   3.355  16.517  0.00  0.00    +0.000 HD
ENDROOT
BRANCH   8  13
ATOM     13  C   UNL     1       6.371   4.155  14.646  0.00  0.00    +0.000 A 
ATOM     14  C   UNL     1       7.488   4.852  14.177  0.00  0.00    +0.000 A 
ATOM     15  C   UNL     1       7.712   4.995  12.804  0.00  0.00    +0.000 A 
ATOM     16  C   UNL     1       6.821   4.445  11.882  0.00  0.00    +0.000 A 
ATOM     17  C   UNL     1       5.699   3.738  12.323  0.00  0.00    +0.000 A 
ATOM     18  C   UNL     1       5.494   3.596  13.703  0.00  0.00    +0.000 A 
BRANCH  17  19
ATOM     19  C   UNL     1       4.700   3.140  11.368  0.00  0.00    +0.000 C 
ATOM     20  F   UNL     1       3.476   2.920  11.922  0.00  0.00    +0.000 F 
ATOM     21  F   UNL     1       4.481   3.933  10.281  0.00  0.00    +0.000 F 
ATOM     22  F   UNL     1       5.104   1.937  10.871  0.00  0.00    +0.000 F 
ENDBRANCH  17  19
ENDBRANCH   8  13
BRANCH   1  24
ATOM     23  N   UNL     1       1.901   7.552  20.784  0.00  0.00    +0.000 N 
ATOM     24  C   UNL     1       2.252   7.214  19.481  0.00  0.00    +0.000 C 
ATOM     25  O   UNL     1       1.951   7.864  18.488  0.00  0.00    +0.000 OA
ATOM     26  H   UNL     1       2.144   6.911  21.530  0.00  0.00    +0.000 HD
BRANCH  23  34
ATOM     27  C   UNL     1      -2.456  13.688  22.988  0.00  0.00    +0.000 C 
ATOM     28  C   UNL     1      -1.902  12.290  22.934  0.00  0.00    +0.000 C 
ATOM     29  O   UNL     1      -2.472  11.381  23.528  0.00  0.00    +0.000 OA
ATOM     30  N   UNL     1      -0.757  12.201  22.178  0.00  0.00    +0.000 N 
ATOM     31  C   UNL     1      -0.119  11.012  21.858  0.00  0.00    +0.000 A 
ATOM     32  N   UNL     1      -0.714   9.846  22.107  0.00  0.00    +0.000 NA
ATOM     33  C   UNL     1      -0.059   8.720  21.759  0.00  0.00    +0.000 A 
ATOM     34  C   UNL     1       1.183   8.708  21.167  0.00  0.00    +0.000 A 
ATOM     35  C   UNL     1       1.707   9.972  20.950  0.00  0.00    +0.000 A 
ATOM     36  N   UNL     1       1.080  11.133  21.265  0.00  0.00    +0.000 NA
ATOM     37  H   UNL     1      -0.276  13.027  21.857  0.00  0.00    +0.000 HD
ENDBRANCH  23  34
ENDBRANCH   1  24
TORSDOF 4
ENDMDL
MODEL 7
REMARK VINA RESULT:      -8.4      1.273      1.442
REMARK  Name = 
REMARK  5 active torsions:
REMARK  status: ('A' for Active; 'I' for Inactive)
REMARK    1  A    between atoms: C_1  and  C_2
REMARK    2  A    between atoms: C_8  and  N_9
REMARK    3  A    between atoms: C_10  and  C_12
REMARK    4  A    between atoms: N_19  and  C_20
REMARK    5  A    between atoms: C_24  and  C_25
REMARK                            x       y       z     vdW  Elec       q    Type
REMARK                         _______ _______ _______ _____ _____    ______ ____
ROOT
ATOM      1  C   UNL     1       3.126   5.979  18.946  0.00  0.00    +0.000 A 
ATOM      2  C   UNL     1       3.139   4.923  19.876  0.00  0.00    +0.000 A 
ATOM      3 CL   UNL     1       2.028   4.820  21.200  0.00  0.00    +0.000 Cl
ATOM      4  C   UNL     1       4.027   3.843  19.738  0.00  0.00    +0.000 A 
ATOM      5  C   UNL     1       4.918   3.760  18.657  0.00  0.00    +0.000 A 
ATOM      6  C   UNL     1       4.902   4.792  17.703  0.00  0.00    +0.000 A 
ATOM      7  C   UNL     1       5.532   5.079  16.458  0.00  0.00    +0.000 A 
ATOM      8  N   UNL     1       6.422   4.251  15.852  0.00  0.00    +0.000 N 
ATOM      9  N   UNL     1       5.103   6.255  15.981  0.00  0.00    +0.000 NA
ATOM     10  O   UNL     1       4.193   6.739  16.878  0.00  0.00    +0.000 OA
ATOM     11  C   UNL     1       4.031   5.853  17.892  0.00  0.00    +0.000 A 
ATOM     12  H   UNL     1       6.904   3.542  16.391  0.00  0.00    +0.000 HD
ENDROOT
BRANCH   8  13
ATOM     13  C   UNL     1       6.748   4.231  14.478  0.00  0.00    +0.000 A 
ATOM     14  C   UNL     1       7.500   5.269  13.921  0.00  0.00    +0.000 A 
ATOM     15  C   UNL     1       7.717   5.329  12.540  0.00  0.00    +0.000 A 
ATOM     16  C   UNL     1       7.182   4.353  11.699  0.00  0.00    +0.000 A 
ATOM     17  C   UNL     1       6.430   3.300  12.230  0.00  0.00    +0.000 A 
ATOM     18  C   UNL     1       6.231   3.251  13.617  0.00  0.00    +0.000 A 
BRANCH  17  19
ATOM     19  C   UNL     1       5.819   2.232  11.362  0.00  0.00    +0.000 C 
ATOM     20  F   UNL     1       6.557   1.938  10.256  0.00  0.00    +0.000 F 
ATOM     21  F   UNL     1       5.655   1.054  12.026  0.00  0.00    +0.000 F 
ATOM     22  F   UNL     1       4.582   2.574  10.903  0.00  0.00    +0.000 F 
ENDBRANCH  17  19
ENDBRANCH   8  13
BRANCH   1  24
ATOM     23  N   UNL     1       1.965   7.631  20.326  0.00  0.00    +0.000 N 
ATOM     24  C   UNL     1       2.251   7.164  19.047  0.00  0.00    +0.000 C 
ATOM     25  O   UNL     1       1.812   7.652  18.014  0.00  0.00    +0.000 OA
ATOM     26  H   UNL     1       2.328   7.114  21.119  0.00  0.00    +0.000 HD
BRANCH  23  34
ATOM     27  C   UNL     1      -2.752  13.582  22.279  0.00  0.00    +0.000 C 
ATOM     28  C   UNL     1      -1.954  12.311  22.390  0.00  0.00    +0.000 C 
ATOM     29  O   UNL     1      -2.119  11.567  23.351  0.00  0.00    +0.000 OA
ATOM     30  N   UNL     1      -1.091  12.132  21.335  0.00  0.00    +0.000 N 
ATOM     31  C   UNL     1      -0.337  10.987  21.125  0.00  0.00    +0.000 A 
ATOM     32  N   UNL     1      -0.571   9.891  21.845  0.00  0.00    +0.000 NA
ATOM     33  C   UNL     1       0.177   8.799  21.588  0.00  0.00    +0.000 A 
ATOM     34  C   UNL     1       1.163   8.754  20.629  0.00  0.00    +0.000 A 
ATOM     35  C   UNL     1       1.319   9.944  19.937  0.00  0.00    +0.000 A 
ATOM     36  N   UNL     1       0.580  11.062  20.147  0.00  0.00    +0.000 NA
ATOM     37  H   UNL     1      -0.913  12.871  20.674  0.00  0.00    +0.000 HD
ENDBRANCH  23  34
ENDBRANCH   1  24
TORSDOF 4
ENDMDL
MODEL 8
REMARK VINA RESULT:      -8.4      2.606      3.219
REMARK  Name = 
REMARK  5 active torsions:
REMARK  status: ('A' for Active; 'I' for Inactive)
REMARK    1  A    between atoms: C_1  and  C_2
REMARK    2  A    between atoms: C_8  and  N_9
REMARK    3  A    between atoms: C_10  and  C_12
REMARK    4  A    between atoms: N_19  and  C_20
REMARK    5  A    between atoms: C_24  and  C_25
REMARK                            x       y       z     vdW  Elec       q    Type
REMARK                         _______ _______ _______ _____ _____    ______ ____
ROOT
ATOM      1  C   UNL     1       2.554   7.657  18.482  0.00  0.00    +0.000 A 
ATOM      2  C   UNL     1       2.428   6.837  19.619  0.00  0.00    +0.000 A 
ATOM      3 CL   UNL     1       1.243   7.109  20.851  0.00  0.00    +0.000 Cl
ATOM      4  C   UNL     1       3.230   5.695  19.783  0.00  0.00    +0.000 A 
ATOM      5  C   UNL     1       4.169   5.312  18.813  0.00  0.00    +0.000 A 
ATOM      6  C   UNL     1       4.290   6.103  17.658  0.00  0.00    +0.000 A 
ATOM      7  C   UNL     1       5.008   6.061  16.429  0.00  0.00    +0.000 A 
ATOM      8  N   UNL     1       5.857   5.058  16.082  0.00  0.00    +0.000 N 
ATOM      9  N   UNL     1       4.704   7.127  15.676  0.00  0.00    +0.000 NA
ATOM     10  O   UNL     1       3.790   7.860  16.379  0.00  0.00    +0.000 OA
ATOM     11  C   UNL     1       3.501   7.237  17.548  0.00  0.00    +0.000 A 
ATOM     12  H   UNL     1       6.249   4.456  16.797  0.00  0.00    +0.000 HD
ENDROOT
BRANCH   8  13
ATOM     13  C   UNL     1       6.254   4.710  14.773  0.00  0.00    +0.000 A 
ATOM     14  C   UNL     1       7.492   5.132  14.280  0.00  0.00    +0.000 A 
ATOM     15  C   UNL     1       7.840   4.906  12.944  0.00  0.00    +0.000 A 
ATOM     16  C   UNL     1       6.953   4.259  12.083  0.00  0.00    +0.000 A 
ATOM     17  C   UNL     1       5.710   3.821  12.551  0.00  0.00    +0.000 A 
ATOM     18  C   UNL     1       5.382   4.047  13.896  0.00  0.00    +0.000 A 
BRANCH  17  19
ATOM     19  C   UNL     1       4.713   3.133  11.657  0.00  0.00    +0.000 C 
ATOM     20  F   UNL     1       4.419   3.831  10.525  0.00  0.00    +0.000 F 
ATOM     21  F   UNL     1       5.147   1.910  11.240  0.00  0.00    +0.000 F 
ATOM     22  F   UNL     1       3.520   2.910  12.277  0.00  0.00    +0.000 F 
ENDBRANCH  17  19
ENDBRANCH   8  13
BRANCH   1  24
ATOM     23  N   UNL     1       1.959   9.927  19.171  0.00  0.00    +0.000 N 
ATOM     24  C   UNL     1       1.776   8.892  18.259  0.00  0.00    +0.000 C 
ATOM     25  O   UNL     1       1.005   8.930  17.309  0.00  0.00    +0.000 OA
ATOM     26  H   UNL     1       2.574   9.769  19.961  0.00  0.00    +0.000 HD
BRANCH  23  34
ATOM     27  C   UNL     1      -1.158  17.118  18.947  0.00  0.00    +0.000 C 
ATOM     28  C   UNL     1      -0.189  15.987  18.736  0.00  0.00    +0.000 C 
ATOM     29  O   UNL     1       0.949  16.221  18.342  0.00  0.00    +0.000 OA
ATOM     30  N   UNL     1      -0.733  14.759  19.030  0.00  0.00    +0.000 N 
ATOM     31  C   UNL     1      -0.021  13.570  19.047  0.00  0.00    +0.000 A 
ATOM     32  N   UNL     1       1.310  13.585  18.972  0.00  0.00    +0.000 NA
ATOM     33  C   UNL     1       1.956  12.403  19.012  0.00  0.00    +0.000 A 
ATOM     34  C   UNL     1       1.320  11.187  19.122  0.00  0.00    +0.000 A 
ATOM     35  C   UNL     1      -0.059  11.285  19.197  0.00  0.00    +0.000 A 
ATOM     36  N   UNL     1      -0.752  12.452  19.180  0.00  0.00    +0.000 NA
ATOM     37  H   UNL     1      -1.721  14.651  19.197  0.00  0.00    +0.000 HD
ENDBRANCH  23  34
ENDBRANCH   1  24
TORSDOF 4
ENDMDL
MODEL 9
REMARK VINA RESULT:      -8.4      1.347      1.526
REMARK  Name = 
REMARK  5 active torsions:
REMARK  status: ('A' for Active; 'I' for Inactive)
REMARK    1  A    between atoms: C_1  and  C_2
REMARK    2  A    between atoms: C_8  and  N_9
REMARK    3  A    between atoms: C_10  and  C_12
REMARK    4  A    between atoms: N_19  and  C_20
REMARK    5  A    between atoms: C_24  and  C_25
REMARK                            x       y       z     vdW  Elec       q    Type
REMARK                         _______ _______ _______ _____ _____    ______ ____
ROOT
ATOM      1  C   UNL     1       2.894   6.462  19.012  0.00  0.00    +0.000 A 
ATOM      2  C   UNL     1       2.751   5.413  19.940  0.00  0.00    +0.000 A 
ATOM      3 CL   UNL     1       1.606   5.452  21.238  0.00  0.00    +0.000 Cl
ATOM      4  C   UNL     1       3.498   4.229  19.819  0.00  0.00    +0.000 A 
ATOM      5  C   UNL     1       4.396   4.033  18.759  0.00  0.00    +0.000 A 
ATOM      6  C   UNL     1       4.533   5.058  17.808  0.00  0.00    +0.000 A 
ATOM      7  C   UNL     1       5.223   5.263  16.578  0.00  0.00    +0.000 A 
ATOM      8  N   UNL     1       6.014   4.328  15.990  0.00  0.00    +0.000 N 
ATOM      9  N   UNL     1       4.957   6.483  16.094  0.00  0.00    +0.000 NA
ATOM     10  O   UNL     1       4.096   7.079  16.972  0.00  0.00    +0.000 OA
ATOM     11  C   UNL     1       3.800   6.222  17.980  0.00  0.00    +0.000 A 
ATOM     12  H   UNL     1       6.389   3.563  16.538  0.00  0.00    +0.000 HD
ENDROOT
BRANCH   8  13
ATOM     13  C   UNL     1       6.366   4.266  14.624  0.00  0.00    +0.000 A 
ATOM     14  C   UNL     1       7.508   4.928  14.164  0.00  0.00    +0.000 A 
ATOM     15  C   UNL     1       7.795   4.985  12.796  0.00  0.00    +0.000 A 
ATOM     16  C   UNL     1       6.941   4.383  11.870  0.00  0.00    +0.000 A 
ATOM     17  C   UNL     1       5.795   3.710  12.303  0.00  0.00    +0.000 A 
ATOM     18  C   UNL     1       5.528   3.654  13.679  0.00  0.00    +0.000 A 
BRANCH  17  19
ATOM     19  C   UNL     1       4.836   3.059  11.342  0.00  0.00    +0.000 C 
ATOM     20  F   UNL     1       5.260   1.850  10.880  0.00  0.00    +0.000 F 
ATOM     21  F   UNL     1       3.612   2.837  11.900  0.00  0.00    +0.000 F 
ATOM     22  F   UNL     1       4.605   3.820  10.236  0.00  0.00    +0.000 F 
ENDBRANCH  17  19
ENDBRANCH   8  13
BRANCH   1  24
ATOM     23  N   UNL     1       1.629   8.088  20.330  0.00  0.00    +0.000 N 
ATOM     24  C   UNL     1       2.175   7.748  19.096  0.00  0.00    +0.000 C 
ATOM     25  O   UNL     1       2.079   8.429  18.083  0.00  0.00    +0.000 OA
ATOM     26  H   UNL     1       1.710   7.423  21.091  0.00  0.00    +0.000 HD
BRANCH  23  34
ATOM     27  C   UNL     1      -2.205  14.615  22.373  0.00  0.00    +0.000 C 
ATOM     28  C   UNL     1      -1.171  13.522  22.368  0.00  0.00    +0.000 C 
ATOM     29  O   UNL     1      -0.384  13.419  23.303  0.00  0.00    +0.000 OA
ATOM     30  N   UNL     1      -1.246  12.725  21.250  0.00  0.00    +0.000 N 
ATOM     31  C   UNL     1      -0.499  11.573  21.058  0.00  0.00    +0.000 A 
ATOM     32  N   UNL     1       0.202  11.053  22.066  0.00  0.00    +0.000 NA
ATOM     33  C   UNL     1       0.895   9.921  21.832  0.00  0.00    +0.000 A 
ATOM     34  C   UNL     1       0.921   9.277  20.616  0.00  0.00    +0.000 A 
ATOM     35  C   UNL     1       0.156   9.897  19.642  0.00  0.00    +0.000 A 
ATOM     36  N   UNL     1      -0.573  11.025  19.834  0.00  0.00    +0.000 NA
ATOM     37  H   UNL     1      -1.822  12.980  20.463  0.00  0.00    +0.000 HD
ENDBRANCH  23  34
ENDBRANCH   1  24
TORSDOF 4
ENDMDL
