MODEL 1
REMARK VINA RESULT:      -6.9      0.000      0.000
REMARK  Name = 
REMARK  4 active torsions:
REMARK  status: ('A' for Active; 'I' for Inactive)
REMARK    1  A    between atoms: C_2  and  O_3
REMARK    2  A    between atoms: C_2  and  C_4
REMARK    3  A    between atoms: C_7  and  O_8
REMARK    4  A    between atoms: O_8  and  C_9
REMARK                            x       y       z     vdW  Elec       q    Type
REMARK                         _______ _______ _______ _____ _____    ______ ____
ROOT
ATOM      1  C   UNL     1       6.308   5.578  17.787  0.00  0.00    +0.000 A 
ATOM      2  C   UNL     1       5.999   6.239  16.615  0.00  0.00    +0.000 A 
ATOM      3  C   UNL     1       4.647   6.636  16.719  0.00  0.00    +0.000 A 
ATOM      4  C   UNL     1       4.220   6.243  17.971  0.00  0.00    +0.000 A 
ATOM      5  O   UNL     1       5.208   5.550  18.608  0.00  0.00    +0.000 OA
ENDROOT
BRANCH   1   7
ATOM      6  O   UNL     1       8.068   5.158  19.325  0.00  0.00    +0.000 OA
ATOM      7  C   UNL     1       7.540   4.977  18.237  0.00  0.00    +0.000 C 
BRANCH   7   8
ATOM      8  O   UNL     1       8.067   4.160  17.291  0.00  0.00    +0.000 OA
ATOM      9  H   UNL     1       7.381   3.920  16.634  0.00  0.00    +0.000 HD
ENDBRANCH   7   8
ENDBRANCH   1   7
BRANCH   4  10
ATOM     10  O   UNL     1       3.109   6.404  18.689  0.00  0.00    +0.000 OA
BRANCH  10  11
ATOM     11  C   UNL     1       2.359   5.305  19.051  0.00  0.00    +0.000 A 
ATOM     12  C   UNL     1       2.002   4.407  18.044  0.00  0.00    +0.000 A 
ATOM     13  C   UNL     1       1.257   3.265  18.360  0.00  0.00    +0.000 A 
ATOM     14  C   UNL     1       0.879   3.025  19.683  0.00  0.00    +0.000 A 
ATOM     15  C   UNL     1       1.250   3.910  20.690  0.00  0.00    +0.000 A 
ATOM     16  C   UNL     1       2.004   5.038  20.378  0.00  0.00    +0.000 A 
ENDBRANCH  10  11
ENDBRANCH   4  10
TORSDOF 4
ENDMDL
MODEL 2
REMARK VINA RESULT:      -6.7      1.649      2.072
REMARK  Name = 
REMARK  4 active torsions:
REMARK  status: ('A' for Active; 'I' for Inactive)
REMARK    1  A    between atoms: C_2  and  O_3
REMARK    2  A    between atoms: C_2  and  C_4
REMARK    3  A    between atoms: C_7  and  O_8
REMARK    4  A    between atoms: O_8  and  C_9
REMARK                            x       y       z     vdW  Elec       q    Type
REMARK                         _______ _______ _______ _____ _____    ______ ____
ROOT
ATOM      1  C   UNL     1       6.209   4.894  16.400  0.00  0.00    +0.000 A 
ATOM      2  C   UNL     1       6.678   4.738  17.689  0.00  0.00    +0.000 A 
ATOM      3  C   UNL     1       5.628   5.123  18.552  0.00  0.00    +0.000 A 
ATOM      4  C   UNL     1       4.556   5.442  17.743  0.00  0.00    +0.000 A 
ATOM      5  O   UNL     1       4.917   5.358  16.430  0.00  0.00    +0.000 OA
ENDROOT
BRANCH   1   7
ATOM      6  O   UNL     1       7.689   5.336  14.596  0.00  0.00    +0.000 OA
ATOM      7  C   UNL     1       6.838   4.637  15.128  0.00  0.00    +0.000 C 
BRANCH   7   8
ATOM      8  O   UNL     1       6.368   3.495  14.564  0.00  0.00    +0.000 OA
ATOM      9  H   UNL     1       5.651   3.119  15.116  0.00  0.00    +0.000 HD
ENDBRANCH   7   8
ENDBRANCH   1   7
BRANCH   4  10
ATOM     10  O   UNL     1       3.282   5.777  17.943  0.00  0.00    +0.000 OA
BRANCH  10  11
ATOM     11  C   UNL     1       2.441   4.915  18.613  0.00  0.00    +0.000 A 
ATOM     12  C   UNL     1       1.990   3.787  17.925  0.00  0.00    +0.000 A 
ATOM     13  C   UNL     1       1.150   2.869  18.565  0.00  0.00    +0.000 A 
ATOM     14  C   UNL     1       0.770   3.081  19.892  0.00  0.00    +0.000 A 
ATOM     15  C   UNL     1       1.233   4.195  20.586  0.00  0.00    +0.000 A 
ATOM     16  C   UNL     1       2.082   5.100  19.953  0.00  0.00    +0.000 A 
ENDBRANCH  10  11
ENDBRANCH   4  10
TORSDOF 4
ENDMDL
MODEL 3
REMARK VINA RESULT:      -6.7      2.426      2.970
REMARK  Name = 
REMARK  4 active torsions:
REMARK  status: ('A' for Active; 'I' for Inactive)
REMARK    1  A    between atoms: C_2  and  O_3
REMARK    2  A    between atoms: C_2  and  C_4
REMARK    3  A    between atoms: C_7  and  O_8
REMARK    4  A    between atoms: O_8  and  C_9
REMARK                            x       y       z     vdW  Elec       q    Type
REMARK                         _______ _______ _______ _____ _____    ______ ____
ROOT
ATOM      1  C   UNL     1       5.683   4.562  15.774  0.00  0.00    +0.000 A 
ATOM      2  C   UNL     1       5.127   5.597  16.500  0.00  0.00    +0.000 A 
ATOM      3  C   UNL     1       4.222   5.012  17.411  0.00  0.00    +0.000 A 
ATOM      4  C   UNL     1       4.313   3.647  17.231  0.00  0.00    +0.000 A 
ATOM      5  O   UNL     1       5.160   3.365  16.199  0.00  0.00    +0.000 OA
ENDROOT
BRANCH   1   7
ATOM      6  O   UNL     1       7.581   5.379  14.604  0.00  0.00    +0.000 OA
ATOM      7  C   UNL     1       6.675   4.568  14.727  0.00  0.00    +0.000 C 
BRANCH   7   8
ATOM      8  O   UNL     1       6.489   3.538  13.863  0.00  0.00    +0.000 OA
ATOM      9  H   UNL     1       6.509   3.866  12.940  0.00  0.00    +0.000 HD
ENDBRANCH   7   8
ENDBRANCH   1   7
BRANCH   4  10
ATOM     10  O   UNL     1       3.802   2.573  17.831  0.00  0.00    +0.000 OA
BRANCH  10  11
ATOM     11  C   UNL     1       2.926   2.724  18.884  0.00  0.00    +0.000 A 
ATOM     12  C   UNL     1       3.448   2.639  20.176  0.00  0.00    +0.000 A 
ATOM     13  C   UNL     1       2.606   2.805  21.281  0.00  0.00    +0.000 A 
ATOM     14  C   UNL     1       1.247   3.062  21.088  0.00  0.00    +0.000 A 
ATOM     15  C   UNL     1       0.728   3.166  19.802  0.00  0.00    +0.000 A 
ATOM     16  C   UNL     1       1.570   3.016  18.702  0.00  0.00    +0.000 A 
ENDBRANCH  10  11
ENDBRANCH   4  10
TORSDOF 4
ENDMDL
MODEL 4
REMARK VINA RESULT:      -6.7      0.515      1.339
REMARK  Name = 
REMARK  4 active torsions:
REMARK  status: ('A' for Active; 'I' for Inactive)
REMARK    1  A    between atoms: C_2  and  O_3
REMARK    2  A    between atoms: C_2  and  C_4
REMARK    3  A    between atoms: C_7  and  O_8
REMARK    4  A    between atoms: O_8  and  C_9
REMARK                            x       y       z     vdW  Elec       q    Type
REMARK                         _______ _______ _______ _____ _____    ______ ____
ROOT
ATOM      1  C   UNL     1       6.088   5.734  18.147  0.00  0.00    +0.000 A 
ATOM      2  C   UNL     1       6.041   6.456  16.971  0.00  0.00    +0.000 A 
ATOM      3  C   UNL     1       4.681   6.751  16.731  0.00  0.00    +0.000 A 
ATOM      4  C   UNL     1       3.976   6.238  17.800  0.00  0.00    +0.000 A 
ATOM      5  O   UNL     1       4.818   5.569  18.641  0.00  0.00    +0.000 OA
ENDROOT
BRANCH   1   7
ATOM      6  O   UNL     1       7.516   5.469  20.025  0.00  0.00    +0.000 OA
ATOM      7  C   UNL     1       7.206   5.188  18.877  0.00  0.00    +0.000 C 
BRANCH   7   8
ATOM      8  O   UNL     1       7.900   4.295  18.127  0.00  0.00    +0.000 OA
ATOM      9  H   UNL     1       8.664   4.736  17.700  0.00  0.00    +0.000 HD
ENDBRANCH   7   8
ENDBRANCH   1   7
BRANCH   4  10
ATOM     10  O   UNL     1       2.706   6.267  18.203  0.00  0.00    +0.000 OA
BRANCH  10  11
ATOM     11  C   UNL     1       2.124   5.133  18.726  0.00  0.00    +0.000 A 
ATOM     12  C   UNL     1       1.847   5.122  20.095  0.00  0.00    +0.000 A 
ATOM     13  C   UNL     1       1.238   4.002  20.673  0.00  0.00    +0.000 A 
ATOM     14  C   UNL     1       0.903   2.904  19.880  0.00  0.00    +0.000 A 
ATOM     15  C   UNL     1       1.161   2.921  18.513  0.00  0.00    +0.000 A 
ATOM     16  C   UNL     1       1.753   4.041  17.934  0.00  0.00    +0.000 A 
ENDBRANCH  10  11
ENDBRANCH   4  10
TORSDOF 4
ENDMDL
MODEL 5
REMARK VINA RESULT:      -6.7      1.250      1.329
REMARK  Name = 
REMARK  4 active torsions:
REMARK  status: ('A' for Active; 'I' for Inactive)
REMARK    1  A    between atoms: C_2  and  O_3
REMARK    2  A    between atoms: C_2  and  C_4
REMARK    3  A    between atoms: C_7  and  O_8
REMARK    4  A    between atoms: O_8  and  C_9
REMARK                            x       y       z     vdW  Elec       q    Type
REMARK                         _______ _______ _______ _____ _____    ______ ____
ROOT
ATOM      1  C   UNL     1       6.613   5.403  18.397  0.00  0.00    +0.000 A 
ATOM      2  C   UNL     1       6.713   4.793  17.163  0.00  0.00    +0.000 A 
ATOM      3  C   UNL     1       5.399   4.675  16.661  0.00  0.00    +0.000 A 
ATOM      4  C   UNL     1       4.571   5.268  17.591  0.00  0.00    +0.000 A 
ATOM      5  O   UNL     1       5.294   5.666  18.678  0.00  0.00    +0.000 OA
ENDROOT
BRANCH   1   7
ATOM      6  O   UNL     1       7.860   5.230  20.410  0.00  0.00    +0.000 OA
ATOM      7  C   UNL     1       7.627   5.788  19.348  0.00  0.00    +0.000 C 
BRANCH   7   8
ATOM      8  O   UNL     1       8.321   6.873  18.920  0.00  0.00    +0.000 OA
ATOM      9  H   UNL     1       8.961   7.155  19.607  0.00  0.00    +0.000 HD
ENDBRANCH   7   8
ENDBRANCH   1   7
BRANCH   4  10
ATOM     10  O   UNL     1       3.272   5.557  17.660  0.00  0.00    +0.000 OA
BRANCH  10  11
ATOM     11  C   UNL     1       2.432   4.775  18.423  0.00  0.00    +0.000 A 
ATOM     12  C   UNL     1       1.983   3.576  17.867  0.00  0.00    +0.000 A 
ATOM     13  C   UNL     1       1.144   2.735  18.607  0.00  0.00    +0.000 A 
ATOM     14  C   UNL     1       0.764   3.095  19.902  0.00  0.00    +0.000 A 
ATOM     15  C   UNL     1       1.225   4.281  20.465  0.00  0.00    +0.000 A 
ATOM     16  C   UNL     1       2.073   5.110  19.734  0.00  0.00    +0.000 A 
ENDBRANCH  10  11
ENDBRANCH   4  10
TORSDOF 4
ENDMDL
MODEL 6
REMARK VINA RESULT:      -6.6      1.644      2.379
REMARK  Name = 
REMARK  4 active torsions:
REMARK  status: ('A' for Active; 'I' for Inactive)
REMARK    1  A    between atoms: C_2  and  O_3
REMARK    2  A    between atoms: C_2  and  C_4
REMARK    3  A    between atoms: C_7  and  O_8
REMARK    4  A    between atoms: O_8  and  C_9
REMARK                            x       y       z     vdW  Elec       q    Type
REMARK                         _______ _______ _______ _____ _____    ______ ____
ROOT
ATOM      1  C   UNL     1       6.211   5.023  16.379  0.00  0.00    +0.000 A 
ATOM      2  C   UNL     1       6.708   5.034  17.667  0.00  0.00    +0.000 A 
ATOM      3  C   UNL     1       5.641   5.414  18.510  0.00  0.00    +0.000 A 
ATOM      4  C   UNL     1       4.536   5.563  17.698  0.00  0.00    +0.000 A 
ATOM      5  O   UNL     1       4.885   5.381  16.392  0.00  0.00    +0.000 OA
ENDROOT
BRANCH   1   7
ATOM      6  O   UNL     1       7.731   5.336  14.582  0.00  0.00    +0.000 OA
ATOM      7  C   UNL     1       6.842   4.695  15.124  0.00  0.00    +0.000 C 
BRANCH   7   8
ATOM      8  O   UNL     1       6.326   3.559  14.592  0.00  0.00    +0.000 OA
ATOM      9  H   UNL     1       5.624   3.203  15.177  0.00  0.00    +0.000 HD
ENDBRANCH   7   8
ENDBRANCH   1   7
BRANCH   4  10
ATOM     10  O   UNL     1       3.241   5.810  17.892  0.00  0.00    +0.000 OA
BRANCH  10  11
ATOM     11  C   UNL     1       2.453   4.884  18.541  0.00  0.00    +0.000 A 
ATOM     12  C   UNL     1       2.118   5.141  19.872  0.00  0.00    +0.000 A 
ATOM     13  C   UNL     1       1.305   4.243  20.572  0.00  0.00    +0.000 A 
ATOM     14  C   UNL     1       0.826   3.096  19.936  0.00  0.00    +0.000 A 
ATOM     15  C   UNL     1       1.144   2.847  18.604  0.00  0.00    +0.000 A 
ATOM     16  C   UNL     1       1.941   3.749  17.903  0.00  0.00    +0.000 A 
ENDBRANCH  10  11
ENDBRANCH   4  10
TORSDOF 4
ENDMDL
MODEL 7
REMARK VINA RESULT:      -6.6      1.909      2.394
REMARK  Name = 
REMARK  4 active torsions:
REMARK  status: ('A' for Active; 'I' for Inactive)
REMARK    1  A    between atoms: C_2  and  O_3
REMARK    2  A    between atoms: C_2  and  C_4
REMARK    3  A    between atoms: C_7  and  O_8
REMARK    4  A    between atoms: O_8  and  C_9
REMARK                            x       y       z     vdW  Elec       q    Type
REMARK                         _______ _______ _______ _____ _____    ______ ____
ROOT
ATOM      1  C   UNL     1       5.864   5.045  15.684  0.00  0.00    +0.000 A 
ATOM      2  C   UNL     1       5.157   6.199  15.958  0.00  0.00    +0.000 A 
ATOM      3  C   UNL     1       4.464   5.972  17.167  0.00  0.00    +0.000 A 
ATOM      4  C   UNL     1       4.826   4.711  17.594  0.00  0.00    +0.000 A 
ATOM      5  O   UNL     1       5.636   4.117  16.670  0.00  0.00    +0.000 OA
ENDROOT
BRANCH   1   7
ATOM      6  O   UNL     1       7.693   5.397  14.211  0.00  0.00    +0.000 OA
ATOM      7  C   UNL     1       6.754   4.717  14.597  0.00  0.00    +0.000 C 
BRANCH   7   8
ATOM      8  O   UNL     1       6.425   3.528  14.030  0.00  0.00    +0.000 OA
ATOM      9  H   UNL     1       5.450   3.433  13.990  0.00  0.00    +0.000 HD
ENDBRANCH   7   8
ENDBRANCH   1   7
BRANCH   4  10
ATOM     10  O   UNL     1       4.597   3.973  18.679  0.00  0.00    +0.000 OA
BRANCH  10  11
ATOM     11  C   UNL     1       3.302   3.714  19.075  0.00  0.00    +0.000 A 
ATOM     12  C   UNL     1       2.553   2.829  18.297  0.00  0.00    +0.000 A 
ATOM     13  C   UNL     1       1.240   2.517  18.666  0.00  0.00    +0.000 A 
ATOM     14  C   UNL     1       0.684   3.087  19.813  0.00  0.00    +0.000 A 
ATOM     15  C   UNL     1       1.435   3.955  20.600  0.00  0.00    +0.000 A 
ATOM     16  C   UNL     1       2.748   4.254  20.241  0.00  0.00    +0.000 A 
ENDBRANCH  10  11
ENDBRANCH   4  10
TORSDOF 4
ENDMDL
MODEL 8
REMARK VINA RESULT:      -6.6      1.986      2.757
REMARK  Name = 
REMARK  4 active torsions:
REMARK  status: ('A' for Active; 'I' for Inactive)
REMARK    1  A    between atoms: C_2  and  O_3
REMARK    2  A    between atoms: C_2  and  C_4
REMARK    3  A    between atoms: C_7  and  O_8
REMARK    4  A    between atoms: O_8  and  C_9
REMARK                            x       y       z     vdW  Elec       q    Type
REMARK                         _______ _______ _______ _____ _____    ______ ____
ROOT
ATOM      1  C   UNL     1       5.886   4.969  15.609  0.00  0.00    +0.000 A 
ATOM      2  C   UNL     1       5.172   6.103  15.941  0.00  0.00    +0.000 A 
ATOM      3  C   UNL     1       4.477   5.809  17.135  0.00  0.00    +0.000 A 
ATOM      4  C   UNL     1       4.845   4.530  17.496  0.00  0.00    +0.000 A 
ATOM      5  O   UNL     1       5.661   3.989  16.545  0.00  0.00    +0.000 OA
ENDROOT
BRANCH   1   7
ATOM      6  O   UNL     1       7.723   5.401  14.168  0.00  0.00    +0.000 OA
ATOM      7  C   UNL     1       6.780   4.702  14.509  0.00  0.00    +0.000 C 
BRANCH   7   8
ATOM      8  O   UNL     1       6.451   3.550  13.871  0.00  0.00    +0.000 OA
ATOM      9  H   UNL     1       7.238   2.972  13.793  0.00  0.00    +0.000 HD
ENDBRANCH   7   8
ENDBRANCH   1   7
BRANCH   4  10
ATOM     10  O   UNL     1       4.617   3.735  18.541  0.00  0.00    +0.000 OA
BRANCH  10  11
ATOM     11  C   UNL     1       3.326   3.518  18.972  0.00  0.00    +0.000 A 
ATOM     12  C   UNL     1       2.906   4.193  20.120  0.00  0.00    +0.000 A 
ATOM     13  C   UNL     1       1.598   4.024  20.589  0.00  0.00    +0.000 A 
ATOM     14  C   UNL     1       0.716   3.185  19.905  0.00  0.00    +0.000 A 
ATOM     15  C   UNL     1       1.127   2.526  18.750  0.00  0.00    +0.000 A 
ATOM     16  C   UNL     1       2.424   2.707  18.275  0.00  0.00    +0.000 A 
ENDBRANCH  10  11
ENDBRANCH   4  10
TORSDOF 4
ENDMDL
MODEL 9
REMARK VINA RESULT:      -6.6      2.265      2.709
REMARK  Name = 
REMARK  4 active torsions:
REMARK  status: ('A' for Active; 'I' for Inactive)
REMARK    1  A    between atoms: C_2  and  O_3
REMARK    2  A    between atoms: C_2  and  C_4
REMARK    3  A    between atoms: C_7  and  O_8
REMARK    4  A    between atoms: O_8  and  C_9
REMARK                            x       y       z     vdW  Elec       q    Type
REMARK                         _______ _______ _______ _____ _____    ______ ____
ROOT
ATOM      1  C   UNL     1       5.712   4.757  15.791  0.00  0.00    +0.000 A 
ATOM      2  C   UNL     1       5.379   5.797  16.635  0.00  0.00    +0.000 A 
ATOM      3  C   UNL     1       4.323   5.335  17.450  0.00  0.00    +0.000 A 
ATOM      4  C   UNL     1       4.103   4.020  17.096  0.00  0.00    +0.000 A 
ATOM      5  O   UNL     1       4.907   3.674  16.050  0.00  0.00    +0.000 OA
ENDROOT
BRANCH   1   7
ATOM      6  O   UNL     1       7.683   5.401  14.634  0.00  0.00    +0.000 OA
ATOM      7  C   UNL     1       6.724   4.655  14.767  0.00  0.00    +0.000 C 
BRANCH   7   8
ATOM      8  O   UNL     1       6.489   3.605  13.941  0.00  0.00    +0.000 OA
ATOM      9  H   UNL     1       6.047   3.915  13.122  0.00  0.00    +0.000 HD
ENDBRANCH   7   8
ENDBRANCH   1   7
BRANCH   4  10
ATOM     10  O   UNL     1       3.330   3.032  17.545  0.00  0.00    +0.000 OA
BRANCH  10  11
ATOM     11  C   UNL     1       2.753   3.123  18.794  0.00  0.00    +0.000 A 
ATOM     12  C   UNL     1       1.458   3.638  18.871  0.00  0.00    +0.000 A 
ATOM     13  C   UNL     1       0.818   3.734  20.113  0.00  0.00    +0.000 A 
ATOM     14  C   UNL     1       1.475   3.307  21.269  0.00  0.00    +0.000 A 
ATOM     15  C   UNL     1       2.759   2.776  21.191  0.00  0.00    +0.000 A 
ATOM     16  C   UNL     1       3.389   2.667  19.954  0.00  0.00    +0.000 A 
ENDBRANCH  10  11
ENDBRANCH   4  10
TORSDOF 4
ENDMDL
