MODEL 1
REMARK VINA RESULT:      -7.8      0.000      0.000
REMARK  Name = 
REMARK  17 active torsions:
REMARK  status: ('A' for Active; 'I' for Inactive)
REMARK    1  A    between atoms: CD1_1  and  CG_2
REMARK    2  A    between atoms: CG_2  and  CD2_3
REMARK    3  A    between atoms: CG_2  and  CB_4
REMARK    4  A    between atoms: CB_4  and  CA_5
REMARK    5  A    between atoms: CA_5  and  N_6
REMARK    6  A    between atoms: CA_5  and  C_19
REMARK    7  A    between atoms: C_7  and  C_9
REMARK    8  A    between atoms: C_9  and  C_10
REMARK    9  A    between atoms: C_9  and  C_15
REMARK   10  A    between atoms: C_10  and  C_11
REMARK   11  A    between atoms: N_13  and  O_14
REMARK   12  A    between atoms: C_15  and  C_16
REMARK   13  A    between atoms: C_16  and  C_17
REMARK   14  A    between atoms: C_16  and  C_18
REMARK   15  A    between atoms: N_21  and  CA_22
REMARK   16  A    between atoms: CA_22  and  CB_23
REMARK   17  A    between atoms: CA_22  and  C_24
REMARK                            x       y       z     vdW  Elec       q    Type
REMARK                         _______ _______ _______ _____ _____    ______ ____
ROOT
ATOM      1  N   LEU A   1       4.505   4.759  16.686  0.00  0.00    +0.000 N 
ATOM      2  C   UNK A   0       4.133   4.291  17.924  0.00  0.00    +0.000 C 
ATOM      3  O   UNK A   0       4.722   3.363  18.470  0.00  0.00    +0.000 OA
ATOM      4  H   LEU A   1       4.032   5.557  16.269  0.00  0.00    +0.000 HD
ENDROOT
BRANCH   1   5
ATOM      5  CA  LEU A   1       5.604   4.181  15.900  0.00  0.00    +0.000 C 
BRANCH   5   6
ATOM      6  C   LEU A   1       6.898   4.759  16.503  0.00  0.00    +0.000 C 
ATOM      7  O   LEU A   1       7.961   4.143  16.469  0.00  0.00    +0.000 OA
ATOM      8  N   ALA A   2       6.765   5.967  17.145  0.00  0.00    +0.000 N 
ATOM      9  H   ALA A   2       5.902   6.498  17.084  0.00  0.00    +0.000 HD
BRANCH   8  10
ATOM     10  CA  ALA A   2       7.869   6.583  17.862  0.00  0.00    +0.000 C 
ATOM     11  CB  ALA A   2       7.781   8.098  17.816  0.00  0.00    +0.000 C 
BRANCH  10  12
ATOM     12  C   ALA A   2       7.843   6.108  19.307  0.00  0.00    +0.000 C 
ATOM     13  O   ALA A   2       6.908   5.484  19.804  0.00  0.00    +0.000 OA
ENDBRANCH  10  12
ENDBRANCH   8  10
ENDBRANCH   5   6
BRANCH   5  14
ATOM     14  CB  LEU A   1       5.468   4.577  14.415  0.00  0.00    +0.000 C 
BRANCH  14  16
ATOM     15  CD1 LEU A   1       5.731   3.235  12.250  0.00  0.00    +0.000 C 
ATOM     16  CG  LEU A   1       6.446   3.903  13.426  0.00  0.00    +0.000 C 
ATOM     17  CD2 LEU A   1       7.448   4.935  12.895  0.00  0.00    +0.000 C 
ENDBRANCH  14  16
ENDBRANCH   5  14
ENDBRANCH   1   5
BRANCH   2  18
ATOM     18  C   UNK A   0       2.881   4.957  18.512  0.00  0.00    +0.000 C 
BRANCH  18  19
ATOM     19  C   UNK A   0       2.922   6.427  18.038  0.00  0.00    +0.000 C 
BRANCH  19  20
ATOM     20  C   UNK A   0       2.339   7.431  19.008  0.00  0.00    +0.000 C 
ATOM     21  O   UNK A   0       1.845   8.506  18.676  0.00  0.00    +0.000 OA
ATOM     22  N   UNK A   0       2.343   6.988  20.310  0.00  0.00    +0.000 N 
ATOM     23  H   UNK A   0       2.998   6.289  20.646  0.00  0.00    +0.000 HD
BRANCH  22  24
ATOM     24  O   UNK A   0       1.876   7.903  21.280  0.00  0.00    +0.000 OA
ATOM     25  H   UNK A   0       1.893   8.760  20.787  0.00  0.00    +0.000 HD
ENDBRANCH  22  24
ENDBRANCH  19  20
ENDBRANCH  18  19
BRANCH  18  26
ATOM     26  C   UNK A   0       1.570   4.287  18.026  0.00  0.00    +0.000 C 
BRANCH  26  27
ATOM     27  C   UNK A   0       0.895   3.259  18.959  0.00  0.00    +0.000 C 
ATOM     28  C   UNK A   0       1.520   1.867  18.877  0.00  0.00    +0.000 C 
ATOM     29  C   UNK A   0       0.969   3.773  20.404  0.00  0.00    +0.000 C 
ENDBRANCH  26  27
ENDBRANCH  18  26
ENDBRANCH   2  18
TORSDOF 12
ENDMDL
MODEL 2
REMARK VINA RESULT:      -7.0      2.038      7.022
REMARK  Name = 
REMARK  17 active torsions:
REMARK  status: ('A' for Active; 'I' for Inactive)
REMARK    1  A    between atoms: CD1_1  and  CG_2
REMARK    2  A    between atoms: CG_2  and  CD2_3
REMARK    3  A    between atoms: CG_2  and  CB_4
REMARK    4  A    between atoms: CB_4  and  CA_5
REMARK    5  A    between atoms: CA_5  and  N_6
REMARK    6  A    between atoms: CA_5  and  C_19
REMARK    7  A    between atoms: C_7  and  C_9
REMARK    8  A    between atoms: C_9  and  C_10
REMARK    9  A    between atoms: C_9  and  C_15
REMARK   10  A    between atoms: C_10  and  C_11
REMARK   11  A    between atoms: N_13  and  O_14
REMARK   12  A    between atoms: C_15  and  C_16
REMARK   13  A    between atoms: C_16  and  C_17
REMARK   14  A    between atoms: C_16  and  C_18
REMARK   15  A    between atoms: N_21  and  CA_22
REMARK   16  A    between atoms: CA_22  and  CB_23
REMARK   17  A    between atoms: CA_22  and  C_24
REMARK                            x       y       z     vdW  Elec       q    Type
REMARK                         _______ _______ _______ _____ _____    ______ ____
ROOT
ATOM      1  N   LEU A   1       3.790   5.742  18.847  0.00  0.00    +0.000 N 
ATOM      2  C   UNK A   0       4.246   4.690  18.089  0.00  0.00    +0.000 C 
ATOM      3  O   UNK A   0       3.532   3.730  17.816  0.00  0.00    +0.000 OA
ATOM      4  H   LEU A   1       4.384   6.549  19.026  0.00  0.00    +0.000 HD
ENDROOT
BRANCH   1   5
ATOM      5  CA  LEU A   1       2.437   5.800  19.420  0.00  0.00    +0.000 C 
BRANCH   5   6
ATOM      6  C   LEU A   1       2.110   7.297  19.568  0.00  0.00    +0.000 C 
ATOM      7  O   LEU A   1       2.439   8.120  18.716  0.00  0.00    +0.000 OA
ATOM      8  N   ALA A   2       1.499   7.657  20.745  0.00  0.00    +0.000 N 
ATOM      9  H   ALA A   2       1.158   6.953  21.393  0.00  0.00    +0.000 HD
BRANCH   8  10
ATOM     10  CA  ALA A   2       1.233   9.046  21.080  0.00  0.00    +0.000 C 
ATOM     11  CB  ALA A   2      -0.069   9.524  20.463  0.00  0.00    +0.000 C 
BRANCH  10  12
ATOM     12  C   ALA A   2       1.168   9.183  22.594  0.00  0.00    +0.000 C 
ATOM     13  O   ALA A   2       0.117   9.238  23.230  0.00  0.00    +0.000 OA
ENDBRANCH  10  12
ENDBRANCH   8  10
ENDBRANCH   5   6
BRANCH   5  14
ATOM     14  CB  LEU A   1       2.404   5.094  20.792  0.00  0.00    +0.000 C 
BRANCH  14  16
ATOM     15  CD1 LEU A   1       0.842   3.453  19.600  0.00  0.00    +0.000 C 
ATOM     16  CG  LEU A   1       1.417   3.915  20.940  0.00  0.00    +0.000 C 
ATOM     17  CD2 LEU A   1       2.110   2.735  21.632  0.00  0.00    +0.000 C 
ENDBRANCH  14  16
ENDBRANCH   5  14
ENDBRANCH   1   5
BRANCH   2  18
ATOM     18  C   UNK A   0       5.728   4.776  17.698  0.00  0.00    +0.000 C 
BRANCH  18  19
ATOM     19  C   UNK A   0       5.834   4.135  16.296  0.00  0.00    +0.000 C 
BRANCH  19  20
ATOM     20  C   UNK A   0       6.275   5.071  15.193  0.00  0.00    +0.000 C 
ATOM     21  O   UNK A   0       5.572   5.958  14.716  0.00  0.00    +0.000 OA
ATOM     22  N   UNK A   0       7.587   4.885  14.821  0.00  0.00    +0.000 N 
ATOM     23  H   UNK A   0       8.070   4.002  14.953  0.00  0.00    +0.000 HD
BRANCH  22  24
ATOM     24  O   UNK A   0       8.047   5.679  13.746  0.00  0.00    +0.000 OA
ATOM     25  H   UNK A   0       8.337   6.506  14.204  0.00  0.00    +0.000 HD
ENDBRANCH  22  24
ENDBRANCH  19  20
ENDBRANCH  18  19
BRANCH  18  26
ATOM     26  C   UNK A   0       6.243   6.236  17.645  0.00  0.00    +0.000 C 
BRANCH  26  27
ATOM     27  C   UNK A   0       7.711   6.501  18.042  0.00  0.00    +0.000 C 
ATOM     28  C   UNK A   0       8.069   7.986  18.080  0.00  0.00    +0.000 C 
ATOM     29  C   UNK A   0       7.976   5.872  19.418  0.00  0.00    +0.000 C 
ENDBRANCH  26  27
ENDBRANCH  18  26
ENDBRANCH   2  18
TORSDOF 12
ENDMDL
MODEL 3
REMARK VINA RESULT:      -6.9      2.256      3.075
REMARK  Name = 
REMARK  17 active torsions:
REMARK  status: ('A' for Active; 'I' for Inactive)
REMARK    1  A    between atoms: CD1_1  and  CG_2
REMARK    2  A    between atoms: CG_2  and  CD2_3
REMARK    3  A    between atoms: CG_2  and  CB_4
REMARK    4  A    between atoms: CB_4  and  CA_5
REMARK    5  A    between atoms: CA_5  and  N_6
REMARK    6  A    between atoms: CA_5  and  C_19
REMARK    7  A    between atoms: C_7  and  C_9
REMARK    8  A    between atoms: C_9  and  C_10
REMARK    9  A    between atoms: C_9  and  C_15
REMARK   10  A    between atoms: C_10  and  C_11
REMARK   11  A    between atoms: N_13  and  O_14
REMARK   12  A    between atoms: C_15  and  C_16
REMARK   13  A    between atoms: C_16  and  C_17
REMARK   14  A    between atoms: C_16  and  C_18
REMARK   15  A    between atoms: N_21  and  CA_22
REMARK   16  A    between atoms: CA_22  and  CB_23
REMARK   17  A    between atoms: CA_22  and  C_24
REMARK                            x       y       z     vdW  Elec       q    Type
REMARK                         _______ _______ _______ _____ _____    ______ ____
ROOT
ATOM      1  N   LEU A   1       5.226   3.398  16.369  0.00  0.00    +0.000 N 
ATOM      2  C   UNK A   0       4.313   4.267  16.918  0.00  0.00    +0.000 C 
ATOM      3  O   UNK A   0       4.273   5.451  16.599  0.00  0.00    +0.000 OA
ATOM      4  H   LEU A   1       5.215   2.410  16.615  0.00  0.00    +0.000 HD
ENDROOT
BRANCH   1   5
ATOM      5  CA  LEU A   1       6.243   3.805  15.389  0.00  0.00    +0.000 C 
BRANCH   5   6
ATOM      6  C   LEU A   1       6.986   4.993  16.027  0.00  0.00    +0.000 C 
ATOM      7  O   LEU A   1       7.571   5.833  15.347  0.00  0.00    +0.000 OA
ATOM      8  N   ALA A   2       7.014   5.007  17.400  0.00  0.00    +0.000 N 
ATOM      9  H   ALA A   2       6.451   4.356  17.941  0.00  0.00    +0.000 HD
BRANCH   8  10
ATOM     10  CA  ALA A   2       7.772   5.998  18.145  0.00  0.00    +0.000 C 
ATOM     11  CB  ALA A   2       7.495   7.402  17.639  0.00  0.00    +0.000 C 
BRANCH  10  12
ATOM     12  C   ALA A   2       7.401   5.898  19.617  0.00  0.00    +0.000 C 
ATOM     13  O   ALA A   2       7.998   5.189  20.424  0.00  0.00    +0.000 OA
ENDBRANCH  10  12
ENDBRANCH   8  10
ENDBRANCH   5   6
BRANCH   5  14
ATOM     14  CB  LEU A   1       5.573   4.225  14.063  0.00  0.00    +0.000 C 
BRANCH  14  16
ATOM     15  CD1 LEU A   1       4.869   3.247  11.805  0.00  0.00    +0.000 C 
ATOM     16  CG  LEU A   1       6.016   3.463  12.793  0.00  0.00    +0.000 C 
ATOM     17  CD2 LEU A   1       7.154   4.221  12.098  0.00  0.00    +0.000 C 
ENDBRANCH  14  16
ENDBRANCH   5  14
ENDBRANCH   1   5
BRANCH   2  18
ATOM     18  C   UNK A   0       3.426   3.658  18.013  0.00  0.00    +0.000 C 
BRANCH  18  19
ATOM     19  C   UNK A   0       4.270   3.690  19.307  0.00  0.00    +0.000 C 
BRANCH  19  20
ATOM     20  C   UNK A   0       4.483   2.346  19.968  0.00  0.00    +0.000 C 
ATOM     21  O   UNK A   0       4.363   2.142  21.174  0.00  0.00    +0.000 OA
ATOM     22  N   UNK A   0       4.752   1.340  19.069  0.00  0.00    +0.000 N 
ATOM     23  H   UNK A   0       5.157   1.519  18.156  0.00  0.00    +0.000 HD
BRANCH  22  24
ATOM     24  O   UNK A   0       5.031   0.070  19.623  0.00  0.00    +0.000 OA
ATOM     25  H   UNK A   0       4.555   0.108  20.488  0.00  0.00    +0.000 HD
ENDBRANCH  22  24
ENDBRANCH  19  20
ENDBRANCH  18  19
BRANCH  18  26
ATOM     26  C   UNK A   0       2.115   4.456  18.224  0.00  0.00    +0.000 C 
BRANCH  26  27
ATOM     27  C   UNK A   0       0.953   3.757  18.963  0.00  0.00    +0.000 C 
ATOM     28  C   UNK A   0       0.926   2.244  18.752  0.00  0.00    +0.000 C 
ATOM     29  C   UNK A   0       1.060   4.066  20.464  0.00  0.00    +0.000 C 
ENDBRANCH  26  27
ENDBRANCH  18  26
ENDBRANCH   2  18
TORSDOF 12
ENDMDL
MODEL 4
REMARK VINA RESULT:      -6.8      1.898      6.602
REMARK  Name = 
REMARK  17 active torsions:
REMARK  status: ('A' for Active; 'I' for Inactive)
REMARK    1  A    between atoms: CD1_1  and  CG_2
REMARK    2  A    between atoms: CG_2  and  CD2_3
REMARK    3  A    between atoms: CG_2  and  CB_4
REMARK    4  A    between atoms: CB_4  and  CA_5
REMARK    5  A    between atoms: CA_5  and  N_6
REMARK    6  A    between atoms: CA_5  and  C_19
REMARK    7  A    between atoms: C_7  and  C_9
REMARK    8  A    between atoms: C_9  and  C_10
REMARK    9  A    between atoms: C_9  and  C_15
REMARK   10  A    between atoms: C_10  and  C_11
REMARK   11  A    between atoms: N_13  and  O_14
REMARK   12  A    between atoms: C_15  and  C_16
REMARK   13  A    between atoms: C_16  and  C_17
REMARK   14  A    between atoms: C_16  and  C_18
REMARK   15  A    between atoms: N_21  and  CA_22
REMARK   16  A    between atoms: CA_22  and  CB_23
REMARK   17  A    between atoms: CA_22  and  C_24
REMARK                            x       y       z     vdW  Elec       q    Type
REMARK                         _______ _______ _______ _____ _____    ______ ____
ROOT
ATOM      1  N   LEU A   1       3.820   5.753  18.295  0.00  0.00    +0.000 N 
ATOM      2  C   UNK A   0       4.111   4.826  17.322  0.00  0.00    +0.000 C 
ATOM      3  O   UNK A   0       3.300   3.971  16.979  0.00  0.00    +0.000 OA
ATOM      4  H   LEU A   1       4.490   6.481  18.535  0.00  0.00    +0.000 HD
ENDROOT
BRANCH   1   5
ATOM      5  CA  LEU A   1       2.545   5.786  19.025  0.00  0.00    +0.000 C 
BRANCH   5   6
ATOM      6  C   LEU A   1       2.251   7.276  19.283  0.00  0.00    +0.000 C 
ATOM      7  O   LEU A   1       2.590   8.151  18.490  0.00  0.00    +0.000 OA
ATOM      8  N   ALA A   2       1.656   7.563  20.488  0.00  0.00    +0.000 N 
ATOM      9  H   ALA A   2       1.305   6.821  21.087  0.00  0.00    +0.000 HD
BRANCH   8  10
ATOM     10  CA  ALA A   2       1.421   8.929  20.925  0.00  0.00    +0.000 C 
ATOM     11  CB  ALA A   2       0.273   9.564  20.161  0.00  0.00    +0.000 C 
BRANCH  10  12
ATOM     12  C   ALA A   2       1.110   8.923  22.414  0.00  0.00    +0.000 C 
ATOM     13  O   ALA A   2       0.932   9.942  23.077  0.00  0.00    +0.000 OA
ENDBRANCH  10  12
ENDBRANCH   8  10
ENDBRANCH   5   6
BRANCH   5  14
ATOM     14  CB  LEU A   1       2.668   5.015  20.356  0.00  0.00    +0.000 C 
BRANCH  14  16
ATOM     15  CD1 LEU A   1       0.973   3.301  19.493  0.00  0.00    +0.000 C 
ATOM     16  CG  LEU A   1       1.508   4.056  20.710  0.00  0.00    +0.000 C 
ATOM     17  CD2 LEU A   1       1.966   3.052  21.774  0.00  0.00    +0.000 C 
ENDBRANCH  14  16
ENDBRANCH   5  14
ENDBRANCH   1   5
BRANCH   2  18
ATOM     18  C   UNK A   0       5.544   4.894  16.778  0.00  0.00    +0.000 C 
BRANCH  18  19
ATOM     19  C   UNK A   0       6.463   4.980  18.017  0.00  0.00    +0.000 C 
BRANCH  19  20
ATOM     20  C   UNK A   0       7.291   6.242  18.118  0.00  0.00    +0.000 C 
ATOM     21  O   UNK A   0       8.173   6.426  18.953  0.00  0.00    +0.000 OA
ATOM     22  N   UNK A   0       7.012   7.150  17.121  0.00  0.00    +0.000 N 
ATOM     23  H   UNK A   0       6.119   7.173  16.639  0.00  0.00    +0.000 HD
BRANCH  22  24
ATOM     24  O   UNK A   0       7.700   8.382  17.194  0.00  0.00    +0.000 OA
ATOM     25  H   UNK A   0       7.746   8.654  16.245  0.00  0.00    +0.000 HD
ENDBRANCH  22  24
ENDBRANCH  19  20
ENDBRANCH  18  19
BRANCH  18  26
ATOM     26  C   UNK A   0       5.918   3.649  15.935  0.00  0.00    +0.000 C 
BRANCH  26  27
ATOM     27  C   UNK A   0       6.340   3.869  14.466  0.00  0.00    +0.000 C 
ATOM     28  C   UNK A   0       5.156   3.975  13.506  0.00  0.00    +0.000 C 
ATOM     29  C   UNK A   0       7.190   5.146  14.379  0.00  0.00    +0.000 C 
ENDBRANCH  26  27
ENDBRANCH  18  26
ENDBRANCH   2  18
TORSDOF 12
ENDMDL
MODEL 5
REMARK VINA RESULT:      -6.7      2.562      6.998
REMARK  Name = 
REMARK  17 active torsions:
REMARK  status: ('A' for Active; 'I' for Inactive)
REMARK    1  A    between atoms: CD1_1  and  CG_2
REMARK    2  A    between atoms: CG_2  and  CD2_3
REMARK    3  A    between atoms: CG_2  and  CB_4
REMARK    4  A    between atoms: CB_4  and  CA_5
REMARK    5  A    between atoms: CA_5  and  N_6
REMARK    6  A    between atoms: CA_5  and  C_19
REMARK    7  A    between atoms: C_7  and  C_9
REMARK    8  A    between atoms: C_9  and  C_10
REMARK    9  A    between atoms: C_9  and  C_15
REMARK   10  A    between atoms: C_10  and  C_11
REMARK   11  A    between atoms: N_13  and  O_14
REMARK   12  A    between atoms: C_15  and  C_16
REMARK   13  A    between atoms: C_16  and  C_17
REMARK   14  A    between atoms: C_16  and  C_18
REMARK   15  A    between atoms: N_21  and  CA_22
REMARK   16  A    between atoms: CA_22  and  CB_23
REMARK   17  A    between atoms: CA_22  and  C_24
REMARK                            x       y       z     vdW  Elec       q    Type
REMARK                         _______ _______ _______ _____ _____    ______ ____
ROOT
ATOM      1  N   LEU A   1       3.338   6.112  19.425  0.00  0.00    +0.000 N 
ATOM      2  C   UNK A   0       3.855   6.365  18.176  0.00  0.00    +0.000 C 
ATOM      3  O   UNK A   0       3.153   6.765  17.253  0.00  0.00    +0.000 OA
ATOM      4  H   LEU A   1       3.944   5.822  20.189  0.00  0.00    +0.000 HD
ENDROOT
BRANCH   1   5
ATOM      5  CA  LEU A   1       1.914   6.263  19.756  0.00  0.00    +0.000 C 
BRANCH   5   6
ATOM      6  C   LEU A   1       1.757   7.703  20.277  0.00  0.00    +0.000 C 
ATOM      7  O   LEU A   1       1.809   7.969  21.475  0.00  0.00    +0.000 OA
ATOM      8  N   ALA A   2       1.480   8.652  19.322  0.00  0.00    +0.000 N 
ATOM      9  H   ALA A   2       1.530   8.427  18.333  0.00  0.00    +0.000 HD
BRANCH   8  10
ATOM     10  CA  ALA A   2       1.191  10.033  19.670  0.00  0.00    +0.000 C 
ATOM     11  CB  ALA A   2       1.591  10.980  18.553  0.00  0.00    +0.000 C 
BRANCH  10  12
ATOM     12  C   ALA A   2      -0.298  10.168  19.953  0.00  0.00    +0.000 C 
ATOM     13  O   ALA A   2      -0.754  10.677  20.974  0.00  0.00    +0.000 OA
ENDBRANCH  10  12
ENDBRANCH   8  10
ENDBRANCH   5   6
BRANCH   5  14
ATOM     14  CB  LEU A   1       1.504   5.242  20.839  0.00  0.00    +0.000 C 
BRANCH  14  16
ATOM     15  CD1 LEU A   1       1.847   2.909  21.836  0.00  0.00    +0.000 C 
ATOM     16  CG  LEU A   1       1.865   3.764  20.568  0.00  0.00    +0.000 C 
ATOM     17  CD2 LEU A   1       0.898   3.169  19.537  0.00  0.00    +0.000 C 
ENDBRANCH  14  16
ENDBRANCH   5  14
ENDBRANCH   1   5
BRANCH   2  18
ATOM     18  C   UNK A   0       5.343   6.021  18.016  0.00  0.00    +0.000 C 
BRANCH  18  19
ATOM     19  C   UNK A   0       5.388   4.690  17.235  0.00  0.00    +0.000 C 
BRANCH  19  20
ATOM     20  C   UNK A   0       4.808   3.497  17.964  0.00  0.00    +0.000 C 
ATOM     21  O   UNK A   0       3.880   2.813  17.541  0.00  0.00    +0.000 OA
ATOM     22  N   UNK A   0       5.481   3.197  19.126  0.00  0.00    +0.000 N 
ATOM     23  H   UNK A   0       6.012   3.891  19.643  0.00  0.00    +0.000 HD
BRANCH  22  24
ATOM     24  O   UNK A   0       4.951   2.136  19.894  0.00  0.00    +0.000 OA
ATOM     25  H   UNK A   0       5.666   1.979  20.558  0.00  0.00    +0.000 HD
ENDBRANCH  22  24
ENDBRANCH  19  20
ENDBRANCH  18  19
BRANCH  18  26
ATOM     26  C   UNK A   0       6.122   7.111  17.237  0.00  0.00    +0.000 C 
BRANCH  26  27
ATOM     27  C   UNK A   0       7.618   7.305  17.565  0.00  0.00    +0.000 C 
ATOM     28  C   UNK A   0       7.998   8.764  17.816  0.00  0.00    +0.000 C 
ATOM     29  C   UNK A   0       7.971   6.461  18.799  0.00  0.00    +0.000 C 
ENDBRANCH  26  27
ENDBRANCH  18  26
ENDBRANCH   2  18
TORSDOF 12
ENDMDL
MODEL 6
REMARK VINA RESULT:      -6.7      1.931      2.881
REMARK  Name = 
REMARK  17 active torsions:
REMARK  status: ('A' for Active; 'I' for Inactive)
REMARK    1  A    between atoms: CD1_1  and  CG_2
REMARK    2  A    between atoms: CG_2  and  CD2_3
REMARK    3  A    between atoms: CG_2  and  CB_4
REMARK    4  A    between atoms: CB_4  and  CA_5
REMARK    5  A    between atoms: CA_5  and  N_6
REMARK    6  A    between atoms: CA_5  and  C_19
REMARK    7  A    between atoms: C_7  and  C_9
REMARK    8  A    between atoms: C_9  and  C_10
REMARK    9  A    between atoms: C_9  and  C_15
REMARK   10  A    between atoms: C_10  and  C_11
REMARK   11  A    between atoms: N_13  and  O_14
REMARK   12  A    between atoms: C_15  and  C_16
REMARK   13  A    between atoms: C_16  and  C_17
REMARK   14  A    between atoms: C_16  and  C_18
REMARK   15  A    between atoms: N_21  and  CA_22
REMARK   16  A    between atoms: CA_22  and  CB_23
REMARK   17  A    between atoms: CA_22  and  C_24
REMARK                            x       y       z     vdW  Elec       q    Type
REMARK                         _______ _______ _______ _____ _____    ______ ____
ROOT
ATOM      1  N   LEU A   1       4.658   4.552  17.199  0.00  0.00    +0.000 N 
ATOM      2  C   UNK A   0       4.497   4.058  18.472  0.00  0.00    +0.000 C 
ATOM      3  O   UNK A   0       5.247   3.204  18.934  0.00  0.00    +0.000 OA
ATOM      4  H   LEU A   1       4.052   5.291  16.849  0.00  0.00    +0.000 HD
ENDROOT
BRANCH   1   5
ATOM      5  CA  LEU A   1       5.705   4.089  16.277  0.00  0.00    +0.000 C 
BRANCH   5   6
ATOM      6  C   LEU A   1       7.006   4.761  16.752  0.00  0.00    +0.000 C 
ATOM      7  O   LEU A   1       8.095   4.198  16.667  0.00  0.00    +0.000 OA
ATOM      8  N   ALA A   2       6.856   5.992  17.344  0.00  0.00    +0.000 N 
ATOM      9  H   ALA A   2       5.963   6.475  17.325  0.00  0.00    +0.000 HD
BRANCH   8  10
ATOM     10  CA  ALA A   2       7.975   6.698  17.946  0.00  0.00    +0.000 C 
ATOM     11  CB  ALA A   2       7.863   8.196  17.731  0.00  0.00    +0.000 C 
BRANCH  10  12
ATOM     12  C   ALA A   2       8.007   6.391  19.436  0.00  0.00    +0.000 C 
ATOM     13  O   ALA A   2       7.547   5.365  19.931  0.00  0.00    +0.000 OA
ENDBRANCH  10  12
ENDBRANCH   8  10
ENDBRANCH   5   6
BRANCH   5  14
ATOM     14  CB  LEU A   1       5.369   4.507  14.830  0.00  0.00    +0.000 C 
BRANCH  14  16
ATOM     15  CD1 LEU A   1       5.377   3.387  12.527  0.00  0.00    +0.000 C 
ATOM     16  CG  LEU A   1       6.220   3.867  13.710  0.00  0.00    +0.000 C 
ATOM     17  CD2 LEU A   1       7.272   4.868  13.215  0.00  0.00    +0.000 C 
ENDBRANCH  14  16
ENDBRANCH   5  14
ENDBRANCH   1   5
BRANCH   2  18
ATOM     18  C   UNK A   0       3.265   4.590  19.216  0.00  0.00    +0.000 C 
BRANCH  18  19
ATOM     19  C   UNK A   0       3.221   3.830  20.560  0.00  0.00    +0.000 C 
BRANCH  19  20
ATOM     20  C   UNK A   0       1.837   3.455  21.042  0.00  0.00    +0.000 C 
ATOM     21  O   UNK A   0       0.796   3.802  20.491  0.00  0.00    +0.000 OA
ATOM     22  N   UNK A   0       1.855   2.610  22.128  0.00  0.00    +0.000 N 
ATOM     23  H   UNK A   0       2.639   2.567  22.772  0.00  0.00    +0.000 HD
BRANCH  22  24
ATOM     24  O   UNK A   0       0.596   2.273  22.674  0.00  0.00    +0.000 OA
ATOM     25  H   UNK A   0      -0.030   2.675  22.025  0.00  0.00    +0.000 HD
ENDBRANCH  22  24
ENDBRANCH  19  20
ENDBRANCH  18  19
BRANCH  18  26
ATOM     26  C   UNK A   0       3.346   6.115  19.480  0.00  0.00    +0.000 C 
BRANCH  26  27
ATOM     27  C   UNK A   0       2.079   6.961  19.229  0.00  0.00    +0.000 C 
ATOM     28  C   UNK A   0       1.667   7.805  20.434  0.00  0.00    +0.000 C 
ATOM     29  C   UNK A   0       2.323   7.876  18.019  0.00  0.00    +0.000 C 
ENDBRANCH  26  27
ENDBRANCH  18  26
ENDBRANCH   2  18
TORSDOF 12
ENDMDL
MODEL 7
REMARK VINA RESULT:      -6.7      2.128      7.093
REMARK  Name = 
REMARK  17 active torsions:
REMARK  status: ('A' for Active; 'I' for Inactive)
REMARK    1  A    between atoms: CD1_1  and  CG_2
REMARK    2  A    between atoms: CG_2  and  CD2_3
REMARK    3  A    between atoms: CG_2  and  CB_4
REMARK    4  A    between atoms: CB_4  and  CA_5
REMARK    5  A    between atoms: CA_5  and  N_6
REMARK    6  A    between atoms: CA_5  and  C_19
REMARK    7  A    between atoms: C_7  and  C_9
REMARK    8  A    between atoms: C_9  and  C_10
REMARK    9  A    between atoms: C_9  and  C_15
REMARK   10  A    between atoms: C_10  and  C_11
REMARK   11  A    between atoms: N_13  and  O_14
REMARK   12  A    between atoms: C_15  and  C_16
REMARK   13  A    between atoms: C_16  and  C_17
REMARK   14  A    between atoms: C_16  and  C_18
REMARK   15  A    between atoms: N_21  and  CA_22
REMARK   16  A    between atoms: CA_22  and  CB_23
REMARK   17  A    between atoms: CA_22  and  C_24
REMARK                            x       y       z     vdW  Elec       q    Type
REMARK                         _______ _______ _______ _____ _____    ______ ____
ROOT
ATOM      1  N   LEU A   1       3.607   6.290  18.707  0.00  0.00    +0.000 N 
ATOM      2  C   UNK A   0       3.947   5.499  17.635  0.00  0.00    +0.000 C 
ATOM      3  O   UNK A   0       3.191   4.635  17.202  0.00  0.00    +0.000 OA
ATOM      4  H   LEU A   1       4.230   7.030  19.024  0.00  0.00    +0.000 HD
ENDROOT
BRANCH   1   5
ATOM      5  CA  LEU A   1       2.342   6.156  19.442  0.00  0.00    +0.000 C 
BRANCH   5   6
ATOM      6  C   LEU A   1       1.913   7.591  19.801  0.00  0.00    +0.000 C 
ATOM      7  O   LEU A   1       1.563   7.899  20.937  0.00  0.00    +0.000 OA
ATOM      8  N   ALA A   2       1.876   8.478  18.752  0.00  0.00    +0.000 N 
ATOM      9  H   ALA A   2       2.253   8.228  17.842  0.00  0.00    +0.000 HD
BRANCH   8  10
ATOM     10  CA  ALA A   2       1.382   9.836  18.908  0.00  0.00    +0.000 C 
ATOM     11  CB  ALA A   2       2.097  10.796  17.975  0.00  0.00    +0.000 C 
BRANCH  10  12
ATOM     12  C   ALA A   2      -0.112   9.853  18.621  0.00  0.00    +0.000 C 
ATOM     13  O   ALA A   2      -0.717  10.841  18.212  0.00  0.00    +0.000 OA
ENDBRANCH  10  12
ENDBRANCH   8  10
ENDBRANCH   5   6
BRANCH   5  14
ATOM     14  CB  LEU A   1       2.548   5.312  20.718  0.00  0.00    +0.000 C 
BRANCH  14  16
ATOM     15  CD1 LEU A   1       0.848   3.713  19.665  0.00  0.00    +0.000 C 
ATOM     16  CG  LEU A   1       1.955   3.885  20.706  0.00  0.00    +0.000 C 
ATOM     17  CD2 LEU A   1       3.066   2.859  20.445  0.00  0.00    +0.000 C 
ENDBRANCH  14  16
ENDBRANCH   5  14
ENDBRANCH   1   5
BRANCH   2  18
ATOM     18  C   UNK A   0       5.366   5.724  17.096  0.00  0.00    +0.000 C 
BRANCH  18  19
ATOM     19  C   UNK A   0       5.236   5.744  15.557  0.00  0.00    +0.000 C 
BRANCH  19  20
ATOM     20  C   UNK A   0       6.226   4.872  14.816  0.00  0.00    +0.000 C 
ATOM     21  O   UNK A   0       7.435   4.864  15.029  0.00  0.00    +0.000 OA
ATOM     22  N   UNK A   0       5.625   4.017  13.921  0.00  0.00    +0.000 N 
ATOM     23  H   UNK A   0       4.719   4.211  13.507  0.00  0.00    +0.000 HD
BRANCH  22  24
ATOM     24  O   UNK A   0       6.495   3.220  13.143  0.00  0.00    +0.000 OA
ATOM     25  H   UNK A   0       5.945   3.022  12.347  0.00  0.00    +0.000 HD
ENDBRANCH  22  24
ENDBRANCH  19  20
ENDBRANCH  18  19
BRANCH  18  26
ATOM     26  C   UNK A   0       5.981   7.059  17.587  0.00  0.00    +0.000 C 
BRANCH  26  27
ATOM     27  C   UNK A   0       7.520   7.160  17.669  0.00  0.00    +0.000 C 
ATOM     28  C   UNK A   0       8.022   8.591  17.857  0.00  0.00    +0.000 C 
ATOM     29  C   UNK A   0       8.015   6.283  18.828  0.00  0.00    +0.000 C 
ENDBRANCH  26  27
ENDBRANCH  18  26
ENDBRANCH   2  18
TORSDOF 12
ENDMDL
MODEL 8
REMARK VINA RESULT:      -6.7      2.086      2.910
REMARK  Name = 
REMARK  17 active torsions:
REMARK  status: ('A' for Active; 'I' for Inactive)
REMARK    1  A    between atoms: CD1_1  and  CG_2
REMARK    2  A    between atoms: CG_2  and  CD2_3
REMARK    3  A    between atoms: CG_2  and  CB_4
REMARK    4  A    between atoms: CB_4  and  CA_5
REMARK    5  A    between atoms: CA_5  and  N_6
REMARK    6  A    between atoms: CA_5  and  C_19
REMARK    7  A    between atoms: C_7  and  C_9
REMARK    8  A    between atoms: C_9  and  C_10
REMARK    9  A    between atoms: C_9  and  C_15
REMARK   10  A    between atoms: C_10  and  C_11
REMARK   11  A    between atoms: N_13  and  O_14
REMARK   12  A    between atoms: C_15  and  C_16
REMARK   13  A    between atoms: C_16  and  C_17
REMARK   14  A    between atoms: C_16  and  C_18
REMARK   15  A    between atoms: N_21  and  CA_22
REMARK   16  A    between atoms: CA_22  and  CB_23
REMARK   17  A    between atoms: CA_22  and  C_24
REMARK                            x       y       z     vdW  Elec       q    Type
REMARK                         _______ _______ _______ _____ _____    ______ ____
ROOT
ATOM      1  N   LEU A   1       4.623   4.298  17.332  0.00  0.00    +0.000 N 
ATOM      2  C   UNK A   0       3.319   3.867  17.275  0.00  0.00    +0.000 C 
ATOM      3  O   UNK A   0       2.922   3.116  16.390  0.00  0.00    +0.000 OA
ATOM      4  H   LEU A   1       4.942   4.886  18.099  0.00  0.00    +0.000 HD
ENDROOT
BRANCH   1   5
ATOM      5  CA  LEU A   1       5.640   3.931  16.337  0.00  0.00    +0.000 C 
BRANCH   5   6
ATOM      6  C   LEU A   1       6.941   4.614  16.798  0.00  0.00    +0.000 C 
ATOM      7  O   LEU A   1       8.034   4.060  16.703  0.00  0.00    +0.000 OA
ATOM      8  N   ALA A   2       6.787   5.845  17.389  0.00  0.00    +0.000 N 
ATOM      9  H   ALA A   2       5.890   6.321  17.378  0.00  0.00    +0.000 HD
BRANCH   8  10
ATOM     10  CA  ALA A   2       7.906   6.561  17.979  0.00  0.00    +0.000 C 
ATOM     11  CB  ALA A   2       7.768   8.060  17.783  0.00  0.00    +0.000 C 
BRANCH  10  12
ATOM     12  C   ALA A   2       7.969   6.238  19.465  0.00  0.00    +0.000 C 
ATOM     13  O   ALA A   2       7.227   5.431  20.020  0.00  0.00    +0.000 OA
ENDBRANCH  10  12
ENDBRANCH   8  10
ENDBRANCH   5   6
BRANCH   5  14
ATOM     14  CB  LEU A   1       5.226   4.430  14.936  0.00  0.00    +0.000 C 
BRANCH  14  16
ATOM     15  CD1 LEU A   1       5.156   3.547  12.534  0.00  0.00    +0.000 C 
ATOM     16  CG  LEU A   1       6.036   3.883  13.739  0.00  0.00    +0.000 C 
ATOM     17  CD2 LEU A   1       7.106   4.900  13.323  0.00  0.00    +0.000 C 
ENDBRANCH  14  16
ENDBRANCH   5  14
ENDBRANCH   1   5
BRANCH   2  18
ATOM     18  C   UNK A   0       2.396   4.471  18.343  0.00  0.00    +0.000 C 
BRANCH  18  19
ATOM     19  C   UNK A   0       3.220   4.493  19.650  0.00  0.00    +0.000 C 
BRANCH  19  20
ATOM     20  C   UNK A   0       2.947   3.348  20.601  0.00  0.00    +0.000 C 
ATOM     21  O   UNK A   0       3.698   2.390  20.763  0.00  0.00    +0.000 OA
ATOM     22  N   UNK A   0       1.798   3.522  21.338  0.00  0.00    +0.000 N 
ATOM     23  H   UNK A   0       1.029   4.103  21.018  0.00  0.00    +0.000 HD
BRANCH  22  24
ATOM     24  O   UNK A   0       1.444   2.458  22.197  0.00  0.00    +0.000 OA
ATOM     25  H   UNK A   0       2.243   2.377  22.773  0.00  0.00    +0.000 HD
ENDBRANCH  22  24
ENDBRANCH  19  20
ENDBRANCH  18  19
BRANCH  18  26
ATOM     26  C   UNK A   0       1.941   5.909  17.988  0.00  0.00    +0.000 C 
BRANCH  26  27
ATOM     27  C   UNK A   0       2.817   7.086  18.470  0.00  0.00    +0.000 C 
ATOM     28  C   UNK A   0       3.716   7.659  17.375  0.00  0.00    +0.000 C 
ATOM     29  C   UNK A   0       1.905   8.193  19.020  0.00  0.00    +0.000 C 
ENDBRANCH  26  27
ENDBRANCH  18  26
ENDBRANCH   2  18
TORSDOF 12
ENDMDL
MODEL 9
REMARK VINA RESULT:      -6.6      2.894      5.200
REMARK  Name = 
REMARK  17 active torsions:
REMARK  status: ('A' for Active; 'I' for Inactive)
REMARK    1  A    between atoms: CD1_1  and  CG_2
REMARK    2  A    between atoms: CG_2  and  CD2_3
REMARK    3  A    between atoms: CG_2  and  CB_4
REMARK    4  A    between atoms: CB_4  and  CA_5
REMARK    5  A    between atoms: CA_5  and  N_6
REMARK    6  A    between atoms: CA_5  and  C_19
REMARK    7  A    between atoms: C_7  and  C_9
REMARK    8  A    between atoms: C_9  and  C_10
REMARK    9  A    between atoms: C_9  and  C_15
REMARK   10  A    between atoms: C_10  and  C_11
REMARK   11  A    between atoms: N_13  and  O_14
REMARK   12  A    between atoms: C_15  and  C_16
REMARK   13  A    between atoms: C_16  and  C_17
REMARK   14  A    between atoms: C_16  and  C_18
REMARK   15  A    between atoms: N_21  and  CA_22
REMARK   16  A    between atoms: CA_22  and  CB_23
REMARK   17  A    between atoms: CA_22  and  C_24
REMARK                            x       y       z     vdW  Elec       q    Type
REMARK                         _______ _______ _______ _____ _____    ______ ____
ROOT
ATOM      1  N   LEU A   1       2.542   7.431  19.174  0.00  0.00    +0.000 N 
ATOM      2  C   UNK A   0       1.724   7.607  20.265  0.00  0.00    +0.000 C 
ATOM      3  O   UNK A   0       1.481   6.693  21.046  0.00  0.00    +0.000 OA
ATOM      4  H   LEU A   1       2.766   8.213  18.562  0.00  0.00    +0.000 HD
ENDROOT
BRANCH   1   5
ATOM      5  CA  LEU A   1       3.165   6.145  18.828  0.00  0.00    +0.000 C 
BRANCH   5   6
ATOM      6  C   LEU A   1       4.287   6.480  17.828  0.00  0.00    +0.000 C 
ATOM      7  O   LEU A   1       4.078   7.147  16.818  0.00  0.00    +0.000 OA
ATOM      8  N   ALA A   2       5.512   5.921  18.102  0.00  0.00    +0.000 N 
ATOM      9  H   ALA A   2       5.685   5.449  18.985  0.00  0.00    +0.000 HD
BRANCH   8  10
ATOM     10  CA  ALA A   2       6.638   6.049  17.192  0.00  0.00    +0.000 C 
ATOM     11  CB  ALA A   2       7.523   7.224  17.568  0.00  0.00    +0.000 C 
BRANCH  10  12
ATOM     12  C   ALA A   2       7.448   4.762  17.226  0.00  0.00    +0.000 C 
ATOM     13  O   ALA A   2       8.037   4.352  18.223  0.00  0.00    +0.000 OA
ENDBRANCH  10  12
ENDBRANCH   8  10
ENDBRANCH   5   6
BRANCH   5  14
ATOM     14  CB  LEU A   1       2.127   5.199  18.190  0.00  0.00    +0.000 C 
BRANCH  14  16
ATOM     15  CD1 LEU A   1       0.917   3.202  19.239  0.00  0.00    +0.000 C 
ATOM     16  CG  LEU A   1       2.207   3.710  18.594  0.00  0.00    +0.000 C 
ATOM     17  CD2 LEU A   1       2.537   2.852  17.366  0.00  0.00    +0.000 C 
ENDBRANCH  14  16
ENDBRANCH   5  14
ENDBRANCH   1   5
BRANCH   2  18
ATOM     18  C   UNK A   0       1.080   8.996  20.366  0.00  0.00    +0.000 C 
BRANCH  18  19
ATOM     19  C   UNK A   0       0.936   9.503  18.914  0.00  0.00    +0.000 C 
BRANCH  19  20
ATOM     20  C   UNK A   0       1.300  10.956  18.701  0.00  0.00    +0.000 C 
ATOM     21  O   UNK A   0       0.859  11.885  19.372  0.00  0.00    +0.000 OA
ATOM     22  N   UNK A   0       2.248  11.135  17.719  0.00  0.00    +0.000 N 
ATOM     23  H   UNK A   0       2.386  10.467  16.967  0.00  0.00    +0.000 HD
BRANCH  22  24
ATOM     24  O   UNK A   0       2.586  12.474  17.419  0.00  0.00    +0.000 OA
ATOM     25  H   UNK A   0       2.573  12.900  18.310  0.00  0.00    +0.000 HD
ENDBRANCH  22  24
ENDBRANCH  19  20
ENDBRANCH  18  19
BRANCH  18  26
ATOM     26  C   UNK A   0      -0.312   8.955  21.046  0.00  0.00    +0.000 C 
BRANCH  26  27
ATOM     27  C   UNK A   0      -0.425   9.475  22.496  0.00  0.00    +0.000 C 
ATOM     28  C   UNK A   0       0.880   9.362  23.281  0.00  0.00    +0.000 C 
ATOM     29  C   UNK A   0      -0.883  10.941  22.465  0.00  0.00    +0.000 C 
ENDBRANCH  26  27
ENDBRANCH  18  26
ENDBRANCH   2  18
TORSDOF 12
ENDMDL
