MODEL 1
REMARK VINA RESULT:      -7.5      0.000      0.000
REMARK  Name = 
REMARK  8 active torsions:
REMARK  status: ('A' for Active; 'I' for Inactive)
REMARK    1  A    between atoms: C_1  and  C_2
REMARK    2  A    between atoms: C_2  and  O_3
REMARK    3  A    between atoms: C_2  and  C_20
REMARK    4  A    between atoms: O_3  and  C_4
REMARK    5  A    between atoms: N_10  and  C_11
REMARK    6  A    between atoms: C_11  and  C_12
REMARK    7  A    between atoms: C_12  and  C_13
REMARK    8  A    between atoms: C_13  and  O_15
REMARK                            x       y       z     vdW  Elec       q    Type
REMARK                         _______ _______ _______ _____ _____    ______ ____
ROOT
ATOM      1  C   UNL     1       3.439   5.847  17.798  0.00  0.00    +0.000 A 
ATOM      2  C   UNL     1       3.010   7.115  17.395  0.00  0.00    +0.000 A 
ATOM      3  C   UNL     1       2.360   7.902  18.328  0.00  0.00    +0.000 A 
ATOM      4  O   UNL     1       1.911   9.190  18.091  0.00  0.00    +0.000 OA
ATOM      5  C   UNL     1       1.406   9.567  19.341  0.00  0.00    +0.000 A 
ATOM      6  O   UNL     1       0.971  10.688  19.569  0.00  0.00    +0.000 OA
ATOM      7  N   UNL     1       1.470   8.519  20.245  0.00  0.00    +0.000 N 
ATOM      8  C   UNL     1       2.124   7.479  19.620  0.00  0.00    +0.000 A 
ATOM      9  C   UNL     1       2.552   6.249  20.065  0.00  0.00    +0.000 A 
ATOM     10  C   UNL     1       3.233   5.439  19.143  0.00  0.00    +0.000 A 
ATOM     11 CL   UNL     1       3.836   3.920  19.714  0.00  0.00    +0.000 Cl
ENDROOT
BRANCH   1  12
ATOM     12  O   UNL     1       4.074   4.951  16.979  0.00  0.00    +0.000 OA
BRANCH  12  14
ATOM     13  C   UNL     1       5.854   4.195  15.458  0.00  0.00    +0.000 C 
ATOM     14  C   UNL     1       5.196   5.372  16.185  0.00  0.00    +0.000 C 
BRANCH  14  15
ATOM     15  C   UNL     1       6.238   6.002  17.106  0.00  0.00    +0.000 A 
ATOM     16  N   UNL     1       6.658   7.253  16.815  0.00  0.00    +0.000 NA
ATOM     17  C   UNL     1       7.639   7.753  17.592  0.00  0.00    +0.000 A 
ATOM     18  C   UNL     1       8.221   7.060  18.626  0.00  0.00    +0.000 A 
ATOM     19  C   UNL     1       7.727   5.797  18.842  0.00  0.00    +0.000 A 
ATOM     20  N   UNL     1       6.748   5.246  18.105  0.00  0.00    +0.000 NA
ENDBRANCH  14  15
ENDBRANCH  12  14
ENDBRANCH   1  12
BRANCH   7  21
ATOM     21  C   UNL     1       1.132   8.602  21.652  0.00  0.00    +0.000 C 
BRANCH  21  22
ATOM     22  C   UNL     1      -0.343   8.929  21.880  0.00  0.00    +0.000 C 
BRANCH  22  23
ATOM     23  C   UNL     1      -0.519   9.855  23.050  0.00  0.00    +0.000 C 
ATOM     24  O   UNL     1      -1.376  10.721  23.138  0.00  0.00    +0.000 OA
BRANCH  23  25
ATOM     25  O   UNL     1       0.392   9.637  24.027  0.00  0.00    +0.000 OA
ATOM     26  H   UNL     1       1.255   9.310  23.699  0.00  0.00    +0.000 HD
ENDBRANCH  23  25
ENDBRANCH  22  23
ENDBRANCH  21  22
ENDBRANCH   7  21
TORSDOF 7
ENDMDL
MODEL 2
REMARK VINA RESULT:      -7.5      0.483      1.192
REMARK  Name = 
REMARK  8 active torsions:
REMARK  status: ('A' for Active; 'I' for Inactive)
REMARK    1  A    between atoms: C_1  and  C_2
REMARK    2  A    between atoms: C_2  and  O_3
REMARK    3  A    between atoms: C_2  and  C_20
REMARK    4  A    between atoms: O_3  and  C_4
REMARK    5  A    between atoms: N_10  and  C_11
REMARK    6  A    between atoms: C_11  and  C_12
REMARK    7  A    between atoms: C_12  and  C_13
REMARK    8  A    between atoms: C_13  and  O_15
REMARK                            x       y       z     vdW  Elec       q    Type
REMARK                         _______ _______ _______ _____ _____    ______ ____
ROOT
ATOM      1  C   UNL     1       3.523   5.628  17.766  0.00  0.00    +0.000 A 
ATOM      2  C   UNL     1       3.110   6.890  17.327  0.00  0.00    +0.000 A 
ATOM      3  C   UNL     1       2.458   7.705  18.233  0.00  0.00    +0.000 A 
ATOM      4  O   UNL     1       2.023   8.991  17.960  0.00  0.00    +0.000 OA
ATOM      5  C   UNL     1       1.510   9.404  19.196  0.00  0.00    +0.000 A 
ATOM      6  O   UNL     1       1.083  10.534  19.391  0.00  0.00    +0.000 OA
ATOM      7  N   UNL     1       1.555   8.378  20.126  0.00  0.00    +0.000 N 
ATOM      8  C   UNL     1       2.206   7.317  19.533  0.00  0.00    +0.000 A 
ATOM      9  C   UNL     1       2.618   6.095  20.013  0.00  0.00    +0.000 A 
ATOM     10  C   UNL     1       3.301   5.256  19.119  0.00  0.00    +0.000 A 
ATOM     11 CL   UNL     1       3.884   3.746  19.733  0.00  0.00    +0.000 Cl
ENDROOT
BRANCH   1  12
ATOM     12  O   UNL     1       4.158   4.706  16.976  0.00  0.00    +0.000 OA
BRANCH  12  14
ATOM     13  C   UNL     1       5.856   3.926  15.375  0.00  0.00    +0.000 C 
ATOM     14  C   UNL     1       5.240   5.115  16.122  0.00  0.00    +0.000 C 
BRANCH  14  15
ATOM     15  C   UNL     1       6.330   5.749  16.982  0.00  0.00    +0.000 A 
ATOM     16  N   UNL     1       6.807   5.029  18.021  0.00  0.00    +0.000 NA
ATOM     17  C   UNL     1       7.706   5.644  18.815  0.00  0.00    +0.000 A 
ATOM     18  C   UNL     1       8.133   6.936  18.625  0.00  0.00    +0.000 A 
ATOM     19  C   UNL     1       7.590   7.585  17.543  0.00  0.00    +0.000 A 
ATOM     20  N   UNL     1       6.694   7.024  16.714  0.00  0.00    +0.000 NA
ENDBRANCH  14  15
ENDBRANCH  12  14
ENDBRANCH   1  12
BRANCH   7  21
ATOM     21  C   UNL     1       1.205   8.500  21.527  0.00  0.00    +0.000 C 
BRANCH  21  22
ATOM     22  C   UNL     1      -0.283   8.777  21.735  0.00  0.00    +0.000 C 
BRANCH  22  23
ATOM     23  C   UNL     1      -0.501  10.117  22.378  0.00  0.00    +0.000 C 
ATOM     24  O   UNL     1      -0.294  10.374  23.554  0.00  0.00    +0.000 OA
BRANCH  23  25
ATOM     25  O   UNL     1      -0.968  11.041  21.506  0.00  0.00    +0.000 OA
ATOM     26  H   UNL     1      -1.478  10.662  20.761  0.00  0.00    +0.000 HD
ENDBRANCH  23  25
ENDBRANCH  22  23
ENDBRANCH  21  22
ENDBRANCH   7  21
TORSDOF 7
ENDMDL
MODEL 3
REMARK VINA RESULT:      -7.4      1.048      1.455
REMARK  Name = 
REMARK  8 active torsions:
REMARK  status: ('A' for Active; 'I' for Inactive)
REMARK    1  A    between atoms: C_1  and  C_2
REMARK    2  A    between atoms: C_2  and  O_3
REMARK    3  A    between atoms: C_2  and  C_20
REMARK    4  A    between atoms: O_3  and  C_4
REMARK    5  A    between atoms: N_10  and  C_11
REMARK    6  A    between atoms: C_11  and  C_12
REMARK    7  A    between atoms: C_12  and  C_13
REMARK    8  A    between atoms: C_13  and  O_15
REMARK                            x       y       z     vdW  Elec       q    Type
REMARK                         _______ _______ _______ _____ _____    ______ ____
ROOT
ATOM      1  C   UNL     1       2.883   6.433  18.390  0.00  0.00    +0.000 A 
ATOM      2  C   UNL     1       2.744   7.599  17.632  0.00  0.00    +0.000 A 
ATOM      3  C   UNL     1       2.177   8.701  18.243  0.00  0.00    +0.000 A 
ATOM      4  O   UNL     1       2.008   9.935  17.637  0.00  0.00    +0.000 OA
ATOM      5  C   UNL     1       1.475  10.709  18.674  0.00  0.00    +0.000 A 
ATOM      6  O   UNL     1       1.245  11.906  18.557  0.00  0.00    +0.000 OA
ATOM      7  N   UNL     1       1.254   9.946  19.808  0.00  0.00    +0.000 N 
ATOM      8  C   UNL     1       1.749   8.684  19.555  0.00  0.00    +0.000 A 
ATOM      9  C   UNL     1       1.890   7.565  20.344  0.00  0.00    +0.000 A 
ATOM     10  C   UNL     1       2.483   6.439  19.753  0.00  0.00    +0.000 A 
ATOM     11 CL   UNL     1       2.728   5.050  20.758  0.00  0.00    +0.000 Cl
ENDROOT
BRANCH   1  12
ATOM     12  O   UNL     1       3.405   5.259  17.912  0.00  0.00    +0.000 OA
BRANCH  12  14
ATOM     13  C   UNL     1       4.637   3.898  16.275  0.00  0.00    +0.000 C 
ATOM     14  C   UNL     1       4.411   5.285  16.885  0.00  0.00    +0.000 C 
BRANCH  14  15
ATOM     15  C   UNL     1       5.727   5.751  17.502  0.00  0.00    +0.000 A 
ATOM     16  N   UNL     1       6.130   5.155  18.645  0.00  0.00    +0.000 NA
ATOM     17  C   UNL     1       7.250   5.643  19.214  0.00  0.00    +0.000 A 
ATOM     18  C   UNL     1       7.969   6.696  18.703  0.00  0.00    +0.000 A 
ATOM     19  C   UNL     1       7.479   7.237  17.539  0.00  0.00    +0.000 A 
ATOM     20  N   UNL     1       6.370   6.791  16.923  0.00  0.00    +0.000 NA
ENDBRANCH  14  15
ENDBRANCH  12  14
ENDBRANCH   1  12
BRANCH   7  21
ATOM     21  C   UNL     1       0.814  10.456  21.092  0.00  0.00    +0.000 C 
BRANCH  21  22
ATOM     22  C   UNL     1      -0.549   9.901  21.504  0.00  0.00    +0.000 C 
BRANCH  22  23
ATOM     23  C   UNL     1      -0.833  10.181  22.952  0.00  0.00    +0.000 C 
ATOM     24  O   UNL     1      -1.684  10.953  23.365  0.00  0.00    +0.000 OA
BRANCH  23  25
ATOM     25  O   UNL     1      -0.030   9.477  23.784  0.00  0.00    +0.000 OA
ATOM     26  H   UNL     1      -0.152   9.694  24.731  0.00  0.00    +0.000 HD
ENDBRANCH  23  25
ENDBRANCH  22  23
ENDBRANCH  21  22
ENDBRANCH   7  21
TORSDOF 7
ENDMDL
MODEL 4
REMARK VINA RESULT:      -7.3      2.805      7.753
REMARK  Name = 
REMARK  8 active torsions:
REMARK  status: ('A' for Active; 'I' for Inactive)
REMARK    1  A    between atoms: C_1  and  C_2
REMARK    2  A    between atoms: C_2  and  O_3
REMARK    3  A    between atoms: C_2  and  C_20
REMARK    4  A    between atoms: O_3  and  C_4
REMARK    5  A    between atoms: N_10  and  C_11
REMARK    6  A    between atoms: C_11  and  C_12
REMARK    7  A    between atoms: C_12  and  C_13
REMARK    8  A    between atoms: C_13  and  O_15
REMARK                            x       y       z     vdW  Elec       q    Type
REMARK                         _______ _______ _______ _____ _____    ______ ____
ROOT
ATOM      1  C   UNL     1       1.663   7.692  19.813  0.00  0.00    +0.000 A 
ATOM      2  C   UNL     1       1.995   6.491  20.446  0.00  0.00    +0.000 A 
ATOM      3  C   UNL     1       2.926   5.675  19.831  0.00  0.00    +0.000 A 
ATOM      4  O   UNL     1       3.385   4.477  20.352  0.00  0.00    +0.000 OA
ATOM      5  C   UNL     1       4.346   4.088  19.411  0.00  0.00    +0.000 A 
ATOM      6  O   UNL     1       5.043   3.092  19.549  0.00  0.00    +0.000 OA
ATOM      7  N   UNL     1       4.385   4.967  18.341  0.00  0.00    +0.000 N 
ATOM      8  C   UNL     1       3.524   6.004  18.632  0.00  0.00    +0.000 A 
ATOM      9  C   UNL     1       3.244   7.188  17.988  0.00  0.00    +0.000 A 
ATOM     10  C   UNL     1       2.317   8.044  18.603  0.00  0.00    +0.000 A 
ATOM     11 CL   UNL     1       2.012   9.566  17.836  0.00  0.00    +0.000 Cl
ENDROOT
BRANCH   1  12
ATOM     12  O   UNL     1       0.742   8.587  20.292  0.00  0.00    +0.000 OA
BRANCH  12  14
ATOM     13  C   UNL     1       0.472   9.270  22.639  0.00  0.00    +0.000 C 
ATOM     14  C   UNL     1       1.127   9.554  21.283  0.00  0.00    +0.000 C 
BRANCH  14  15
ATOM     15  C   UNL     1       0.677  10.937  20.820  0.00  0.00    +0.000 A 
ATOM     16  N   UNL     1       1.378  12.005  21.259  0.00  0.00    +0.000 NA
ATOM     17  C   UNL     1       0.909  13.217  20.906  0.00  0.00    +0.000 A 
ATOM     18  C   UNL     1      -0.223  13.407  20.152  0.00  0.00    +0.000 A 
ATOM     19  C   UNL     1      -0.867  12.261  19.754  0.00  0.00    +0.000 A 
ATOM     20  N   UNL     1      -0.446  11.025  20.071  0.00  0.00    +0.000 NA
ENDBRANCH  14  15
ENDBRANCH  12  14
ENDBRANCH   1  12
BRANCH   7  21
ATOM     21  C   UNL     1       5.338   4.920  17.250  0.00  0.00    +0.000 C 
BRANCH  21  22
ATOM     22  C   UNL     1       6.563   5.797  17.506  0.00  0.00    +0.000 C 
BRANCH  22  23
ATOM     23  C   UNL     1       7.612   5.053  18.281  0.00  0.00    +0.000 C 
ATOM     24  O   UNL     1       7.920   5.277  19.442  0.00  0.00    +0.000 OA
BRANCH  23  25
ATOM     25  O   UNL     1       8.206   4.081  17.550  0.00  0.00    +0.000 OA
ATOM     26  H   UNL     1       8.363   3.251  18.045  0.00  0.00    +0.000 HD
ENDBRANCH  23  25
ENDBRANCH  22  23
ENDBRANCH  21  22
ENDBRANCH   7  21
TORSDOF 7
ENDMDL
MODEL 5
REMARK VINA RESULT:      -7.2      3.281      7.415
REMARK  Name = 
REMARK  8 active torsions:
REMARK  status: ('A' for Active; 'I' for Inactive)
REMARK    1  A    between atoms: C_1  and  C_2
REMARK    2  A    between atoms: C_2  and  O_3
REMARK    3  A    between atoms: C_2  and  C_20
REMARK    4  A    between atoms: O_3  and  C_4
REMARK    5  A    between atoms: N_10  and  C_11
REMARK    6  A    between atoms: C_11  and  C_12
REMARK    7  A    between atoms: C_12  and  C_13
REMARK    8  A    between atoms: C_13  and  O_15
REMARK                            x       y       z     vdW  Elec       q    Type
REMARK                         _______ _______ _______ _____ _____    ______ ____
ROOT
ATOM      1  C   UNL     1       1.450   8.887  19.676  0.00  0.00    +0.000 A 
ATOM      2  C   UNL     1       2.118   8.361  18.566  0.00  0.00    +0.000 A 
ATOM      3  C   UNL     1       2.546   7.049  18.635  0.00  0.00    +0.000 A 
ATOM      4  O   UNL     1       3.186   6.377  17.607  0.00  0.00    +0.000 OA
ATOM      5  C   UNL     1       3.336   5.090  18.136  0.00  0.00    +0.000 A 
ATOM      6  O   UNL     1       3.807   4.160  17.494  0.00  0.00    +0.000 OA
ATOM      7  N   UNL     1       2.891   5.031  19.446  0.00  0.00    +0.000 N 
ATOM      8  C   UNL     1       2.340   6.258  19.747  0.00  0.00    +0.000 A 
ATOM      9  C   UNL     1       1.664   6.728  20.850  0.00  0.00    +0.000 A 
ATOM     10  C   UNL     1       1.201   8.052  20.797  0.00  0.00    +0.000 A 
ATOM     11 CL   UNL     1       0.290   8.630  22.152  0.00  0.00    +0.000 Cl
ENDROOT
BRANCH   1  12
ATOM     12  O   UNL     1       0.990  10.176  19.760  0.00  0.00    +0.000 OA
BRANCH  12  14
ATOM     13  C   UNL     1       1.171  12.395  18.715  0.00  0.00    +0.000 C 
ATOM     14  C   UNL     1       0.744  10.931  18.562  0.00  0.00    +0.000 C 
BRANCH  14  15
ATOM     15  C   UNL     1      -0.752  10.902  18.264  0.00  0.00    +0.000 A 
ATOM     16  N   UNL     1      -1.534  11.809  18.890  0.00  0.00    +0.000 NA
ATOM     17  C   UNL     1      -2.861  11.707  18.676  0.00  0.00    +0.000 A 
ATOM     18  C   UNL     1      -3.434  10.744  17.882  0.00  0.00    +0.000 A 
ATOM     19  C   UNL     1      -2.557   9.868  17.290  0.00  0.00    +0.000 A 
ATOM     20  N   UNL     1      -1.225   9.921  17.462  0.00  0.00    +0.000 NA
ENDBRANCH  14  15
ENDBRANCH  12  14
ENDBRANCH   1  12
BRANCH   7  21
ATOM     21  C   UNL     1       2.803   3.828  20.250  0.00  0.00    +0.000 C 
BRANCH  21  22
ATOM     22  C   UNL     1       1.405   3.210  20.225  0.00  0.00    +0.000 C 
BRANCH  22  23
ATOM     23  C   UNL     1       1.233   2.304  19.039  0.00  0.00    +0.000 C 
ATOM     24  O   UNL     1       0.189   2.140  18.427  0.00  0.00    +0.000 OA
BRANCH  23  25
ATOM     25  O   UNL     1       2.377   1.663  18.705  0.00  0.00    +0.000 OA
ATOM     26  H   UNL     1       2.991   1.529  19.456  0.00  0.00    +0.000 HD
ENDBRANCH  23  25
ENDBRANCH  22  23
ENDBRANCH  21  22
ENDBRANCH   7  21
TORSDOF 7
ENDMDL
MODEL 6
REMARK VINA RESULT:      -7.2      3.337      7.608
REMARK  Name = 
REMARK  8 active torsions:
REMARK  status: ('A' for Active; 'I' for Inactive)
REMARK    1  A    between atoms: C_1  and  C_2
REMARK    2  A    between atoms: C_2  and  O_3
REMARK    3  A    between atoms: C_2  and  C_20
REMARK    4  A    between atoms: O_3  and  C_4
REMARK    5  A    between atoms: N_10  and  C_11
REMARK    6  A    between atoms: C_11  and  C_12
REMARK    7  A    between atoms: C_12  and  C_13
REMARK    8  A    between atoms: C_13  and  O_15
REMARK                            x       y       z     vdW  Elec       q    Type
REMARK                         _______ _______ _______ _____ _____    ______ ____
ROOT
ATOM      1  C   UNL     1       1.060   9.436  19.741  0.00  0.00    +0.000 A 
ATOM      2  C   UNL     1       1.820   9.041  18.636  0.00  0.00    +0.000 A 
ATOM      3  C   UNL     1       2.385   7.780  18.661  0.00  0.00    +0.000 A 
ATOM      4  O   UNL     1       3.130   7.234  17.628  0.00  0.00    +0.000 OA
ATOM      5  C   UNL     1       3.402   5.945  18.102  0.00  0.00    +0.000 A 
ATOM      6  O   UNL     1       3.993   5.105  17.437  0.00  0.00    +0.000 OA
ATOM      7  N   UNL     1       2.921   5.772  19.390  0.00  0.00    +0.000 N 
ATOM      8  C   UNL     1       2.229   6.917  19.725  0.00  0.00    +0.000 A 
ATOM      9  C   UNL     1       1.468   7.255  20.821  0.00  0.00    +0.000 A 
ATOM     10  C   UNL     1       0.865   8.522  20.812  0.00  0.00    +0.000 A 
ATOM     11 CL   UNL     1      -0.149   8.929  22.155  0.00  0.00    +0.000 Cl
ENDROOT
BRANCH   1  12
ATOM     12  O   UNL     1       0.460  10.661  19.868  0.00  0.00    +0.000 OA
BRANCH  12  14
ATOM     13  C   UNL     1       0.179  12.916  18.924  0.00  0.00    +0.000 C 
ATOM     14  C   UNL     1       0.088  11.403  18.694  0.00  0.00    +0.000 C 
BRANCH  14  15
ATOM     15  C   UNL     1      -1.358  11.065  18.340  0.00  0.00    +0.000 A 
ATOM     16  N   UNL     1      -1.570  10.060  17.462  0.00  0.00    +0.000 NA
ATOM     17  C   UNL     1      -2.849   9.838  17.101  0.00  0.00    +0.000 A 
ATOM     18  C   UNL     1      -3.911  10.576  17.563  0.00  0.00    +0.000 A 
ATOM     19  C   UNL     1      -3.594  11.576  18.449  0.00  0.00    +0.000 A 
ATOM     20  N   UNL     1      -2.340  11.842  18.851  0.00  0.00    +0.000 NA
ENDBRANCH  14  15
ENDBRANCH  12  14
ENDBRANCH   1  12
BRANCH   7  21
ATOM     21  C   UNL     1       2.937   4.527  20.132  0.00  0.00    +0.000 C 
BRANCH  21  22
ATOM     22  C   UNL     1       1.593   3.802  20.083  0.00  0.00    +0.000 C 
BRANCH  22  23
ATOM     23  C   UNL     1       1.464   2.981  18.832  0.00  0.00    +0.000 C 
ATOM     24  O   UNL     1       1.079   3.403  17.752  0.00  0.00    +0.000 OA
BRANCH  23  25
ATOM     25  O   UNL     1       1.820   1.689  19.019  0.00  0.00    +0.000 OA
ATOM     26  H   UNL     1       2.155   1.496  19.918  0.00  0.00    +0.000 HD
ENDBRANCH  23  25
ENDBRANCH  22  23
ENDBRANCH  21  22
ENDBRANCH   7  21
TORSDOF 7
ENDMDL
MODEL 7
REMARK VINA RESULT:      -7.2      2.812      7.863
REMARK  Name = 
REMARK  8 active torsions:
REMARK  status: ('A' for Active; 'I' for Inactive)
REMARK    1  A    between atoms: C_1  and  C_2
REMARK    2  A    between atoms: C_2  and  O_3
REMARK    3  A    between atoms: C_2  and  C_20
REMARK    4  A    between atoms: O_3  and  C_4
REMARK    5  A    between atoms: N_10  and  C_11
REMARK    6  A    between atoms: C_11  and  C_12
REMARK    7  A    between atoms: C_12  and  C_13
REMARK    8  A    between atoms: C_13  and  O_15
REMARK                            x       y       z     vdW  Elec       q    Type
REMARK                         _______ _______ _______ _____ _____    ______ ____
ROOT
ATOM      1  C   UNL     1       1.585   7.702  19.865  0.00  0.00    +0.000 A 
ATOM      2  C   UNL     1       1.845   6.514  20.553  0.00  0.00    +0.000 A 
ATOM      3  C   UNL     1       2.705   5.605  19.967  0.00  0.00    +0.000 A 
ATOM      4  O   UNL     1       3.089   4.404  20.540  0.00  0.00    +0.000 OA
ATOM      5  C   UNL     1       4.002   3.903  19.606  0.00  0.00    +0.000 A 
ATOM      6  O   UNL     1       4.631   2.867  19.784  0.00  0.00    +0.000 OA
ATOM      7  N   UNL     1       4.083   4.722  18.493  0.00  0.00    +0.000 N 
ATOM      8  C   UNL     1       3.301   5.830  18.743  0.00  0.00    +0.000 A 
ATOM      9  C   UNL     1       3.093   6.998  18.044  0.00  0.00    +0.000 A 
ATOM     10  C   UNL     1       2.240   7.946  18.628  0.00  0.00    +0.000 A 
ATOM     11 CL   UNL     1       2.027   9.446  17.790  0.00  0.00    +0.000 Cl
ENDROOT
BRANCH   1  12
ATOM     12  O   UNL     1       0.738   8.683  20.311  0.00  0.00    +0.000 OA
BRANCH  12  14
ATOM     13  C   UNL     1       0.591   9.385  22.664  0.00  0.00    +0.000 C 
ATOM     14  C   UNL     1       1.195   9.642  21.280  0.00  0.00    +0.000 C 
BRANCH  14  15
ATOM     15  C   UNL     1       0.768  11.036  20.828  0.00  0.00    +0.000 A 
ATOM     16  N   UNL     1      -0.164  11.121  19.854  0.00  0.00    +0.000 NA
ATOM     17  C   UNL     1      -0.462  12.360  19.414  0.00  0.00    +0.000 A 
ATOM     18  C   UNL     1       0.134  13.502  19.891  0.00  0.00    +0.000 A 
ATOM     19  C   UNL     1       1.069  13.312  20.879  0.00  0.00    +0.000 A 
ATOM     20  N   UNL     1       1.404  12.103  21.362  0.00  0.00    +0.000 NA
ENDBRANCH  14  15
ENDBRANCH  12  14
ENDBRANCH   1  12
BRANCH   7  21
ATOM     21  C   UNL     1       5.009   4.554  17.391  0.00  0.00    +0.000 C 
BRANCH  21  22
ATOM     22  C   UNL     1       6.296   5.356  17.582  0.00  0.00    +0.000 C 
BRANCH  22  23
ATOM     23  C   UNL     1       7.445   4.721  16.853  0.00  0.00    +0.000 C 
ATOM     24  O   UNL     1       7.641   4.795  15.649  0.00  0.00    +0.000 OA
BRANCH  23  25
ATOM     25  O   UNL     1       8.268   4.034  17.679  0.00  0.00    +0.000 OA
ATOM     26  H   UNL     1       8.954   4.587  18.105  0.00  0.00    +0.000 HD
ENDBRANCH  23  25
ENDBRANCH  22  23
ENDBRANCH  21  22
ENDBRANCH   7  21
TORSDOF 7
ENDMDL
MODEL 8
REMARK VINA RESULT:      -7.1      2.890      8.091
REMARK  Name = 
REMARK  8 active torsions:
REMARK  status: ('A' for Active; 'I' for Inactive)
REMARK    1  A    between atoms: C_1  and  C_2
REMARK    2  A    between atoms: C_2  and  O_3
REMARK    3  A    between atoms: C_2  and  C_20
REMARK    4  A    between atoms: O_3  and  C_4
REMARK    5  A    between atoms: N_10  and  C_11
REMARK    6  A    between atoms: C_11  and  C_12
REMARK    7  A    between atoms: C_12  and  C_13
REMARK    8  A    between atoms: C_13  and  O_15
REMARK                            x       y       z     vdW  Elec       q    Type
REMARK                         _______ _______ _______ _____ _____    ______ ____
ROOT
ATOM      1  C   UNL     1       1.299   8.654  19.882  0.00  0.00    +0.000 A 
ATOM      2  C   UNL     1       1.545   7.445  20.539  0.00  0.00    +0.000 A 
ATOM      3  C   UNL     1       2.345   6.516  19.901  0.00  0.00    +0.000 A 
ATOM      4  O   UNL     1       2.710   5.293  20.439  0.00  0.00    +0.000 OA
ATOM      5  C   UNL     1       3.563   4.775  19.457  0.00  0.00    +0.000 A 
ATOM      6  O   UNL     1       4.160   3.715  19.591  0.00  0.00    +0.000 OA
ATOM      7  N   UNL     1       3.624   5.610  18.354  0.00  0.00    +0.000 N 
ATOM      8  C   UNL     1       2.895   6.741  18.656  0.00  0.00    +0.000 A 
ATOM      9  C   UNL     1       2.700   7.927  17.985  0.00  0.00    +0.000 A 
ATOM     10  C   UNL     1       1.908   8.895  18.621  0.00  0.00    +0.000 A 
ATOM     11 CL   UNL     1       1.713  10.416  17.816  0.00  0.00    +0.000 Cl
ENDROOT
BRANCH   1  12
ATOM     12  O   UNL     1       0.509   9.656  20.380  0.00  0.00    +0.000 OA
BRANCH  12  14
ATOM     13  C   UNL     1      -0.446   9.061  22.568  0.00  0.00    +0.000 C 
ATOM     14  C   UNL     1       0.525   9.953  21.787  0.00  0.00    +0.000 C 
BRANCH  14  15
ATOM     15  C   UNL     1       0.099  11.405  21.986  0.00  0.00    +0.000 A 
ATOM     16  N   UNL     1       0.781  12.357  21.312  0.00  0.00    +0.000 NA
ATOM     17  C   UNL     1       0.441  13.635  21.571  0.00  0.00    +0.000 A 
ATOM     18  C   UNL     1      -0.530  13.999  22.472  0.00  0.00    +0.000 A 
ATOM     19  C   UNL     1      -1.166  12.960  23.107  0.00  0.00    +0.000 A 
ATOM     20  N   UNL     1      -0.875  11.666  22.888  0.00  0.00    +0.000 NA
ENDBRANCH  14  15
ENDBRANCH  12  14
ENDBRANCH   1  12
BRANCH   7  21
ATOM     21  C   UNL     1       4.495   5.428  17.210  0.00  0.00    +0.000 C 
BRANCH  21  22
ATOM     22  C   UNL     1       5.902   5.972  17.454  0.00  0.00    +0.000 C 
BRANCH  22  23
ATOM     23  C   UNL     1       6.923   4.870  17.424  0.00  0.00    +0.000 C 
ATOM     24  O   UNL     1       7.767   4.718  16.554  0.00  0.00    +0.000 OA
BRANCH  23  25
ATOM     25  O   UNL     1       6.814   4.033  18.482  0.00  0.00    +0.000 OA
ATOM     26  H   UNL     1       6.206   3.281  18.331  0.00  0.00    +0.000 HD
ENDBRANCH  23  25
ENDBRANCH  22  23
ENDBRANCH  21  22
ENDBRANCH   7  21
TORSDOF 7
ENDMDL
MODEL 9
REMARK VINA RESULT:      -7.1      2.817      8.030
REMARK  Name = 
REMARK  8 active torsions:
REMARK  status: ('A' for Active; 'I' for Inactive)
REMARK    1  A    between atoms: C_1  and  C_2
REMARK    2  A    between atoms: C_2  and  O_3
REMARK    3  A    between atoms: C_2  and  C_20
REMARK    4  A    between atoms: O_3  and  C_4
REMARK    5  A    between atoms: N_10  and  C_11
REMARK    6  A    between atoms: C_11  and  C_12
REMARK    7  A    between atoms: C_12  and  C_13
REMARK    8  A    between atoms: C_13  and  O_15
REMARK                            x       y       z     vdW  Elec       q    Type
REMARK                         _______ _______ _______ _____ _____    ______ ____
ROOT
ATOM      1  C   UNL     1       1.450   8.194  19.825  0.00  0.00    +0.000 A 
ATOM      2  C   UNL     1       1.682   6.979  20.476  0.00  0.00    +0.000 A 
ATOM      3  C   UNL     1       2.537   6.078  19.871  0.00  0.00    +0.000 A 
ATOM      4  O   UNL     1       2.894   4.852  20.409  0.00  0.00    +0.000 OA
ATOM      5  C   UNL     1       3.815   4.369  19.472  0.00  0.00    +0.000 A 
ATOM      6  O   UNL     1       4.425   3.319  19.624  0.00  0.00    +0.000 OA
ATOM      7  N   UNL     1       3.924   5.224  18.388  0.00  0.00    +0.000 N 
ATOM      8  C   UNL     1       3.155   6.335  18.665  0.00  0.00    +0.000 A 
ATOM      9  C   UNL     1       2.975   7.528  18.003  0.00  0.00    +0.000 A 
ATOM     10  C   UNL     1       2.127   8.469  18.606  0.00  0.00    +0.000 A 
ATOM     11 CL   UNL     1       1.948  10.000  17.816  0.00  0.00    +0.000 Cl
ENDROOT
BRANCH   1  12
ATOM     12  O   UNL     1       0.611   9.172  20.291  0.00  0.00    +0.000 OA
BRANCH  12  14
ATOM     13  C   UNL     1      -0.272   8.998  22.581  0.00  0.00    +0.000 C 
ATOM     14  C   UNL     1       0.745   9.651  21.640  0.00  0.00    +0.000 C 
BRANCH  14  15
ATOM     15  C   UNL     1       0.500  11.158  21.650  0.00  0.00    +0.000 A 
ATOM     16  N   UNL     1      -0.353  11.648  22.576  0.00  0.00    +0.000 NA
ATOM     17  C   UNL     1      -0.618  12.968  22.509  0.00  0.00    +0.000 A 
ATOM     18  C   UNL     1      -0.083  13.806  21.562  0.00  0.00    +0.000 A 
ATOM     19  C   UNL     1       0.772  13.214  20.664  0.00  0.00    +0.000 A 
ATOM     20  N   UNL     1       1.078  11.906  20.682  0.00  0.00    +0.000 NA
ENDBRANCH  14  15
ENDBRANCH  12  14
ENDBRANCH   1  12
BRANCH   7  21
ATOM     21  C   UNL     1       4.864   5.079  17.295  0.00  0.00    +0.000 C 
BRANCH  21  22
ATOM     22  C   UNL     1       6.238   5.662  17.625  0.00  0.00    +0.000 C 
BRANCH  22  23
ATOM     23  C   UNL     1       7.289   5.138  16.690  0.00  0.00    +0.000 C 
ATOM     24  O   UNL     1       7.473   5.529  15.547  0.00  0.00    +0.000 OA
BRANCH  23  25
ATOM     25  O   UNL     1       8.036   4.156  17.247  0.00  0.00    +0.000 OA
ATOM     26  H   UNL     1       8.224   4.291  18.198  0.00  0.00    +0.000 HD
ENDBRANCH  23  25
ENDBRANCH  22  23
ENDBRANCH  21  22
ENDBRANCH   7  21
TORSDOF 7
ENDMDL
