MODEL 1
REMARK VINA RESULT:      -7.5      0.000      0.000
REMARK  Name = 
REMARK  7 active torsions:
REMARK  status: ('A' for Active; 'I' for Inactive)
REMARK    1  A    between atoms: C_1  and  C_2
REMARK    2  A    between atoms: C_3  and  S_4
REMARK    3  A    between atoms: S_4  and  C_7
REMARK    4  A    between atoms: C_10  and  C_11
REMARK    5  A    between atoms: C_11  and  C_12
REMARK    6  A    between atoms: C_11  and  C_13
REMARK    7  A    between atoms: C_11  and  C_14
REMARK                            x       y       z     vdW  Elec       q    Type
REMARK                         _______ _______ _______ _____ _____    ______ ____
ROOT
ATOM      1  C   UNL     1       5.341   4.510  17.383  0.00  0.00    +0.000 A 
ATOM      2  C   UNL     1       4.187   3.928  16.866  0.00  0.00    +0.000 A 
ATOM      3  C   UNL     1       3.107   3.666  17.713  0.00  0.00    +0.000 A 
ATOM      4  C   UNL     1       3.159   3.961  19.089  0.00  0.00    +0.000 A 
ATOM      5  C   UNL     1       4.341   4.553  19.580  0.00  0.00    +0.000 A 
ATOM      6  C   UNL     1       5.429   4.819  18.739  0.00  0.00    +0.000 A 
ENDROOT
BRANCH   4   7
ATOM      7  C   UNL     1       1.999   3.616  20.045  0.00  0.00    +0.000 C 
ATOM      8  C   UNL     1       2.451   2.788  21.270  0.00  0.00    +0.000 C 
ATOM      9  C   UNL     1       1.362   4.918  20.579  0.00  0.00    +0.000 C 
ATOM     10  C   UNL     1       0.911   2.798  19.318  0.00  0.00    +0.000 C 
ENDBRANCH   4   7
BRANCH   1  11
ATOM     11  S   UNL     1       6.726   4.802  16.303  0.00  0.00    +0.000 S 
ATOM     12  O   UNL     1       7.912   4.333  16.994  0.00  0.00    +0.000 OA
ATOM     13  O   UNL     1       6.631   6.179  15.850  0.00  0.00    +0.000 OA
BRANCH  11  16
ATOM     14  C   UNL     1       6.031   3.423  12.522  0.00  0.00    +0.000 C 
ATOM     15  C   UNL     1       6.329   4.249  13.728  0.00  0.00    +0.000 C 
ATOM     16  C   UNL     1       6.378   3.741  14.970  0.00  0.00    +0.000 C 
ENDBRANCH  11  16
ENDBRANCH   1  11
TORSDOF 3
ENDMDL
MODEL 2
REMARK VINA RESULT:      -7.5      0.139      1.095
REMARK  Name = 
REMARK  7 active torsions:
REMARK  status: ('A' for Active; 'I' for Inactive)
REMARK    1  A    between atoms: C_1  and  C_2
REMARK    2  A    between atoms: C_3  and  S_4
REMARK    3  A    between atoms: S_4  and  C_7
REMARK    4  A    between atoms: C_10  and  C_11
REMARK    5  A    between atoms: C_11  and  C_12
REMARK    6  A    between atoms: C_11  and  C_13
REMARK    7  A    between atoms: C_11  and  C_14
REMARK                            x       y       z     vdW  Elec       q    Type
REMARK                         _______ _______ _______ _____ _____    ______ ____
ROOT
ATOM      1  C   UNL     1       5.377   4.533  17.447  0.00  0.00    +0.000 A 
ATOM      2  C   UNL     1       4.317   3.764  16.972  0.00  0.00    +0.000 A 
ATOM      3  C   UNL     1       3.225   3.506  17.805  0.00  0.00    +0.000 A 
ATOM      4  C   UNL     1       3.172   3.992  19.125  0.00  0.00    +0.000 A 
ATOM      5  C   UNL     1       4.259   4.770  19.573  0.00  0.00    +0.000 A 
ATOM      6  C   UNL     1       5.359   5.033  18.747  0.00  0.00    +0.000 A 
ENDROOT
BRANCH   4   7
ATOM      7  C   UNL     1       2.002   3.658  20.073  0.00  0.00    +0.000 C 
ATOM      8  C   UNL     1       1.286   4.917  20.616  0.00  0.00    +0.000 C 
ATOM      9  C   UNL     1       0.947   2.818  19.321  0.00  0.00    +0.000 C 
ATOM     10  C   UNL     1       2.495   2.853  21.294  0.00  0.00    +0.000 C 
ENDBRANCH   4   7
BRANCH   1  11
ATOM     11  S   UNL     1       6.782   4.821  16.392  0.00  0.00    +0.000 S 
ATOM     12  O   UNL     1       7.953   4.337  17.100  0.00  0.00    +0.000 OA
ATOM     13  O   UNL     1       6.706   6.203  15.949  0.00  0.00    +0.000 OA
BRANCH  11  16
ATOM     14  C   UNL     1       6.074   3.489  12.598  0.00  0.00    +0.000 C 
ATOM     15  C   UNL     1       6.364   4.302  13.814  0.00  0.00    +0.000 C 
ATOM     16  C   UNL     1       6.448   3.774  15.046  0.00  0.00    +0.000 C 
ENDBRANCH  11  16
ENDBRANCH   1  11
TORSDOF 3
ENDMDL
MODEL 3
REMARK VINA RESULT:      -7.5      0.356      1.190
REMARK  Name = 
REMARK  7 active torsions:
REMARK  status: ('A' for Active; 'I' for Inactive)
REMARK    1  A    between atoms: C_1  and  C_2
REMARK    2  A    between atoms: C_3  and  S_4
REMARK    3  A    between atoms: S_4  and  C_7
REMARK    4  A    between atoms: C_10  and  C_11
REMARK    5  A    between atoms: C_11  and  C_12
REMARK    6  A    between atoms: C_11  and  C_13
REMARK    7  A    between atoms: C_11  and  C_14
REMARK                            x       y       z     vdW  Elec       q    Type
REMARK                         _______ _______ _______ _____ _____    ______ ____
ROOT
ATOM      1  C   UNL     1       5.333   4.532  17.432  0.00  0.00    +0.000 A 
ATOM      2  C   UNL     1       5.204   5.324  18.570  0.00  0.00    +0.000 A 
ATOM      3  C   UNL     1       4.168   5.069  19.473  0.00  0.00    +0.000 A 
ATOM      4  C   UNL     1       3.235   4.038  19.256  0.00  0.00    +0.000 A 
ATOM      5  C   UNL     1       3.397   3.252  18.096  0.00  0.00    +0.000 A 
ATOM      6  C   UNL     1       4.430   3.499  17.184  0.00  0.00    +0.000 A 
ENDROOT
BRANCH   4   7
ATOM      7  C   UNL     1       2.051   3.791  20.212  0.00  0.00    +0.000 C 
ATOM      8  C   UNL     1       2.448   2.986  21.471  0.00  0.00    +0.000 C 
ATOM      9  C   UNL     1       1.480   5.143  20.693  0.00  0.00    +0.000 C 
ATOM     10  C   UNL     1       0.927   3.004  19.505  0.00  0.00    +0.000 C 
ENDBRANCH   4   7
BRANCH   1  11
ATOM     11  S   UNL     1       6.631   4.890  16.268  0.00  0.00    +0.000 S 
ATOM     12  O   UNL     1       7.864   4.376  16.833  0.00  0.00    +0.000 OA
ATOM     13  O   UNL     1       6.509   6.293  15.911  0.00  0.00    +0.000 OA
BRANCH  11  16
ATOM     14  C   UNL     1       6.255   3.502  12.445  0.00  0.00    +0.000 C 
ATOM     15  C   UNL     1       6.600   4.267  13.678  0.00  0.00    +0.000 C 
ATOM     16  C   UNL     1       6.173   3.917  14.902  0.00  0.00    +0.000 C 
ENDBRANCH  11  16
ENDBRANCH   1  11
TORSDOF 3
ENDMDL
MODEL 4
REMARK VINA RESULT:      -7.5      0.344      1.613
REMARK  Name = 
REMARK  7 active torsions:
REMARK  status: ('A' for Active; 'I' for Inactive)
REMARK    1  A    between atoms: C_1  and  C_2
REMARK    2  A    between atoms: C_3  and  S_4
REMARK    3  A    between atoms: S_4  and  C_7
REMARK    4  A    between atoms: C_10  and  C_11
REMARK    5  A    between atoms: C_11  and  C_12
REMARK    6  A    between atoms: C_11  and  C_13
REMARK    7  A    between atoms: C_11  and  C_14
REMARK                            x       y       z     vdW  Elec       q    Type
REMARK                         _______ _______ _______ _____ _____    ______ ____
ROOT
ATOM      1  C   UNL     1       5.392   4.515  17.523  0.00  0.00    +0.000 A 
ATOM      2  C   UNL     1       5.246   5.305  18.660  0.00  0.00    +0.000 A 
ATOM      3  C   UNL     1       4.174   5.074  19.528  0.00  0.00    +0.000 A 
ATOM      4  C   UNL     1       3.223   4.068  19.275  0.00  0.00    +0.000 A 
ATOM      5  C   UNL     1       3.402   3.284  18.117  0.00  0.00    +0.000 A 
ATOM      6  C   UNL     1       4.471   3.507  17.241  0.00  0.00    +0.000 A 
ENDROOT
BRANCH   4   7
ATOM      7  C   UNL     1       2.001   3.849  20.190  0.00  0.00    +0.000 C 
ATOM      8  C   UNL     1       0.846   3.100  19.486  0.00  0.00    +0.000 C 
ATOM      9  C   UNL     1       2.415   3.007  21.417  0.00  0.00    +0.000 C 
ATOM     10  C   UNL     1       1.435   5.196  20.685  0.00  0.00    +0.000 C 
ENDBRANCH   4   7
BRANCH   1  11
ATOM     11  S   UNL     1       6.736   4.843  16.404  0.00  0.00    +0.000 S 
ATOM     12  O   UNL     1       7.950   4.374  17.046  0.00  0.00    +0.000 OA
ATOM     13  O   UNL     1       6.611   6.227  15.981  0.00  0.00    +0.000 OA
BRANCH  11  16
ATOM     14  C   UNL     1       6.106   3.487  12.604  0.00  0.00    +0.000 C 
ATOM     15  C   UNL     1       6.421   4.296  13.817  0.00  0.00    +0.000 C 
ATOM     16  C   UNL     1       6.356   3.803  15.064  0.00  0.00    +0.000 C 
ENDBRANCH  11  16
ENDBRANCH   1  11
TORSDOF 3
ENDMDL
MODEL 5
REMARK VINA RESULT:      -7.5      1.845      3.056
REMARK  Name = 
REMARK  7 active torsions:
REMARK  status: ('A' for Active; 'I' for Inactive)
REMARK    1  A    between atoms: C_1  and  C_2
REMARK    2  A    between atoms: C_3  and  S_4
REMARK    3  A    between atoms: S_4  and  C_7
REMARK    4  A    between atoms: C_10  and  C_11
REMARK    5  A    between atoms: C_11  and  C_12
REMARK    6  A    between atoms: C_11  and  C_13
REMARK    7  A    between atoms: C_11  and  C_14
REMARK                            x       y       z     vdW  Elec       q    Type
REMARK                         _______ _______ _______ _____ _____    ______ ____
ROOT
ATOM      1  C   UNL     1       5.448   4.921  17.702  0.00  0.00    +0.000 A 
ATOM      2  C   UNL     1       4.542   4.099  17.038  0.00  0.00    +0.000 A 
ATOM      3  C   UNL     1       3.393   3.660  17.703  0.00  0.00    +0.000 A 
ATOM      4  C   UNL     1       3.132   4.016  19.039  0.00  0.00    +0.000 A 
ATOM      5  C   UNL     1       4.068   4.853  19.681  0.00  0.00    +0.000 A 
ATOM      6  C   UNL     1       5.222   5.297  19.025  0.00  0.00    +0.000 A 
ENDROOT
BRANCH   4   7
ATOM      7  C   UNL     1       1.901   3.485  19.802  0.00  0.00    +0.000 C 
ATOM      8  C   UNL     1       0.986   2.596  18.928  0.00  0.00    +0.000 C 
ATOM      9  C   UNL     1       2.364   2.629  21.002  0.00  0.00    +0.000 C 
ATOM     10  C   UNL     1       1.036   4.648  20.330  0.00  0.00    +0.000 C 
ENDBRANCH   4   7
BRANCH   1  11
ATOM     11  S   UNL     1       6.928   5.441  16.860  0.00  0.00    +0.000 S 
ATOM     12  O   UNL     1       6.519   6.004  15.587  0.00  0.00    +0.000 OA
ATOM     13  O   UNL     1       7.861   4.329  16.911  0.00  0.00    +0.000 OA
BRANCH  11  16
ATOM     14  C   UNL     1       8.243   9.079  18.168  0.00  0.00    +0.000 C 
ATOM     15  C   UNL     1       7.739   7.927  17.366  0.00  0.00    +0.000 C 
ATOM     16  C   UNL     1       7.506   6.714  17.893  0.00  0.00    +0.000 C 
ENDBRANCH  11  16
ENDBRANCH   1  11
TORSDOF 3
ENDMDL
MODEL 6
REMARK VINA RESULT:      -7.4      0.499      1.676
REMARK  Name = 
REMARK  7 active torsions:
REMARK  status: ('A' for Active; 'I' for Inactive)
REMARK    1  A    between atoms: C_1  and  C_2
REMARK    2  A    between atoms: C_3  and  S_4
REMARK    3  A    between atoms: S_4  and  C_7
REMARK    4  A    between atoms: C_10  and  C_11
REMARK    5  A    between atoms: C_11  and  C_12
REMARK    6  A    between atoms: C_11  and  C_13
REMARK    7  A    between atoms: C_11  and  C_14
REMARK                            x       y       z     vdW  Elec       q    Type
REMARK                         _______ _______ _______ _____ _____    ______ ____
ROOT
ATOM      1  C   UNL     1       5.339   4.760  17.417  0.00  0.00    +0.000 A 
ATOM      2  C   UNL     1       5.230   5.339  18.679  0.00  0.00    +0.000 A 
ATOM      3  C   UNL     1       4.189   4.954  19.528  0.00  0.00    +0.000 A 
ATOM      4  C   UNL     1       3.231   4.000  19.135  0.00  0.00    +0.000 A 
ATOM      5  C   UNL     1       3.372   3.429  17.854  0.00  0.00    +0.000 A 
ATOM      6  C   UNL     1       4.410   3.809  16.995  0.00  0.00    +0.000 A 
ENDROOT
BRANCH   4   7
ATOM      7  C   UNL     1       2.041   3.616  20.039  0.00  0.00    +0.000 C 
ATOM      8  C   UNL     1       1.273   4.843  20.581  0.00  0.00    +0.000 C 
ATOM      9  C   UNL     1       1.035   2.761  19.237  0.00  0.00    +0.000 C 
ATOM     10  C   UNL     1       2.517   2.800  21.259  0.00  0.00    +0.000 C 
ENDBRANCH   4   7
BRANCH   1  11
ATOM     11  S   UNL     1       6.643   5.287  16.328  0.00  0.00    +0.000 S 
ATOM     12  O   UNL     1       7.775   4.409  16.561  0.00  0.00    +0.000 OA
ATOM     13  O   UNL     1       6.778   6.725  16.488  0.00  0.00    +0.000 OA
BRANCH  11  16
ATOM     14  C   UNL     1       5.947   3.563  12.692  0.00  0.00    +0.000 C 
ATOM     15  C   UNL     1       6.455   3.924  14.048  0.00  0.00    +0.000 C 
ATOM     16  C   UNL     1       5.968   4.952  14.762  0.00  0.00    +0.000 C 
ENDBRANCH  11  16
ENDBRANCH   1  11
TORSDOF 3
ENDMDL
MODEL 7
REMARK VINA RESULT:      -7.3      1.869      3.105
REMARK  Name = 
REMARK  7 active torsions:
REMARK  status: ('A' for Active; 'I' for Inactive)
REMARK    1  A    between atoms: C_1  and  C_2
REMARK    2  A    between atoms: C_3  and  S_4
REMARK    3  A    between atoms: S_4  and  C_7
REMARK    4  A    between atoms: C_10  and  C_11
REMARK    5  A    between atoms: C_11  and  C_12
REMARK    6  A    between atoms: C_11  and  C_13
REMARK    7  A    between atoms: C_11  and  C_14
REMARK                            x       y       z     vdW  Elec       q    Type
REMARK                         _______ _______ _______ _____ _____    ______ ____
ROOT
ATOM      1  C   UNL     1       5.490   4.944  17.703  0.00  0.00    +0.000 A 
ATOM      2  C   UNL     1       4.406   4.446  16.985  0.00  0.00    +0.000 A 
ATOM      3  C   UNL     1       3.285   3.970  17.669  0.00  0.00    +0.000 A 
ATOM      4  C   UNL     1       3.225   3.964  19.076  0.00  0.00    +0.000 A 
ATOM      5  C   UNL     1       4.338   4.478  19.773  0.00  0.00    +0.000 A 
ATOM      6  C   UNL     1       5.466   4.957  19.097  0.00  0.00    +0.000 A 
ENDROOT
BRANCH   4   7
ATOM      7  C   UNL     1       2.020   3.381  19.841  0.00  0.00    +0.000 C 
ATOM      8  C   UNL     1       0.957   4.446  20.196  0.00  0.00    +0.000 C 
ATOM      9  C   UNL     1       1.325   2.307  18.976  0.00  0.00    +0.000 C 
ATOM     10  C   UNL     1       2.472   2.729  21.165  0.00  0.00    +0.000 C 
ENDBRANCH   4   7
BRANCH   1  11
ATOM     11  S   UNL     1       6.930   5.510  16.824  0.00  0.00    +0.000 S 
ATOM     12  O   UNL     1       6.464   6.127  15.596  0.00  0.00    +0.000 OA
ATOM     13  O   UNL     1       7.869   4.402  16.784  0.00  0.00    +0.000 OA
BRANCH  11  16
ATOM     14  C   UNL     1       8.294   9.091  18.235  0.00  0.00    +0.000 C 
ATOM     15  C   UNL     1       7.760   7.973  17.404  0.00  0.00    +0.000 C 
ATOM     16  C   UNL     1       7.547   6.739  17.887  0.00  0.00    +0.000 C 
ENDBRANCH  11  16
ENDBRANCH   1  11
TORSDOF 3
ENDMDL
MODEL 8
REMARK VINA RESULT:      -7.3      0.718      1.286
REMARK  Name = 
REMARK  7 active torsions:
REMARK  status: ('A' for Active; 'I' for Inactive)
REMARK    1  A    between atoms: C_1  and  C_2
REMARK    2  A    between atoms: C_3  and  S_4
REMARK    3  A    between atoms: S_4  and  C_7
REMARK    4  A    between atoms: C_10  and  C_11
REMARK    5  A    between atoms: C_11  and  C_12
REMARK    6  A    between atoms: C_11  and  C_13
REMARK    7  A    between atoms: C_11  and  C_14
REMARK                            x       y       z     vdW  Elec       q    Type
REMARK                         _______ _______ _______ _____ _____    ______ ____
ROOT
ATOM      1  C   UNL     1       5.383   4.888  17.504  0.00  0.00    +0.000 A 
ATOM      2  C   UNL     1       4.088   5.124  17.049  0.00  0.00    +0.000 A 
ATOM      3  C   UNL     1       3.000   4.716  17.825  0.00  0.00    +0.000 A 
ATOM      4  C   UNL     1       3.176   4.054  19.055  0.00  0.00    +0.000 A 
ATOM      5  C   UNL     1       4.500   3.834  19.488  0.00  0.00    +0.000 A 
ATOM      6  C   UNL     1       5.598   4.238  18.718  0.00  0.00    +0.000 A 
ENDROOT
BRANCH   4   7
ATOM      7  C   UNL     1       1.983   3.542  19.887  0.00  0.00    +0.000 C 
ATOM      8  C   UNL     1       1.013   2.657  19.071  0.00  0.00    +0.000 C 
ATOM      9  C   UNL     1       2.500   2.690  21.067  0.00  0.00    +0.000 C 
ATOM     10  C   UNL     1       1.160   4.719  20.453  0.00  0.00    +0.000 C 
ENDBRANCH   4   7
BRANCH   1  11
ATOM     11  S   UNL     1       6.762   5.375  16.489  0.00  0.00    +0.000 S 
ATOM     12  O   UNL     1       7.834   4.431  16.745  0.00  0.00    +0.000 OA
ATOM     13  O   UNL     1       6.965   6.797  16.699  0.00  0.00    +0.000 OA
BRANCH  11  16
ATOM     14  C   UNL     1       5.825   3.611  12.927  0.00  0.00    +0.000 C 
ATOM     15  C   UNL     1       6.313   3.923  14.302  0.00  0.00    +0.000 C 
ATOM     16  C   UNL     1       6.142   5.121  14.885  0.00  0.00    +0.000 C 
ENDBRANCH  11  16
ENDBRANCH   1  11
TORSDOF 3
ENDMDL
MODEL 9
REMARK VINA RESULT:      -7.3      1.885      3.074
REMARK  Name = 
REMARK  7 active torsions:
REMARK  status: ('A' for Active; 'I' for Inactive)
REMARK    1  A    between atoms: C_1  and  C_2
REMARK    2  A    between atoms: C_3  and  S_4
REMARK    3  A    between atoms: S_4  and  C_7
REMARK    4  A    between atoms: C_10  and  C_11
REMARK    5  A    between atoms: C_11  and  C_12
REMARK    6  A    between atoms: C_11  and  C_13
REMARK    7  A    between atoms: C_11  and  C_14
REMARK                            x       y       z     vdW  Elec       q    Type
REMARK                         _______ _______ _______ _____ _____    ______ ____
ROOT
ATOM      1  C   UNL     1       5.439   4.873  17.656  0.00  0.00    +0.000 A 
ATOM      2  C   UNL     1       5.595   4.318  18.924  0.00  0.00    +0.000 A 
ATOM      3  C   UNL     1       4.472   3.863  19.621  0.00  0.00    +0.000 A 
ATOM      4  C   UNL     1       3.176   3.965  19.080  0.00  0.00    +0.000 A 
ATOM      5  C   UNL     1       3.054   4.528  17.793  0.00  0.00    +0.000 A 
ATOM      6  C   UNL     1       4.172   4.988  17.087  0.00  0.00    +0.000 A 
ENDROOT
BRANCH   4   7
ATOM      7  C   UNL     1       1.925   3.526  19.867  0.00  0.00    +0.000 C 
ATOM      8  C   UNL     1       2.262   2.674  21.113  0.00  0.00    +0.000 C 
ATOM      9  C   UNL     1       1.156   4.773  20.358  0.00  0.00    +0.000 C 
ATOM     10  C   UNL     1       0.984   2.684  18.981  0.00  0.00    +0.000 C 
ENDBRANCH   4   7
BRANCH   1  11
ATOM     11  S   UNL     1       6.870   5.487  16.794  0.00  0.00    +0.000 S 
ATOM     12  O   UNL     1       6.401   6.080  15.556  0.00  0.00    +0.000 OA
ATOM     13  O   UNL     1       7.849   4.413  16.774  0.00  0.00    +0.000 OA
BRANCH  11  16
ATOM     14  C   UNL     1       8.263   9.070  18.172  0.00  0.00    +0.000 C 
ATOM     15  C   UNL     1       7.767   7.934  17.342  0.00  0.00    +0.000 C 
ATOM     16  C   UNL     1       7.427   6.742  17.860  0.00  0.00    +0.000 C 
ENDBRANCH  11  16
ENDBRANCH   1  11
TORSDOF 3
ENDMDL
