MODEL 1
REMARK VINA RESULT:      -7.9      0.000      0.000
REMARK  Name = 
REMARK  4 active torsions:
REMARK  status: ('A' for Active; 'I' for Inactive)
REMARK    1  A    between atoms: C_1  and  C_2
REMARK    2  A    between atoms: C_2  and  C_3
REMARK    3  A    between atoms: C_11  and  C_12
REMARK    4  A    between atoms: C_16  and  O_17
REMARK                            x       y       z     vdW  Elec       q    Type
REMARK                         _______ _______ _______ _____ _____    ______ ____
ROOT
ATOM      1  C   UNL     1       1.352   5.338  20.717  0.00  0.00    +0.000 C 
ATOM      2  C   UNL     1       1.536   3.907  20.215  0.00  0.00    +0.000 C 
ATOM      3  C   UNL     1       0.216   3.303  19.739  0.00  0.00    +0.000 C 
ATOM      4  C   UNL     1       2.136   3.035  21.345  0.00  0.00    +0.000 C 
ATOM      5  O   UNL     1       1.635   2.787  22.431  0.00  0.00    +0.000 OA
ATOM      6  N   UNL     1       3.371   2.573  20.909  0.00  0.00    +0.000 N 
ATOM      7  C   UNL     1       3.662   3.023  19.630  0.00  0.00    +0.000 A 
ATOM      8  C   UNL     1       4.809   2.747  18.907  0.00  0.00    +0.000 A 
ATOM      9  C   UNL     1       4.840   3.346  17.642  0.00  0.00    +0.000 A 
ATOM     10  N   UNL     1       5.777   3.324  16.644  0.00  0.00    +0.000 N 
ATOM     11  C   UNL     1       5.341   4.106  15.601  0.00  0.00    +0.000 A 
ATOM     12  N   UNL     1       4.157   4.620  15.880  0.00  0.00    +0.000 NA
ATOM     13  C   UNL     1       3.824   4.154  17.130  0.00  0.00    +0.000 A 
ATOM     14  C   UNL     1       2.668   4.399  17.893  0.00  0.00    +0.000 A 
ATOM     15  C   UNL     1       2.616   3.816  19.158  0.00  0.00    +0.000 A 
ATOM     16  H   UNL     1       3.962   1.984  21.476  0.00  0.00    +0.000 HD
ATOM     17  H   UNL     1       6.660   2.836  16.677  0.00  0.00    +0.000 HD
ENDROOT
BRANCH  11  18
ATOM     18  C   UNL     1       6.113   4.315  14.378  0.00  0.00    +0.000 A 
ATOM     19  C   UNL     1       5.793   3.614  13.212  0.00  0.00    +0.000 A 
ATOM     20  C   UNL     1       6.566   3.818  12.079  0.00  0.00    +0.000 A 
ATOM     21  N   UNL     1       7.635   4.643  12.038  0.00  0.00    +0.000 NA
ATOM     22  C   UNL     1       7.907   5.292  13.176  0.00  0.00    +0.000 A 
ATOM     23  C   UNL     1       7.197   5.192  14.351  0.00  0.00    +0.000 A 
BRANCH  22  24
ATOM     24  O   UNL     1       9.012   6.075  13.119  0.00  0.00    +0.000 OA
ATOM     25  H   UNL     1       8.647   6.903  13.479  0.00  0.00    +0.000 HD
ENDBRANCH  22  24
ENDBRANCH  11  18
TORSDOF 2
ENDMDL
MODEL 2
REMARK VINA RESULT:      -7.9      5.374      7.502
REMARK  Name = 
REMARK  4 active torsions:
REMARK  status: ('A' for Active; 'I' for Inactive)
REMARK    1  A    between atoms: C_1  and  C_2
REMARK    2  A    between atoms: C_2  and  C_3
REMARK    3  A    between atoms: C_11  and  C_12
REMARK    4  A    between atoms: C_16  and  O_17
REMARK                            x       y       z     vdW  Elec       q    Type
REMARK                         _______ _______ _______ _____ _____    ______ ____
ROOT
ATOM      1  C   UNL     1       0.803  12.879  18.967  0.00  0.00    +0.000 C 
ATOM      2  C   UNL     1      -0.249  11.832  19.327  0.00  0.00    +0.000 C 
ATOM      3  C   UNL     1      -1.326  11.722  18.249  0.00  0.00    +0.000 C 
ATOM      4  C   UNL     1      -0.900  12.197  20.684  0.00  0.00    +0.000 C 
ATOM      5  O   UNL     1      -1.541  13.202  20.949  0.00  0.00    +0.000 OA
ATOM      6  N   UNL     1      -0.622  11.166  21.573  0.00  0.00    +0.000 N 
ATOM      7  C   UNL     1       0.124  10.162  20.976  0.00  0.00    +0.000 A 
ATOM      8  C   UNL     1       0.567   9.000  21.582  0.00  0.00    +0.000 A 
ATOM      9  C   UNL     1       1.312   8.168  20.738  0.00  0.00    +0.000 A 
ATOM     10  N   UNL     1       1.918   6.959  20.951  0.00  0.00    +0.000 N 
ATOM     11  C   UNL     1       2.556   6.567  19.798  0.00  0.00    +0.000 A 
ATOM     12  N   UNL     1       2.375   7.467  18.848  0.00  0.00    +0.000 NA
ATOM     13  C   UNL     1       1.599   8.457  19.404  0.00  0.00    +0.000 A 
ATOM     14  C   UNL     1       1.119   9.643  18.822  0.00  0.00    +0.000 A 
ATOM     15  C   UNL     1       0.378  10.491  19.644  0.00  0.00    +0.000 A 
ATOM     16  H   UNL     1      -0.938  11.176  22.532  0.00  0.00    +0.000 HD
ATOM     17  H   UNL     1       1.922   6.449  21.821  0.00  0.00    +0.000 HD
ENDROOT
BRANCH  11  18
ATOM     18  C   UNL     1       3.318   5.326  19.686  0.00  0.00    +0.000 A 
ATOM     19  C   UNL     1       2.809   4.134  20.211  0.00  0.00    +0.000 A 
ATOM     20  C   UNL     1       3.575   2.982  20.110  0.00  0.00    +0.000 A 
ATOM     21  N   UNL     1       4.804   2.944  19.551  0.00  0.00    +0.000 NA
ATOM     22  C   UNL     1       5.253   4.107  19.063  0.00  0.00    +0.000 A 
ATOM     23  C   UNL     1       4.575   5.304  19.081  0.00  0.00    +0.000 A 
BRANCH  22  24
ATOM     24  O   UNL     1       6.507   4.047  18.553  0.00  0.00    +0.000 OA
ATOM     25  H   UNL     1       6.380   4.569  17.740  0.00  0.00    +0.000 HD
ENDBRANCH  22  24
ENDBRANCH  11  18
TORSDOF 2
ENDMDL
MODEL 3
REMARK VINA RESULT:      -7.8      4.408      5.367
REMARK  Name = 
REMARK  4 active torsions:
REMARK  status: ('A' for Active; 'I' for Inactive)
REMARK    1  A    between atoms: C_1  and  C_2
REMARK    2  A    between atoms: C_2  and  C_3
REMARK    3  A    between atoms: C_11  and  C_12
REMARK    4  A    between atoms: C_16  and  O_17
REMARK                            x       y       z     vdW  Elec       q    Type
REMARK                         _______ _______ _______ _____ _____    ______ ____
ROOT
ATOM      1  C   UNL     1       0.687  11.951  19.503  0.00  0.00    +0.000 C 
ATOM      2  C   UNL     1       0.043  10.567  19.423  0.00  0.00    +0.000 C 
ATOM      3  C   UNL     1      -1.128  10.548  18.442  0.00  0.00    +0.000 C 
ATOM      4  C   UNL     1      -0.442  10.139  20.830  0.00  0.00    +0.000 C 
ATOM      5  O   UNL     1      -1.282  10.694  21.522  0.00  0.00    +0.000 OA
ATOM      6  N   UNL     1       0.257   8.992  21.184  0.00  0.00    +0.000 N 
ATOM      7  C   UNL     1       1.139   8.603  20.188  0.00  0.00    +0.000 A 
ATOM      8  C   UNL     1       1.983   7.508  20.225  0.00  0.00    +0.000 A 
ATOM      9  C   UNL     1       2.775   7.362  19.079  0.00  0.00    +0.000 A 
ATOM     10  N   UNL     1       3.719   6.433  18.733  0.00  0.00    +0.000 N 
ATOM     11  C   UNL     1       4.235   6.754  17.500  0.00  0.00    +0.000 A 
ATOM     12  N   UNL     1       3.653   7.842  17.032  0.00  0.00    +0.000 NA
ATOM     13  C   UNL     1       2.739   8.228  17.985  0.00  0.00    +0.000 A 
ATOM     14  C   UNL     1       1.857   9.322  17.982  0.00  0.00    +0.000 A 
ATOM     15  C   UNL     1       1.062   9.490  19.114  0.00  0.00    +0.000 A 
ATOM     16  H   UNL     1       0.119   8.523  22.066  0.00  0.00    +0.000 HD
ATOM     17  H   UNL     1       4.013   5.654  19.303  0.00  0.00    +0.000 HD
ENDROOT
BRANCH  11  18
ATOM     18  C   UNL     1       5.281   5.975  16.842  0.00  0.00    +0.000 A 
ATOM     19  C   UNL     1       5.243   5.767  15.460  0.00  0.00    +0.000 A 
ATOM     20  C   UNL     1       6.239   4.999  14.875  0.00  0.00    +0.000 A 
ATOM     21  N   UNL     1       7.240   4.415  15.567  0.00  0.00    +0.000 NA
ATOM     22  C   UNL     1       7.237   4.638  16.887  0.00  0.00    +0.000 A 
ATOM     23  C   UNL     1       6.322   5.403  17.572  0.00  0.00    +0.000 A 
BRANCH  22  24
ATOM     24  O   UNL     1       8.225   4.000  17.560  0.00  0.00    +0.000 OA
ATOM     25  H   UNL     1       7.885   4.080  18.469  0.00  0.00    +0.000 HD
ENDBRANCH  22  24
ENDBRANCH  11  18
TORSDOF 2
ENDMDL
MODEL 4
REMARK VINA RESULT:      -7.8      5.399      7.860
REMARK  Name = 
REMARK  4 active torsions:
REMARK  status: ('A' for Active; 'I' for Inactive)
REMARK    1  A    between atoms: C_1  and  C_2
REMARK    2  A    between atoms: C_2  and  C_3
REMARK    3  A    between atoms: C_11  and  C_12
REMARK    4  A    between atoms: C_16  and  O_17
REMARK                            x       y       z     vdW  Elec       q    Type
REMARK                         _______ _______ _______ _____ _____    ______ ____
ROOT
ATOM      1  C   UNL     1       4.152   3.838  16.868  0.00  0.00    +0.000 C 
ATOM      2  C   UNL     1       4.619   4.558  18.132  0.00  0.00    +0.000 C 
ATOM      3  C   UNL     1       6.101   4.919  18.060  0.00  0.00    +0.000 C 
ATOM      4  C   UNL     1       4.356   3.660  19.366  0.00  0.00    +0.000 C 
ATOM      5  O   UNL     1       4.833   2.559  19.593  0.00  0.00    +0.000 OA
ATOM      6  N   UNL     1       3.461   4.331  20.190  0.00  0.00    +0.000 N 
ATOM      7  C   UNL     1       3.103   5.561  19.662  0.00  0.00    +0.000 A 
ATOM      8  C   UNL     1       2.231   6.473  20.230  0.00  0.00    +0.000 A 
ATOM      9  C   UNL     1       2.046   7.633  19.467  0.00  0.00    +0.000 A 
ATOM     10  N   UNL     1       1.279   8.748  19.672  0.00  0.00    +0.000 N 
ATOM     11  C   UNL     1       1.425   9.597  18.601  0.00  0.00    +0.000 A 
ATOM     12  N   UNL     1       2.263   9.081  17.721  0.00  0.00    +0.000 NA
ATOM     13  C   UNL     1       2.668   7.874  18.242  0.00  0.00    +0.000 A 
ATOM     14  C   UNL     1       3.557   6.926  17.705  0.00  0.00    +0.000 A 
ATOM     15  C   UNL     1       3.754   5.761  18.445  0.00  0.00    +0.000 A 
ATOM     16  H   UNL     1       3.129   3.943  21.061  0.00  0.00    +0.000 HD
ATOM     17  H   UNL     1       0.680   8.911  20.467  0.00  0.00    +0.000 HD
ENDROOT
BRANCH  11  18
ATOM     18  C   UNL     1       0.728  10.876  18.491  0.00  0.00    +0.000 A 
ATOM     19  C   UNL     1       1.416  12.076  18.692  0.00  0.00    +0.000 A 
ATOM     20  C   UNL     1       0.714  13.269  18.607  0.00  0.00    +0.000 A 
ATOM     21  N   UNL     1      -0.612  13.344  18.362  0.00  0.00    +0.000 NA
ATOM     22  C   UNL     1      -1.232  12.172  18.177  0.00  0.00    +0.000 A 
ATOM     23  C   UNL     1      -0.637  10.931  18.210  0.00  0.00    +0.000 A 
BRANCH  22  24
ATOM     24  O   UNL     1      -2.569  12.276  17.981  0.00  0.00    +0.000 OA
ATOM     25  H   UNL     1      -2.607  12.132  17.018  0.00  0.00    +0.000 HD
ENDBRANCH  22  24
ENDBRANCH  11  18
TORSDOF 2
ENDMDL
MODEL 5
REMARK VINA RESULT:      -7.7      5.298      7.169
REMARK  Name = 
REMARK  4 active torsions:
REMARK  status: ('A' for Active; 'I' for Inactive)
REMARK    1  A    between atoms: C_1  and  C_2
REMARK    2  A    between atoms: C_2  and  C_3
REMARK    3  A    between atoms: C_11  and  C_12
REMARK    4  A    between atoms: C_16  and  O_17
REMARK                            x       y       z     vdW  Elec       q    Type
REMARK                         _______ _______ _______ _____ _____    ______ ____
ROOT
ATOM      1  C   UNL     1       0.954  13.142  20.461  0.00  0.00    +0.000 C 
ATOM      2  C   UNL     1      -0.103  12.053  20.642  0.00  0.00    +0.000 C 
ATOM      3  C   UNL     1      -1.308  12.281  19.732  0.00  0.00    +0.000 C 
ATOM      4  C   UNL     1      -0.561  12.016  22.121  0.00  0.00    +0.000 C 
ATOM      5  O   UNL     1      -1.108  12.911  22.747  0.00  0.00    +0.000 OA
ATOM      6  N   UNL     1      -0.233  10.766  22.631  0.00  0.00    +0.000 N 
ATOM      7  C   UNL     1       0.377   9.968  21.676  0.00  0.00    +0.000 A 
ATOM      8  C   UNL     1       0.827   8.673  21.859  0.00  0.00    +0.000 A 
ATOM      9  C   UNL     1       1.416   8.111  20.719  0.00  0.00    +0.000 A 
ATOM     10  N   UNL     1       1.976   6.882  20.493  0.00  0.00    +0.000 N 
ATOM     11  C   UNL     1       2.445   6.833  19.201  0.00  0.00    +0.000 A 
ATOM     12  N   UNL     1       2.198   7.974  18.584  0.00  0.00    +0.000 NA
ATOM     13  C   UNL     1       1.552   8.772  19.499  0.00  0.00    +0.000 A 
ATOM     14  C   UNL     1       1.070  10.084  19.351  0.00  0.00    +0.000 A 
ATOM     15  C   UNL     1       0.484  10.667  20.474  0.00  0.00    +0.000 A 
ATOM     16  H   UNL     1      -0.427  10.501  23.585  0.00  0.00    +0.000 HD
ATOM     17  H   UNL     1       2.059   6.140  21.171  0.00  0.00    +0.000 HD
ENDROOT
BRANCH  11  18
ATOM     18  C   UNL     1       3.118   5.666  18.637  0.00  0.00    +0.000 A 
ATOM     19  C   UNL     1       2.413   4.762  17.837  0.00  0.00    +0.000 A 
ATOM     20  C   UNL     1       3.080   3.651  17.342  0.00  0.00    +0.000 A 
ATOM     21  N   UNL     1       4.375   3.374  17.606  0.00  0.00    +0.000 NA
ATOM     22  C   UNL     1       5.012   4.264  18.376  0.00  0.00    +0.000 A 
ATOM     23  C   UNL     1       4.464   5.413  18.900  0.00  0.00    +0.000 A 
BRANCH  22  24
ATOM     24  O   UNL     1       6.295   3.935  18.663  0.00  0.00    +0.000 OA
ATOM     25  H   UNL     1       6.229   3.838  19.630  0.00  0.00    +0.000 HD
ENDBRANCH  22  24
ENDBRANCH  11  18
TORSDOF 2
ENDMDL
MODEL 6
REMARK VINA RESULT:      -7.7      4.633      5.909
REMARK  Name = 
REMARK  4 active torsions:
REMARK  status: ('A' for Active; 'I' for Inactive)
REMARK    1  A    between atoms: C_1  and  C_2
REMARK    2  A    between atoms: C_2  and  C_3
REMARK    3  A    between atoms: C_11  and  C_12
REMARK    4  A    between atoms: C_16  and  O_17
REMARK                            x       y       z     vdW  Elec       q    Type
REMARK                         _______ _______ _______ _____ _____    ______ ____
ROOT
ATOM      1  C   UNL     1       0.616  12.490  19.736  0.00  0.00    +0.000 C 
ATOM      2  C   UNL     1      -0.177  11.188  19.825  0.00  0.00    +0.000 C 
ATOM      3  C   UNL     1      -1.427  11.228  18.947  0.00  0.00    +0.000 C 
ATOM      4  C   UNL     1      -0.579  10.925  21.298  0.00  0.00    +0.000 C 
ATOM      5  O   UNL     1      -1.289  11.623  22.005  0.00  0.00    +0.000 OA
ATOM      6  N   UNL     1       0.022   9.736  21.691  0.00  0.00    +0.000 N 
ATOM      7  C   UNL     1       0.765   9.174  20.664  0.00  0.00    +0.000 A 
ATOM      8  C   UNL     1       1.486   7.995  20.726  0.00  0.00    +0.000 A 
ATOM      9  C   UNL     1       2.152   7.674  19.537  0.00  0.00    +0.000 A 
ATOM     10  N   UNL     1       2.956   6.620  19.197  0.00  0.00    +0.000 N 
ATOM     11  C   UNL     1       3.391   6.785  17.903  0.00  0.00    +0.000 A 
ATOM     12  N   UNL     1       2.890   7.895  17.393  0.00  0.00    +0.000 NA
ATOM     13  C   UNL     1       2.112   8.453  18.380  0.00  0.00    +0.000 A 
ATOM     14  C   UNL     1       1.356   9.638  18.355  0.00  0.00    +0.000 A 
ATOM     15  C   UNL     1       0.688   9.981  19.529  0.00  0.00    +0.000 A 
ATOM     16  H   UNL     1      -0.086   9.353  22.619  0.00  0.00    +0.000 HD
ATOM     17  H   UNL     1       3.214   5.857  19.805  0.00  0.00    +0.000 HD
ENDROOT
BRANCH  11  18
ATOM     18  C   UNL     1       4.284   5.844  17.232  0.00  0.00    +0.000 A 
ATOM     19  C   UNL     1       4.015   4.473  17.259  0.00  0.00    +0.000 A 
ATOM     20  C   UNL     1       4.901   3.608  16.633  0.00  0.00    +0.000 A 
ATOM     21  N   UNL     1       6.031   4.010  16.013  0.00  0.00    +0.000 NA
ATOM     22  C   UNL     1       6.251   5.331  16.013  0.00  0.00    +0.000 A 
ATOM     23  C   UNL     1       5.433   6.284  16.574  0.00  0.00    +0.000 A 
BRANCH  22  24
ATOM     24  O   UNL     1       7.416   5.700  15.426  0.00  0.00    +0.000 OA
ATOM     25  H   UNL     1       7.252   6.654  15.319  0.00  0.00    +0.000 HD
ENDBRANCH  22  24
ENDBRANCH  11  18
TORSDOF 2
ENDMDL
MODEL 7
REMARK VINA RESULT:      -7.7      4.973      6.626
REMARK  Name = 
REMARK  4 active torsions:
REMARK  status: ('A' for Active; 'I' for Inactive)
REMARK    1  A    between atoms: C_1  and  C_2
REMARK    2  A    between atoms: C_2  and  C_3
REMARK    3  A    between atoms: C_11  and  C_12
REMARK    4  A    between atoms: C_16  and  O_17
REMARK                            x       y       z     vdW  Elec       q    Type
REMARK                         _______ _______ _______ _____ _____    ______ ____
ROOT
ATOM      1  C   UNL     1       0.539  12.816  20.355  0.00  0.00    +0.000 C 
ATOM      2  C   UNL     1      -0.311  11.559  20.532  0.00  0.00    +0.000 C 
ATOM      3  C   UNL     1      -1.612  11.642  19.736  0.00  0.00    +0.000 C 
ATOM      4  C   UNL     1      -0.625  11.353  22.034  0.00  0.00    +0.000 C 
ATOM      5  O   UNL     1      -1.251  12.104  22.767  0.00  0.00    +0.000 OA
ATOM      6  N   UNL     1      -0.059  10.145  22.420  0.00  0.00    +0.000 N 
ATOM      7  C   UNL     1       0.584   9.521  21.363  0.00  0.00    +0.000 A 
ATOM      8  C   UNL     1       1.249   8.308  21.411  0.00  0.00    +0.000 A 
ATOM      9  C   UNL     1       1.817   7.924  20.190  0.00  0.00    +0.000 A 
ATOM     10  N   UNL     1       2.544   6.822  19.827  0.00  0.00    +0.000 N 
ATOM     11  C   UNL     1       2.900   6.933  18.504  0.00  0.00    +0.000 A 
ATOM     12  N   UNL     1       2.421   8.054  17.996  0.00  0.00    +0.000 NA
ATOM     13  C   UNL     1       1.739   8.675  19.017  0.00  0.00    +0.000 A 
ATOM     14  C   UNL     1       1.043   9.896  19.008  0.00  0.00    +0.000 A 
ATOM     15  C   UNL     1       0.472  10.302  20.213  0.00  0.00    +0.000 A 
ATOM     16  H   UNL     1      -0.125   9.791  23.363  0.00  0.00    +0.000 HD
ATOM     17  H   UNL     1       2.803   6.062  20.439  0.00  0.00    +0.000 HD
ENDROOT
BRANCH  11  18
ATOM     18  C   UNL     1       3.698   5.932  17.802  0.00  0.00    +0.000 A 
ATOM     19  C   UNL     1       4.591   6.317  16.798  0.00  0.00    +0.000 A 
ATOM     20  C   UNL     1       5.311   5.335  16.135  0.00  0.00    +0.000 A 
ATOM     21  N   UNL     1       5.187   4.014  16.386  0.00  0.00    +0.000 NA
ATOM     22  C   UNL     1       4.321   3.689  17.354  0.00  0.00    +0.000 A 
ATOM     23  C   UNL     1       3.574   4.574  18.097  0.00  0.00    +0.000 A 
BRANCH  22  24
ATOM     24  O   UNL     1       4.182   2.355  17.550  0.00  0.00    +0.000 OA
ATOM     25  H   UNL     1       4.344   2.311  18.509  0.00  0.00    +0.000 HD
ENDBRANCH  22  24
ENDBRANCH  11  18
TORSDOF 2
ENDMDL
MODEL 8
REMARK VINA RESULT:      -7.7      5.431      8.072
REMARK  Name = 
REMARK  4 active torsions:
REMARK  status: ('A' for Active; 'I' for Inactive)
REMARK    1  A    between atoms: C_1  and  C_2
REMARK    2  A    between atoms: C_2  and  C_3
REMARK    3  A    between atoms: C_11  and  C_12
REMARK    4  A    between atoms: C_16  and  O_17
REMARK                            x       y       z     vdW  Elec       q    Type
REMARK                         _______ _______ _______ _____ _____    ______ ____
ROOT
ATOM      1  C   UNL     1      -1.712  11.921  20.516  0.00  0.00    +0.000 C 
ATOM      2  C   UNL     1      -0.214  12.094  20.269  0.00  0.00    +0.000 C 
ATOM      3  C   UNL     1       0.459  12.861  21.406  0.00  0.00    +0.000 C 
ATOM      4  C   UNL     1       0.008  12.838  18.929  0.00  0.00    +0.000 C 
ATOM      5  O   UNL     1      -0.358  13.968  18.643  0.00  0.00    +0.000 OA
ATOM      6  N   UNL     1       0.706  11.984  18.085  0.00  0.00    +0.000 N 
ATOM      7  C   UNL     1       0.981  10.772  18.698  0.00  0.00    +0.000 A 
ATOM      8  C   UNL     1       1.658   9.705  18.134  0.00  0.00    +0.000 A 
ATOM      9  C   UNL     1       1.781   8.598  18.983  0.00  0.00    +0.000 A 
ATOM     10  N   UNL     1       2.364   7.372  18.807  0.00  0.00    +0.000 N 
ATOM     11  C   UNL     1       2.186   6.622  19.945  0.00  0.00    +0.000 A 
ATOM     12  N   UNL     1       1.526   7.318  20.851  0.00  0.00    +0.000 NA
ATOM     13  C   UNL     1       1.276   8.546  20.283  0.00  0.00    +0.000 A 
ATOM     14  C   UNL     1       0.606   9.657  20.823  0.00  0.00    +0.000 A 
ATOM     15  C   UNL     1       0.467  10.769  19.995  0.00  0.00    +0.000 A 
ATOM     16  H   UNL     1       0.967  12.243  17.145  0.00  0.00    +0.000 HD
ATOM     17  H   UNL     1       2.825   7.056  17.967  0.00  0.00    +0.000 HD
ENDROOT
BRANCH  11  18
ATOM     18  C   UNL     1       2.672   5.251  20.085  0.00  0.00    +0.000 A 
ATOM     19  C   UNL     1       2.045   4.366  20.967  0.00  0.00    +0.000 A 
ATOM     20  C   UNL     1       2.552   3.082  21.093  0.00  0.00    +0.000 A 
ATOM     21  N   UNL     1       3.639   2.635  20.428  0.00  0.00    +0.000 NA
ATOM     22  C   UNL     1       4.210   3.515  19.596  0.00  0.00    +0.000 A 
ATOM     23  C   UNL     1       3.781   4.802  19.368  0.00  0.00    +0.000 A 
BRANCH  22  24
ATOM     24  O   UNL     1       5.326   3.055  18.980  0.00  0.00    +0.000 OA
ATOM     25  H   UNL     1       5.878   3.856  19.016  0.00  0.00    +0.000 HD
ENDBRANCH  22  24
ENDBRANCH  11  18
TORSDOF 2
ENDMDL
MODEL 9
REMARK VINA RESULT:      -7.7      4.832      7.069
REMARK  Name = 
REMARK  4 active torsions:
REMARK  status: ('A' for Active; 'I' for Inactive)
REMARK    1  A    between atoms: C_1  and  C_2
REMARK    2  A    between atoms: C_2  and  C_3
REMARK    3  A    between atoms: C_11  and  C_12
REMARK    4  A    between atoms: C_16  and  O_17
REMARK                            x       y       z     vdW  Elec       q    Type
REMARK                         _______ _______ _______ _____ _____    ______ ____
ROOT
ATOM      1  C   UNL     1       2.000  12.215  18.590  0.00  0.00    +0.000 C 
ATOM      2  C   UNL     1       0.830  11.418  19.164  0.00  0.00    +0.000 C 
ATOM      3  C   UNL     1      -0.433  11.587  18.322  0.00  0.00    +0.000 C 
ATOM      4  C   UNL     1       0.557  11.872  20.619  0.00  0.00    +0.000 C 
ATOM      5  O   UNL     1       0.223  12.985  20.994  0.00  0.00    +0.000 OA
ATOM      6  N   UNL     1       0.765  10.776  21.447  0.00  0.00    +0.000 N 
ATOM      7  C   UNL     1       1.134   9.652  20.724  0.00  0.00    +0.000 A 
ATOM      8  C   UNL     1       1.414   8.401  21.244  0.00  0.00    +0.000 A 
ATOM      9  C   UNL     1       1.773   7.452  20.279  0.00  0.00    +0.000 A 
ATOM     10  N   UNL     1       2.121   6.132  20.381  0.00  0.00    +0.000 N 
ATOM     11  C   UNL     1       2.415   5.647  19.129  0.00  0.00    +0.000 A 
ATOM     12  N   UNL     1       2.259   6.596  18.224  0.00  0.00    +0.000 NA
ATOM     13  C   UNL     1       1.850   7.715  18.911  0.00  0.00    +0.000 A 
ATOM     14  C   UNL     1       1.545   8.997  18.422  0.00  0.00    +0.000 A 
ATOM     15  C   UNL     1       1.189   9.960  19.365  0.00  0.00    +0.000 A 
ATOM     16  H   UNL     1       0.653  10.823  22.448  0.00  0.00    +0.000 HD
ATOM     17  H   UNL     1       2.180   5.605  21.239  0.00  0.00    +0.000 HD
ENDROOT
BRANCH  11  18
ATOM     18  C   UNL     1       2.842   4.272  18.882  0.00  0.00    +0.000 A 
ATOM     19  C   UNL     1       2.196   3.494  17.917  0.00  0.00    +0.000 A 
ATOM     20  C   UNL     1       2.611   2.184  17.731  0.00  0.00    +0.000 A 
ATOM     21  N   UNL     1       3.596   1.600  18.447  0.00  0.00    +0.000 NA
ATOM     22  C   UNL     1       4.187   2.379  19.360  0.00  0.00    +0.000 A 
ATOM     23  C   UNL     1       3.880   3.697  19.614  0.00  0.00    +0.000 A 
BRANCH  22  24
ATOM     24  O   UNL     1       5.137   1.752  20.095  0.00  0.00    +0.000 OA
ATOM     25  H   UNL     1       4.602   1.038  20.485  0.00  0.00    +0.000 HD
ENDBRANCH  22  24
ENDBRANCH  11  18
TORSDOF 2
ENDMDL
