MODEL 1
REMARK VINA RESULT:      -8.1      0.000      0.000
REMARK  Name = 
REMARK  12 active torsions:
REMARK  status: ('A' for Active; 'I' for Inactive)
REMARK    1  A    between atoms: C_1  and  O_2
REMARK    2  A    between atoms: O_2  and  C_3
REMARK    3  A    between atoms: C_3  and  C_4
REMARK    4  A    between atoms: C_6  and  C_7
REMARK    5  A    between atoms: N_8  and  C_9
REMARK    6  A    between atoms: C_13  and  C_14
REMARK    7  A    between atoms: C_14  and  O_15
REMARK    8  A    between atoms: O_15  and  C_16
REMARK    9  A    between atoms: C_24  and  C_25
REMARK   10  A    between atoms: C_25  and  C_26
REMARK   11  A    between atoms: C_26  and  O_28
REMARK   12  A    between atoms: C_30  and  C_31
REMARK                            x       y       z     vdW  Elec       q    Type
REMARK                         _______ _______ _______ _____ _____    ______ ____
ROOT
ATOM      1  C   UNL     1       3.188   6.366  18.458  0.00  0.00    +0.000 A 
ATOM      2  C   UNL     1       2.868   6.105  19.798  0.00  0.00    +0.000 A 
ATOM      3  C   UNL     1       2.072   6.994  20.523  0.00  0.00    +0.000 A 
ATOM      4  C   UNL     1       1.618   8.158  19.923  0.00  0.00    +0.000 A 
ATOM      5  C   UNL     1       1.943   8.445  18.586  0.00  0.00    +0.000 A 
ATOM      6  C   UNL     1       2.707   7.528  17.857  0.00  0.00    +0.000 A 
ENDROOT
BRANCH   1  11
ATOM      7  C   UNL     1       5.586   4.600  16.326  0.00  0.00    +0.000 A 
ATOM      8  C   UNL     1       4.567   3.637  16.489  0.00  0.00    +0.000 A 
ATOM      9  C   UNL     1       3.583   4.171  17.295  0.00  0.00    +0.000 A 
ATOM     10  C   UNL     1       2.265   3.540  17.602  0.00  0.00    +0.000 C 
ATOM     11  N   UNL     1       3.969   5.449  17.676  0.00  0.00    +0.000 N 
ATOM     12  C   UNL     1       5.216   5.706  17.094  0.00  0.00    +0.000 A 
ATOM     13  C   UNL     1       6.069   6.921  17.301  0.00  0.00    +0.000 C 
BRANCH   7  14
ATOM     14  C   UNL     1       6.818   4.443  15.488  0.00  0.00    +0.000 C 
BRANCH  14  16
ATOM     15  C   UNL     1       6.362   3.908  13.240  0.00  0.00    +0.000 C 
ATOM     16  O   UNL     1       6.613   4.951  14.168  0.00  0.00    +0.000 OA
ENDBRANCH  14  16
ENDBRANCH   7  14
ENDBRANCH   1  11
BRANCH   5  17
ATOM     17  C   UNL     1       1.539   9.722  17.934  0.00  0.00    +0.000 C 
BRANCH  17  18
ATOM     18  O   UNL     1       0.952  10.629  18.886  0.00  0.00    +0.000 OA
BRANCH  18  19
ATOM     19  C   UNL     1      -0.404  10.774  18.700  0.00  0.00    +0.000 A 
ATOM     20  C   UNL     1      -1.111  11.737  19.448  0.00  0.00    +0.000 A 
ATOM     21  C   UNL     1      -2.472  12.067  19.161  0.00  0.00    +0.000 A 
ATOM     22  C   UNL     1      -3.097  11.438  18.073  0.00  0.00    +0.000 A 
ATOM     23  C   UNL     1      -2.350  10.442  17.438  0.00  0.00    +0.000 A 
ATOM     24  C   UNL     1      -1.082  10.039  17.753  0.00  0.00    +0.000 A 
ATOM     25  O   UNL     1      -2.946   9.911  16.322  0.00  0.00    +0.000 OA
ATOM     26  C   UNL     1      -3.847  10.968  16.052  0.00  0.00    +0.000 C 
ATOM     27  C   UNL     1      -4.451  11.395  17.419  0.00  0.00    +0.000 C 
BRANCH  27  28
ATOM     28  C   UNL     1      -5.578  12.306  16.934  0.00  0.00    +0.000 C 
BRANCH  28  29
ATOM     29  C   UNL     1      -6.496  12.997  17.890  0.00  0.00    +0.000 C 
ATOM     30  O   UNL     1      -7.249  12.432  18.661  0.00  0.00    +0.000 OA
BRANCH  29  31
ATOM     31  O   UNL     1      -6.343  14.358  17.854  0.00  0.00    +0.000 OA
ATOM     32  H   UNL     1      -7.156  14.886  17.999  0.00  0.00    +0.000 HD
ENDBRANCH  29  31
ENDBRANCH  28  29
ENDBRANCH  27  28
ENDBRANCH  18  19
ENDBRANCH  17  18
ENDBRANCH   5  17
TORSDOF 9
ENDMDL
MODEL 2
REMARK VINA RESULT:      -8.1      2.851      4.164
REMARK  Name = 
REMARK  12 active torsions:
REMARK  status: ('A' for Active; 'I' for Inactive)
REMARK    1  A    between atoms: C_1  and  O_2
REMARK    2  A    between atoms: O_2  and  C_3
REMARK    3  A    between atoms: C_3  and  C_4
REMARK    4  A    between atoms: C_6  and  C_7
REMARK    5  A    between atoms: N_8  and  C_9
REMARK    6  A    between atoms: C_13  and  C_14
REMARK    7  A    between atoms: C_14  and  O_15
REMARK    8  A    between atoms: O_15  and  C_16
REMARK    9  A    between atoms: C_24  and  C_25
REMARK   10  A    between atoms: C_25  and  C_26
REMARK   11  A    between atoms: C_26  and  O_28
REMARK   12  A    between atoms: C_30  and  C_31
REMARK                            x       y       z     vdW  Elec       q    Type
REMARK                         _______ _______ _______ _____ _____    ______ ____
ROOT
ATOM      1  C   UNL     1       4.403   4.407  19.078  0.00  0.00    +0.000 A 
ATOM      2  C   UNL     1       4.218   3.150  19.670  0.00  0.00    +0.000 A 
ATOM      3  C   UNL     1       3.195   2.947  20.598  0.00  0.00    +0.000 A 
ATOM      4  C   UNL     1       2.374   4.003  20.960  0.00  0.00    +0.000 A 
ATOM      5  C   UNL     1       2.555   5.275  20.390  0.00  0.00    +0.000 A 
ATOM      6  C   UNL     1       3.556   5.458  19.431  0.00  0.00    +0.000 A 
ENDROOT
BRANCH   1  11
ATOM      7  C   UNL     1       6.569   4.599  16.131  0.00  0.00    +0.000 A 
ATOM      8  C   UNL     1       7.396   5.131  17.144  0.00  0.00    +0.000 A 
ATOM      9  C   UNL     1       6.693   5.130  18.330  0.00  0.00    +0.000 A 
ATOM     10  C   UNL     1       7.244   5.477  19.674  0.00  0.00    +0.000 C 
ATOM     11  N   UNL     1       5.418   4.635  18.089  0.00  0.00    +0.000 N 
ATOM     12  C   UNL     1       5.336   4.326  16.726  0.00  0.00    +0.000 A 
ATOM     13  C   UNL     1       4.121   3.853  15.986  0.00  0.00    +0.000 C 
BRANCH   7  14
ATOM     14  C   UNL     1       6.960   4.381  14.701  0.00  0.00    +0.000 C 
BRANCH  14  16
ATOM     15  C   UNL     1       7.988   5.358  12.820  0.00  0.00    +0.000 C 
ATOM     16  O   UNL     1       7.786   5.444  14.222  0.00  0.00    +0.000 OA
ENDBRANCH  14  16
ENDBRANCH   7  14
ENDBRANCH   1  11
BRANCH   5  17
ATOM     17  C   UNL     1       1.744   6.450  20.814  0.00  0.00    +0.000 C 
BRANCH  17  18
ATOM     18  O   UNL     1       1.837   7.520  19.854  0.00  0.00    +0.000 OA
BRANCH  18  19
ATOM     19  C   UNL     1       1.324   8.702  20.339  0.00  0.00    +0.000 A 
ATOM     20  C   UNL     1       0.901   9.700  19.437  0.00  0.00    +0.000 A 
ATOM     21  C   UNL     1       0.185  10.857  19.873  0.00  0.00    +0.000 A 
ATOM     22  C   UNL     1      -0.140  10.970  21.234  0.00  0.00    +0.000 A 
ATOM     23  C   UNL     1       0.385   9.976  22.065  0.00  0.00    +0.000 A 
ATOM     24  C   UNL     1       1.154   8.911  21.689  0.00  0.00    +0.000 A 
ATOM     25  O   UNL     1      -0.025  10.057  23.372  0.00  0.00    +0.000 OA
ATOM     26  C   UNL     1      -1.186  10.840  23.172  0.00  0.00    +0.000 C 
ATOM     27  C   UNL     1      -0.798  11.955  22.160  0.00  0.00    +0.000 C 
BRANCH  27  28
ATOM     28  C   UNL     1      -2.028  12.854  22.277  0.00  0.00    +0.000 C 
BRANCH  28  29
ATOM     29  C   UNL     1      -3.168  12.755  21.314  0.00  0.00    +0.000 C 
ATOM     30  O   UNL     1      -4.308  12.455  21.617  0.00  0.00    +0.000 OA
BRANCH  29  31
ATOM     31  O   UNL     1      -2.798  13.114  20.045  0.00  0.00    +0.000 OA
ATOM     32  H   UNL     1      -2.172  12.512  19.593  0.00  0.00    +0.000 HD
ENDBRANCH  29  31
ENDBRANCH  28  29
ENDBRANCH  27  28
ENDBRANCH  18  19
ENDBRANCH  17  18
ENDBRANCH   5  17
TORSDOF 9
ENDMDL
MODEL 3
REMARK VINA RESULT:      -8.0      2.581     10.293
REMARK  Name = 
REMARK  12 active torsions:
REMARK  status: ('A' for Active; 'I' for Inactive)
REMARK    1  A    between atoms: C_1  and  O_2
REMARK    2  A    between atoms: O_2  and  C_3
REMARK    3  A    between atoms: C_3  and  C_4
REMARK    4  A    between atoms: C_6  and  C_7
REMARK    5  A    between atoms: N_8  and  C_9
REMARK    6  A    between atoms: C_13  and  C_14
REMARK    7  A    between atoms: C_14  and  O_15
REMARK    8  A    between atoms: O_15  and  C_16
REMARK    9  A    between atoms: C_24  and  C_25
REMARK   10  A    between atoms: C_25  and  C_26
REMARK   11  A    between atoms: C_26  and  O_28
REMARK   12  A    between atoms: C_30  and  C_31
REMARK                            x       y       z     vdW  Elec       q    Type
REMARK                         _______ _______ _______ _____ _____    ______ ____
ROOT
ATOM      1  C   UNL     1      -1.570  11.477  18.796  0.00  0.00    +0.000 A 
ATOM      2  C   UNL     1      -0.591  12.447  18.536  0.00  0.00    +0.000 A 
ATOM      3  C   UNL     1       0.704  12.300  19.037  0.00  0.00    +0.000 A 
ATOM      4  C   UNL     1       1.018  11.202  19.822  0.00  0.00    +0.000 A 
ATOM      5  C   UNL     1       0.046  10.227  20.106  0.00  0.00    +0.000 A 
ATOM      6  C   UNL     1      -1.237  10.363  19.567  0.00  0.00    +0.000 A 
ENDROOT
BRANCH   1  11
ATOM      7  C   UNL     1      -5.136  11.922  18.093  0.00  0.00    +0.000 A 
ATOM      8  C   UNL     1      -4.671  11.322  16.903  0.00  0.00    +0.000 A 
ATOM      9  C   UNL     1      -3.315  11.103  17.023  0.00  0.00    +0.000 A 
ATOM     10  C   UNL     1      -2.458  10.361  16.050  0.00  0.00    +0.000 C 
ATOM     11  N   UNL     1      -2.897  11.580  18.259  0.00  0.00    +0.000 N 
ATOM     12  C   UNL     1      -4.020  12.104  18.911  0.00  0.00    +0.000 A 
ATOM     13  C   UNL     1      -4.039  12.816  20.230  0.00  0.00    +0.000 C 
BRANCH   7  14
ATOM     14  C   UNL     1      -6.559  12.285  18.397  0.00  0.00    +0.000 C 
BRANCH  14  16
ATOM     15  C   UNL     1      -7.291  10.902  20.157  0.00  0.00    +0.000 C 
ATOM     16  O   UNL     1      -7.320  11.131  18.757  0.00  0.00    +0.000 OA
ENDBRANCH  14  16
ENDBRANCH   7  14
ENDBRANCH   1  11
BRANCH   5  17
ATOM     17  C   UNL     1       0.325   9.077  21.010  0.00  0.00    +0.000 C 
BRANCH  17  18
ATOM     18  O   UNL     1       1.710   8.688  20.943  0.00  0.00    +0.000 OA
BRANCH  18  19
ATOM     19  C   UNL     1       1.912   7.618  20.101  0.00  0.00    +0.000 A 
ATOM     20  C   UNL     1       2.315   7.845  18.769  0.00  0.00    +0.000 A 
ATOM     21  C   UNL     1       2.728   6.778  17.912  0.00  0.00    +0.000 A 
ATOM     22  C   UNL     1       2.769   5.477  18.437  0.00  0.00    +0.000 A 
ATOM     23  C   UNL     1       2.279   5.333  19.738  0.00  0.00    +0.000 A 
ATOM     24  C   UNL     1       1.789   6.320  20.546  0.00  0.00    +0.000 A 
ATOM     25  O   UNL     1       2.419   4.071  20.259  0.00  0.00    +0.000 OA
ATOM     26  C   UNL     1       3.443   3.610  19.399  0.00  0.00    +0.000 C 
ATOM     27  C   UNL     1       3.063   4.079  17.967  0.00  0.00    +0.000 C 
BRANCH  27  28
ATOM     28  C   UNL     1       4.075   3.276  17.151  0.00  0.00    +0.000 C 
BRANCH  28  29
ATOM     29  C   UNL     1       5.234   3.932  16.471  0.00  0.00    +0.000 C 
ATOM     30  O   UNL     1       5.224   4.346  15.326  0.00  0.00    +0.000 OA
BRANCH  29  31
ATOM     31  O   UNL     1       6.303   4.085  17.313  0.00  0.00    +0.000 OA
ATOM     32  H   UNL     1       6.315   3.505  18.103  0.00  0.00    +0.000 HD
ENDBRANCH  29  31
ENDBRANCH  28  29
ENDBRANCH  27  28
ENDBRANCH  18  19
ENDBRANCH  17  18
ENDBRANCH   5  17
TORSDOF 9
ENDMDL
MODEL 4
REMARK VINA RESULT:      -7.9      2.505     10.329
REMARK  Name = 
REMARK  12 active torsions:
REMARK  status: ('A' for Active; 'I' for Inactive)
REMARK    1  A    between atoms: C_1  and  O_2
REMARK    2  A    between atoms: O_2  and  C_3
REMARK    3  A    between atoms: C_3  and  C_4
REMARK    4  A    between atoms: C_6  and  C_7
REMARK    5  A    between atoms: N_8  and  C_9
REMARK    6  A    between atoms: C_13  and  C_14
REMARK    7  A    between atoms: C_14  and  O_15
REMARK    8  A    between atoms: O_15  and  C_16
REMARK    9  A    between atoms: C_24  and  C_25
REMARK   10  A    between atoms: C_25  and  C_26
REMARK   11  A    between atoms: C_26  and  O_28
REMARK   12  A    between atoms: C_30  and  C_31
REMARK                            x       y       z     vdW  Elec       q    Type
REMARK                         _______ _______ _______ _____ _____    ______ ____
ROOT
ATOM      1  C   UNL     1      -1.786  11.556  18.932  0.00  0.00    +0.000 A 
ATOM      2  C   UNL     1      -0.882  12.624  18.852  0.00  0.00    +0.000 A 
ATOM      3  C   UNL     1       0.374  12.537  19.455  0.00  0.00    +0.000 A 
ATOM      4  C   UNL     1       0.720  11.398  20.164  0.00  0.00    +0.000 A 
ATOM      5  C   UNL     1      -0.179  10.323  20.270  0.00  0.00    +0.000 A 
ATOM      6  C   UNL     1      -1.419  10.404  19.628  0.00  0.00    +0.000 A 
ENDROOT
BRANCH   1  11
ATOM      7  C   UNL     1      -5.299  11.837  17.935  0.00  0.00    +0.000 A 
ATOM      8  C   UNL     1      -4.708  11.266  16.787  0.00  0.00    +0.000 A 
ATOM      9  C   UNL     1      -3.357  11.110  17.019  0.00  0.00    +0.000 A 
ATOM     10  C   UNL     1      -2.389  10.415  16.121  0.00  0.00    +0.000 C 
ATOM     11  N   UNL     1      -3.067  11.600  18.287  0.00  0.00    +0.000 N 
ATOM     12  C   UNL     1      -4.264  12.066  18.844  0.00  0.00    +0.000 A 
ATOM     13  C   UNL     1      -4.427  12.769  20.158  0.00  0.00    +0.000 C 
BRANCH   7  14
ATOM     14  C   UNL     1      -6.757  12.131  18.120  0.00  0.00    +0.000 C 
BRANCH  14  16
ATOM     15  C   UNL     1      -6.903  14.366  17.393  0.00  0.00    +0.000 C 
ATOM     16  O   UNL     1      -7.238  13.017  17.107  0.00  0.00    +0.000 OA
ENDBRANCH  14  16
ENDBRANCH   7  14
ENDBRANCH   1  11
BRANCH   5  17
ATOM     17  C   UNL     1       0.128   9.118  21.089  0.00  0.00    +0.000 C 
BRANCH  17  18
ATOM     18  O   UNL     1       1.532   8.799  21.041  0.00  0.00    +0.000 OA
BRANCH  18  19
ATOM     19  C   UNL     1       1.811   7.812  20.123  0.00  0.00    +0.000 A 
ATOM     20  C   UNL     1       2.115   8.164  18.792  0.00  0.00    +0.000 A 
ATOM     21  C   UNL     1       2.602   7.205  17.850  0.00  0.00    +0.000 A 
ATOM     22  C   UNL     1       2.822   5.890  18.287  0.00  0.00    +0.000 A 
ATOM     23  C   UNL     1       2.422   5.613  19.597  0.00  0.00    +0.000 A 
ATOM     24  C   UNL     1       1.864   6.485  20.488  0.00  0.00    +0.000 A 
ATOM     25  O   UNL     1       2.735   4.349  20.029  0.00  0.00    +0.000 OA
ATOM     26  C   UNL     1       3.759   4.063  19.096  0.00  0.00    +0.000 C 
ATOM     27  C   UNL     1       3.252   4.567  17.715  0.00  0.00    +0.000 C 
BRANCH  27  28
ATOM     28  C   UNL     1       4.306   3.939  16.804  0.00  0.00    +0.000 C 
BRANCH  28  29
ATOM     29  C   UNL     1       5.570   4.658  16.455  0.00  0.00    +0.000 C 
ATOM     30  O   UNL     1       5.623   5.753  15.927  0.00  0.00    +0.000 OA
BRANCH  29  31
ATOM     31  O   UNL     1       6.681   3.969  16.865  0.00  0.00    +0.000 OA
ATOM     32  H   UNL     1       6.570   3.409  17.660  0.00  0.00    +0.000 HD
ENDBRANCH  29  31
ENDBRANCH  28  29
ENDBRANCH  27  28
ENDBRANCH  18  19
ENDBRANCH  17  18
ENDBRANCH   5  17
TORSDOF 9
ENDMDL
MODEL 5
REMARK VINA RESULT:      -7.9      3.410      4.457
REMARK  Name = 
REMARK  12 active torsions:
REMARK  status: ('A' for Active; 'I' for Inactive)
REMARK    1  A    between atoms: C_1  and  O_2
REMARK    2  A    between atoms: O_2  and  C_3
REMARK    3  A    between atoms: C_3  and  C_4
REMARK    4  A    between atoms: C_6  and  C_7
REMARK    5  A    between atoms: N_8  and  C_9
REMARK    6  A    between atoms: C_13  and  C_14
REMARK    7  A    between atoms: C_14  and  O_15
REMARK    8  A    between atoms: O_15  and  C_16
REMARK    9  A    between atoms: C_24  and  C_25
REMARK   10  A    between atoms: C_25  and  C_26
REMARK   11  A    between atoms: C_26  and  O_28
REMARK   12  A    between atoms: C_30  and  C_31
REMARK                            x       y       z     vdW  Elec       q    Type
REMARK                         _______ _______ _______ _____ _____    ______ ____
ROOT
ATOM      1  C   UNL     1       4.273   4.410  19.067  0.00  0.00    +0.000 A 
ATOM      2  C   UNL     1       4.108   3.173  19.706  0.00  0.00    +0.000 A 
ATOM      3  C   UNL     1       3.096   2.992  20.650  0.00  0.00    +0.000 A 
ATOM      4  C   UNL     1       2.266   4.051  20.982  0.00  0.00    +0.000 A 
ATOM      5  C   UNL     1       2.426   5.303  20.365  0.00  0.00    +0.000 A 
ATOM      6  C   UNL     1       3.416   5.463  19.391  0.00  0.00    +0.000 A 
ENDROOT
BRANCH   1  11
ATOM      7  C   UNL     1       6.394   4.548  16.085  0.00  0.00    +0.000 A 
ATOM      8  C   UNL     1       7.249   5.066  17.083  0.00  0.00    +0.000 A 
ATOM      9  C   UNL     1       6.565   5.084  18.281  0.00  0.00    +0.000 A 
ATOM     10  C   UNL     1       7.144   5.423  19.615  0.00  0.00    +0.000 C 
ATOM     11  N   UNL     1       5.277   4.613  18.061  0.00  0.00    +0.000 N 
ATOM     12  C   UNL     1       5.166   4.302  16.701  0.00  0.00    +0.000 A 
ATOM     13  C   UNL     1       3.930   3.851  15.983  0.00  0.00    +0.000 C 
BRANCH   7  14
ATOM     14  C   UNL     1       6.758   4.317  14.650  0.00  0.00    +0.000 C 
BRANCH  14  16
ATOM     15  C   UNL     1       7.848   5.390  12.859  0.00  0.00    +0.000 C 
ATOM     16  O   UNL     1       7.856   5.141  14.256  0.00  0.00    +0.000 OA
ENDBRANCH  14  16
ENDBRANCH   7  14
ENDBRANCH   1  11
BRANCH   5  17
ATOM     17  C   UNL     1       1.605   6.483  20.753  0.00  0.00    +0.000 C 
BRANCH  17  18
ATOM     18  O   UNL     1       1.977   7.649  19.994  0.00  0.00    +0.000 OA
BRANCH  18  19
ATOM     19  C   UNL     1       1.346   8.787  20.442  0.00  0.00    +0.000 A 
ATOM     20  C   UNL     1       0.776   9.680  19.513  0.00  0.00    +0.000 A 
ATOM     21  C   UNL     1      -0.057  10.768  19.922  0.00  0.00    +0.000 A 
ATOM     22  C   UNL     1      -0.342  10.913  21.289  0.00  0.00    +0.000 A 
ATOM     23  C   UNL     1       0.326  10.033  22.144  0.00  0.00    +0.000 A 
ATOM     24  C   UNL     1       1.202   9.046  21.787  0.00  0.00    +0.000 A 
ATOM     25  O   UNL     1      -0.042  10.134  23.462  0.00  0.00    +0.000 OA
ATOM     26  C   UNL     1      -1.294  10.766  23.274  0.00  0.00    +0.000 C 
ATOM     27  C   UNL     1      -1.078  11.863  22.194  0.00  0.00    +0.000 C 
BRANCH  27  28
ATOM     28  C   UNL     1      -2.400  12.618  22.319  0.00  0.00    +0.000 C 
BRANCH  28  29
ATOM     29  C   UNL     1      -2.769  13.354  23.568  0.00  0.00    +0.000 C 
ATOM     30  O   UNL     1      -3.768  13.139  24.230  0.00  0.00    +0.000 OA
BRANCH  29  31
ATOM     31  O   UNL     1      -1.810  14.261  23.931  0.00  0.00    +0.000 OA
ATOM     32  H   UNL     1      -1.926  15.170  23.586  0.00  0.00    +0.000 HD
ENDBRANCH  29  31
ENDBRANCH  28  29
ENDBRANCH  27  28
ENDBRANCH  18  19
ENDBRANCH  17  18
ENDBRANCH   5  17
TORSDOF 9
ENDMDL
MODEL 6
REMARK VINA RESULT:      -7.7      3.359     10.404
REMARK  Name = 
REMARK  12 active torsions:
REMARK  status: ('A' for Active; 'I' for Inactive)
REMARK    1  A    between atoms: C_1  and  O_2
REMARK    2  A    between atoms: O_2  and  C_3
REMARK    3  A    between atoms: C_3  and  C_4
REMARK    4  A    between atoms: C_6  and  C_7
REMARK    5  A    between atoms: N_8  and  C_9
REMARK    6  A    between atoms: C_13  and  C_14
REMARK    7  A    between atoms: C_14  and  O_15
REMARK    8  A    between atoms: O_15  and  C_16
REMARK    9  A    between atoms: C_24  and  C_25
REMARK   10  A    between atoms: C_25  and  C_26
REMARK   11  A    between atoms: C_26  and  O_28
REMARK   12  A    between atoms: C_30  and  C_31
REMARK                            x       y       z     vdW  Elec       q    Type
REMARK                         _______ _______ _______ _____ _____    ______ ____
ROOT
ATOM      1  C   UNL     1       0.775   9.946  19.618  0.00  0.00    +0.000 A 
ATOM      2  C   UNL     1       0.646   9.469  20.930  0.00  0.00    +0.000 A 
ATOM      3  C   UNL     1       1.248   8.267  21.309  0.00  0.00    +0.000 A 
ATOM      4  C   UNL     1       1.953   7.525  20.375  0.00  0.00    +0.000 A 
ATOM      5  C   UNL     1       2.078   7.979  19.051  0.00  0.00    +0.000 A 
ATOM      6  C   UNL     1       1.507   9.203  18.691  0.00  0.00    +0.000 A 
ENDROOT
BRANCH   1  11
ATOM      7  C   UNL     1      -0.243  13.421  19.068  0.00  0.00    +0.000 A 
ATOM      8  C   UNL     1      -1.207  12.707  18.324  0.00  0.00    +0.000 A 
ATOM      9  C   UNL     1      -0.936  11.359  18.433  0.00  0.00    +0.000 A 
ATOM     10  C   UNL     1      -1.791  10.249  17.917  0.00  0.00    +0.000 C 
ATOM     11  N   UNL     1       0.204  11.199  19.210  0.00  0.00    +0.000 N 
ATOM     12  C   UNL     1       0.643  12.474  19.586  0.00  0.00    +0.000 A 
ATOM     13  C   UNL     1       1.890  12.804  20.348  0.00  0.00    +0.000 C 
BRANCH   7  14
ATOM     14  C   UNL     1      -0.200  14.907  19.253  0.00  0.00    +0.000 C 
BRANCH  14  16
ATOM     15  C   UNL     1       1.479  16.552  19.414  0.00  0.00    +0.000 C 
ATOM     16  O   UNL     1       0.969  15.469  18.652  0.00  0.00    +0.000 OA
ENDBRANCH  14  16
ENDBRANCH   7  14
ENDBRANCH   1  11
BRANCH   5  17
ATOM     17  C   UNL     1       2.760   7.170  18.003  0.00  0.00    +0.000 C 
BRANCH  17  18
ATOM     18  O   UNL     1       3.909   6.486  18.539  0.00  0.00    +0.000 OA
BRANCH  18  19
ATOM     19  C   UNL     1       4.550   5.722  17.590  0.00  0.00    +0.000 A 
ATOM     20  C   UNL     1       3.858   4.668  16.959  0.00  0.00    +0.000 A 
ATOM     21  C   UNL     1       4.403   3.972  15.836  0.00  0.00    +0.000 A 
ATOM     22  C   UNL     1       5.644   4.388  15.329  0.00  0.00    +0.000 A 
ATOM     23  C   UNL     1       6.294   5.385  16.062  0.00  0.00    +0.000 A 
ATOM     24  C   UNL     1       5.840   6.001  17.194  0.00  0.00    +0.000 A 
ATOM     25  O   UNL     1       7.457   5.838  15.493  0.00  0.00    +0.000 OA
ATOM     26  C   UNL     1       7.211   5.416  14.166  0.00  0.00    +0.000 C 
ATOM     27  C   UNL     1       6.621   3.981  14.260  0.00  0.00    +0.000 C 
BRANCH  27  28
ATOM     28  C   UNL     1       6.688   3.573  12.789  0.00  0.00    +0.000 C 
BRANCH  28  29
ATOM     29  C   UNL     1       5.529   2.927  12.100  0.00  0.00    +0.000 C 
ATOM     30  O   UNL     1       4.453   3.460  11.904  0.00  0.00    +0.000 OA
BRANCH  29  31
ATOM     31  O   UNL     1       5.839   1.674  11.642  0.00  0.00    +0.000 OA
ATOM     32  H   UNL     1       6.270   1.075  12.286  0.00  0.00    +0.000 HD
ENDBRANCH  29  31
ENDBRANCH  28  29
ENDBRANCH  27  28
ENDBRANCH  18  19
ENDBRANCH  17  18
ENDBRANCH   5  17
TORSDOF 9
ENDMDL
MODEL 7
REMARK VINA RESULT:      -7.6      2.676      3.953
REMARK  Name = 
REMARK  12 active torsions:
REMARK  status: ('A' for Active; 'I' for Inactive)
REMARK    1  A    between atoms: C_1  and  O_2
REMARK    2  A    between atoms: O_2  and  C_3
REMARK    3  A    between atoms: C_3  and  C_4
REMARK    4  A    between atoms: C_6  and  C_7
REMARK    5  A    between atoms: N_8  and  C_9
REMARK    6  A    between atoms: C_13  and  C_14
REMARK    7  A    between atoms: C_14  and  O_15
REMARK    8  A    between atoms: O_15  and  C_16
REMARK    9  A    between atoms: C_24  and  C_25
REMARK   10  A    between atoms: C_25  and  C_26
REMARK   11  A    between atoms: C_26  and  O_28
REMARK   12  A    between atoms: C_30  and  C_31
REMARK                            x       y       z     vdW  Elec       q    Type
REMARK                         _______ _______ _______ _____ _____    ______ ____
ROOT
ATOM      1  C   UNL     1       3.448   3.998  19.423  0.00  0.00    +0.000 A 
ATOM      2  C   UNL     1       3.229   2.860  20.213  0.00  0.00    +0.000 A 
ATOM      3  C   UNL     1       2.273   2.877  21.231  0.00  0.00    +0.000 A 
ATOM      4  C   UNL     1       1.556   4.035  21.483  0.00  0.00    +0.000 A 
ATOM      5  C   UNL     1       1.774   5.191  20.714  0.00  0.00    +0.000 A 
ATOM      6  C   UNL     1       2.704   5.152  19.670  0.00  0.00    +0.000 A 
ENDROOT
BRANCH   1  11
ATOM      7  C   UNL     1       6.224   4.451  17.078  0.00  0.00    +0.000 A 
ATOM      8  C   UNL     1       5.284   3.747  16.295  0.00  0.00    +0.000 A 
ATOM      9  C   UNL     1       4.170   3.493  17.067  0.00  0.00    +0.000 A 
ATOM     10  C   UNL     1       2.889   2.896  16.587  0.00  0.00    +0.000 C 
ATOM     11  N   UNL     1       4.393   3.997  18.342  0.00  0.00    +0.000 N 
ATOM     12  C   UNL     1       5.670   4.571  18.353  0.00  0.00    +0.000 A 
ATOM     13  C   UNL     1       6.380   5.155  19.537  0.00  0.00    +0.000 C 
BRANCH   7  14
ATOM     14  C   UNL     1       7.553   4.961  16.609  0.00  0.00    +0.000 C 
BRANCH  14  16
ATOM     15  C   UNL     1       7.600   7.265  17.096  0.00  0.00    +0.000 C 
ATOM     16  O   UNL     1       7.441   6.285  16.082  0.00  0.00    +0.000 OA
ENDBRANCH  14  16
ENDBRANCH   7  14
ENDBRANCH   1  11
BRANCH   5  17
ATOM     17  C   UNL     1       1.080   6.475  21.008  0.00  0.00    +0.000 C 
BRANCH  17  18
ATOM     18  O   UNL     1       1.839   7.600  20.524  0.00  0.00    +0.000 OA
BRANCH  18  19
ATOM     19  C   UNL     1       1.208   8.799  20.768  0.00  0.00    +0.000 A 
ATOM     20  C   UNL     1       0.719   9.562  19.689  0.00  0.00    +0.000 A 
ATOM     21  C   UNL     1      -0.111  10.708  19.888  0.00  0.00    +0.000 A 
ATOM     22  C   UNL     1      -0.479  11.047  21.200  0.00  0.00    +0.000 A 
ATOM     23  C   UNL     1       0.113  10.285  22.211  0.00  0.00    +0.000 A 
ATOM     24  C   UNL     1       0.985   9.245  22.052  0.00  0.00    +0.000 A 
ATOM     25  O   UNL     1      -0.336  10.575  23.474  0.00  0.00    +0.000 OA
ATOM     26  C   UNL     1      -1.557  11.193  23.119  0.00  0.00    +0.000 C 
ATOM     27  C   UNL     1      -1.247  12.125  21.914  0.00  0.00    +0.000 C 
BRANCH  27  28
ATOM     28  C   UNL     1      -2.557  12.909  21.847  0.00  0.00    +0.000 C 
BRANCH  28  29
ATOM     29  C   UNL     1      -3.571  12.655  20.778  0.00  0.00    +0.000 C 
ATOM     30  O   UNL     1      -4.744  12.399  20.980  0.00  0.00    +0.000 OA
BRANCH  29  31
ATOM     31  O   UNL     1      -3.044  12.816  19.524  0.00  0.00    +0.000 OA
ATOM     32  H   UNL     1      -3.349  13.603  19.027  0.00  0.00    +0.000 HD
ENDBRANCH  29  31
ENDBRANCH  28  29
ENDBRANCH  27  28
ENDBRANCH  18  19
ENDBRANCH  17  18
ENDBRANCH   5  17
TORSDOF 9
ENDMDL
MODEL 8
REMARK VINA RESULT:      -7.6      3.315     10.632
REMARK  Name = 
REMARK  12 active torsions:
REMARK  status: ('A' for Active; 'I' for Inactive)
REMARK    1  A    between atoms: C_1  and  O_2
REMARK    2  A    between atoms: O_2  and  C_3
REMARK    3  A    between atoms: C_3  and  C_4
REMARK    4  A    between atoms: C_6  and  C_7
REMARK    5  A    between atoms: N_8  and  C_9
REMARK    6  A    between atoms: C_13  and  C_14
REMARK    7  A    between atoms: C_14  and  O_15
REMARK    8  A    between atoms: O_15  and  C_16
REMARK    9  A    between atoms: C_24  and  C_25
REMARK   10  A    between atoms: C_25  and  C_26
REMARK   11  A    between atoms: C_26  and  O_28
REMARK   12  A    between atoms: C_30  and  C_31
REMARK                            x       y       z     vdW  Elec       q    Type
REMARK                         _______ _______ _______ _____ _____    ______ ____
ROOT
ATOM      1  C   UNL     1       1.096   9.299  19.775  0.00  0.00    +0.000 A 
ATOM      2  C   UNL     1       1.547   9.933  18.609  0.00  0.00    +0.000 A 
ATOM      3  C   UNL     1       2.330   9.242  17.683  0.00  0.00    +0.000 A 
ATOM      4  C   UNL     1       2.690   7.927  17.931  0.00  0.00    +0.000 A 
ATOM      5  C   UNL     1       2.262   7.279  19.103  0.00  0.00    +0.000 A 
ATOM      6  C   UNL     1       1.445   7.968  20.004  0.00  0.00    +0.000 A 
ENDROOT
BRANCH   1  11
ATOM      7  C   UNL     1      -1.287  11.374  21.625  0.00  0.00    +0.000 A 
ATOM      8  C   UNL     1      -0.557  10.760  22.666  0.00  0.00    +0.000 A 
ATOM      9  C   UNL     1       0.387   9.925  22.106  0.00  0.00    +0.000 A 
ATOM     10  C   UNL     1       1.460   9.195  22.846  0.00  0.00    +0.000 C 
ATOM     11  N   UNL     1       0.255   9.972  20.724  0.00  0.00    +0.000 N 
ATOM     12  C   UNL     1      -0.793  10.852  20.429  0.00  0.00    +0.000 A 
ATOM     13  C   UNL     1      -1.363  11.145  19.074  0.00  0.00    +0.000 C 
BRANCH   7  14
ATOM     14  C   UNL     1      -2.378  12.388  21.797  0.00  0.00    +0.000 C 
BRANCH  14  16
ATOM     15  C   UNL     1      -3.514  12.354  23.859  0.00  0.00    +0.000 C 
ATOM     16  O   UNL     1      -2.415  12.885  23.136  0.00  0.00    +0.000 OA
ENDBRANCH  14  16
ENDBRANCH   7  14
ENDBRANCH   1  11
BRANCH   5  17
ATOM     17  C   UNL     1       2.695   5.895  19.440  0.00  0.00    +0.000 C 
BRANCH  17  18
ATOM     18  O   UNL     1       4.131   5.787  19.454  0.00  0.00    +0.000 OA
BRANCH  18  19
ATOM     19  C   UNL     1       4.617   5.153  18.333  0.00  0.00    +0.000 A 
ATOM     20  C   UNL     1       3.724   4.506  17.455  0.00  0.00    +0.000 A 
ATOM     21  C   UNL     1       4.144   4.006  16.184  0.00  0.00    +0.000 A 
ATOM     22  C   UNL     1       5.477   4.208  15.792  0.00  0.00    +0.000 A 
ATOM     23  C   UNL     1       6.309   4.788  16.754  0.00  0.00    +0.000 A 
ATOM     24  C   UNL     1       5.956   5.188  18.012  0.00  0.00    +0.000 A 
ATOM     25  O   UNL     1       7.579   5.061  16.313  0.00  0.00    +0.000 OA
ATOM     26  C   UNL     1       7.314   5.067  14.923  0.00  0.00    +0.000 C 
ATOM     27  C   UNL     1       6.383   3.854  14.645  0.00  0.00    +0.000 C 
BRANCH  27  28
ATOM     28  C   UNL     1       6.432   3.831  13.118  0.00  0.00    +0.000 C 
BRANCH  28  29
ATOM     29  C   UNL     1       5.417   3.087  12.310  0.00  0.00    +0.000 C 
ATOM     30  O   UNL     1       4.293   3.487  12.069  0.00  0.00    +0.000 OA
BRANCH  29  31
ATOM     31  O   UNL     1       5.922   1.919  11.804  0.00  0.00    +0.000 OA
ATOM     32  H   UNL     1       6.635   1.496  12.326  0.00  0.00    +0.000 HD
ENDBRANCH  29  31
ENDBRANCH  28  29
ENDBRANCH  27  28
ENDBRANCH  18  19
ENDBRANCH  17  18
ENDBRANCH   5  17
TORSDOF 9
ENDMDL
MODEL 9
REMARK VINA RESULT:      -7.6      3.520      4.243
REMARK  Name = 
REMARK  12 active torsions:
REMARK  status: ('A' for Active; 'I' for Inactive)
REMARK    1  A    between atoms: C_1  and  O_2
REMARK    2  A    between atoms: O_2  and  C_3
REMARK    3  A    between atoms: C_3  and  C_4
REMARK    4  A    between atoms: C_6  and  C_7
REMARK    5  A    between atoms: N_8  and  C_9
REMARK    6  A    between atoms: C_13  and  C_14
REMARK    7  A    between atoms: C_14  and  O_15
REMARK    8  A    between atoms: O_15  and  C_16
REMARK    9  A    between atoms: C_24  and  C_25
REMARK   10  A    between atoms: C_25  and  C_26
REMARK   11  A    between atoms: C_26  and  O_28
REMARK   12  A    between atoms: C_30  and  C_31
REMARK                            x       y       z     vdW  Elec       q    Type
REMARK                         _______ _______ _______ _____ _____    ______ ____
ROOT
ATOM      1  C   UNL     1       2.685   6.973  18.214  0.00  0.00    +0.000 A 
ATOM      2  C   UNL     1       2.389   8.018  17.328  0.00  0.00    +0.000 A 
ATOM      3  C   UNL     1       1.763   9.180  17.784  0.00  0.00    +0.000 A 
ATOM      4  C   UNL     1       1.404   9.289  19.118  0.00  0.00    +0.000 A 
ATOM      5  C   UNL     1       1.676   8.245  20.018  0.00  0.00    +0.000 A 
ATOM      6  C   UNL     1       2.340   7.103  19.559  0.00  0.00    +0.000 A 
ENDROOT
BRANCH   1  11
ATOM      7  C   UNL     1       4.907   4.401  16.852  0.00  0.00    +0.000 A 
ATOM      8  C   UNL     1       3.762   3.652  17.198  0.00  0.00    +0.000 A 
ATOM      9  C   UNL     1       2.827   4.506  17.744  0.00  0.00    +0.000 A 
ATOM     10  C   UNL     1       1.425   4.149  18.114  0.00  0.00    +0.000 C 
ATOM     11  N   UNL     1       3.366   5.786  17.781  0.00  0.00    +0.000 N 
ATOM     12  C   UNL     1       4.658   5.716  17.248  0.00  0.00    +0.000 A 
ATOM     13  C   UNL     1       5.658   6.830  17.172  0.00  0.00    +0.000 C 
BRANCH   7  14
ATOM     14  C   UNL     1       6.140   3.866  16.187  0.00  0.00    +0.000 C 
BRANCH  14  16
ATOM     15  C   UNL     1       7.041   4.828  14.236  0.00  0.00    +0.000 C 
ATOM     16  O   UNL     1       6.046   3.966  14.765  0.00  0.00    +0.000 OA
ENDBRANCH  14  16
ENDBRANCH   7  14
ENDBRANCH   1  11
BRANCH   5  17
ATOM     17  C   UNL     1       1.234   8.295  21.439  0.00  0.00    +0.000 C 
BRANCH  17  18
ATOM     18  O   UNL     1       1.540   9.569  22.035  0.00  0.00    +0.000 OA
BRANCH  18  19
ATOM     19  C   UNL     1       0.438  10.392  22.103  0.00  0.00    +0.000 A 
ATOM     20  C   UNL     1      -0.596  10.098  23.015  0.00  0.00    +0.000 A 
ATOM     21  C   UNL     1      -1.663  11.015  23.269  0.00  0.00    +0.000 A 
ATOM     22  C   UNL     1      -1.646  12.258  22.618  0.00  0.00    +0.000 A 
ATOM     23  C   UNL     1      -0.629  12.433  21.675  0.00  0.00    +0.000 A 
ATOM     24  C   UNL     1       0.347  11.536  21.343  0.00  0.00    +0.000 A 
ATOM     25  O   UNL     1      -0.578  13.688  21.123  0.00  0.00    +0.000 OA
ATOM     26  C   UNL     1      -1.293  14.380  22.129  0.00  0.00    +0.000 C 
ATOM     27  C   UNL     1      -2.507  13.485  22.504  0.00  0.00    +0.000 C 
BRANCH  27  28
ATOM     28  C   UNL     1      -3.307  14.472  23.354  0.00  0.00    +0.000 C 
BRANCH  28  29
ATOM     29  C   UNL     1      -3.355  14.365  24.845  0.00  0.00    +0.000 C 
ATOM     30  O   UNL     1      -2.876  15.177  25.615  0.00  0.00    +0.000 OA
BRANCH  29  31
ATOM     31  O   UNL     1      -4.071  13.274  25.257  0.00  0.00    +0.000 OA
ATOM     32  H   UNL     1      -5.042  13.326  25.137  0.00  0.00    +0.000 HD
ENDBRANCH  29  31
ENDBRANCH  28  29
ENDBRANCH  27  28
ENDBRANCH  18  19
ENDBRANCH  17  18
ENDBRANCH   5  17
TORSDOF 9
ENDMDL
