MODEL 1
REMARK VINA RESULT:      -7.6      0.000      0.000
REMARK  Name = 
REMARK  6 active torsions:
REMARK  status: ('A' for Active; 'I' for Inactive)
REMARK    1  A    between atoms: C_1  and  O_2
REMARK    2  A    between atoms: O_2  and  C_3
REMARK    3  A    between atoms: C_8  and  N_9
REMARK    4  A    between atoms: C_10  and  C_12
REMARK    5  A    between atoms: C_12  and  C_13
REMARK    6  A    between atoms: C_12  and  N_14
REMARK                            x       y       z     vdW  Elec       q    Type
REMARK                         _______ _______ _______ _____ _____    ______ ____
ROOT
ATOM      1  C   UNL     1       3.352   3.948  20.110  0.00  0.00    +0.000 C 
ATOM      2  C   UNL     1       2.664   2.594  20.296  0.00  0.00    +0.000 C 
ENDROOT
BRANCH   1   3
ATOM      3  N   UNL     1       4.179   4.002  18.902  0.00  0.00    +0.000 N 
ATOM      4  C   UNL     1       5.471   4.473  18.914  0.00  0.00    +0.000 C 
ATOM      5  O   UNL     1       6.152   4.734  19.888  0.00  0.00    +0.000 OA
ATOM      6  C   UNL     1       5.808   4.775  17.480  0.00  0.00    +0.000 C 
ATOM      7  C   UNL     1       7.235   4.739  16.988  0.00  0.00    +0.000 C 
ATOM      8  C   UNL     1       7.224   5.030  15.477  0.00  0.00    +0.000 C 
ATOM      9  C   UNL     1       6.293   4.082  14.699  0.00  0.00    +0.000 C 
ATOM     10  C   UNL     1       4.871   4.038  15.284  0.00  0.00    +0.000 C 
ATOM     11  C   UNL     1       4.962   3.734  16.765  0.00  0.00    +0.000 C 
ATOM     12  C   UNL     1       3.728   3.784  17.617  0.00  0.00    +0.000 C 
ATOM     13  O   UNL     1       2.591   3.622  17.218  0.00  0.00    +0.000 OA
ENDBRANCH   1   3
BRANCH   1  15
ATOM     14  N   UNL     1       2.816   6.373  19.999  0.00  0.00    +0.000 N 
ATOM     15  C   UNL     1       2.309   5.075  20.039  0.00  0.00    +0.000 C 
ATOM     16  O   UNL     1       1.113   4.790  19.980  0.00  0.00    +0.000 OA
ATOM     17  H   UNL     1       3.814   6.522  19.847  0.00  0.00    +0.000 HD
BRANCH  14  23
ATOM     18  C   UNL     1       1.722   8.283  18.897  0.00  0.00    +0.000 A 
ATOM     19  C   UNL     1       0.954   9.458  18.984  0.00  0.00    +0.000 A 
ATOM     20  C   UNL     1       0.452   9.898  20.208  0.00  0.00    +0.000 A 
ATOM     21  C   UNL     1       0.743   9.188  21.360  0.00  0.00    +0.000 A 
ATOM     22  C   UNL     1       1.538   8.043  21.289  0.00  0.00    +0.000 A 
ATOM     23  C   UNL     1       2.024   7.559  20.070  0.00  0.00    +0.000 A 
BRANCH  18  25
ATOM     24  C   UNL     1       3.613   7.929  17.508  0.00  0.00    +0.000 C 
ATOM     25  O   UNL     1       2.201   7.791  17.699  0.00  0.00    +0.000 OA
ENDBRANCH  18  25
ENDBRANCH  14  23
ENDBRANCH   1  15
TORSDOF 4
ENDMDL
MODEL 2
REMARK VINA RESULT:      -7.5      0.284      1.843
REMARK  Name = 
REMARK  6 active torsions:
REMARK  status: ('A' for Active; 'I' for Inactive)
REMARK    1  A    between atoms: C_1  and  O_2
REMARK    2  A    between atoms: O_2  and  C_3
REMARK    3  A    between atoms: C_8  and  N_9
REMARK    4  A    between atoms: C_10  and  C_12
REMARK    5  A    between atoms: C_12  and  C_13
REMARK    6  A    between atoms: C_12  and  N_14
REMARK                            x       y       z     vdW  Elec       q    Type
REMARK                         _______ _______ _______ _____ _____    ______ ____
ROOT
ATOM      1  C   UNL     1       3.269   4.131  20.190  0.00  0.00    +0.000 C 
ATOM      2  C   UNL     1       2.608   2.753  20.259  0.00  0.00    +0.000 C 
ENDROOT
BRANCH   1   3
ATOM      3  N   UNL     1       4.096   4.303  18.994  0.00  0.00    +0.000 N 
ATOM      4  C   UNL     1       3.634   4.015  17.730  0.00  0.00    +0.000 C 
ATOM      5  O   UNL     1       2.491   3.758  17.404  0.00  0.00    +0.000 OA
ATOM      6  C   UNL     1       4.860   3.897  16.866  0.00  0.00    +0.000 C 
ATOM      7  C   UNL     1       4.799   4.174  15.383  0.00  0.00    +0.000 C 
ATOM      8  C   UNL     1       6.222   4.028  14.815  0.00  0.00    +0.000 C 
ATOM      9  C   UNL     1       7.246   4.908  15.552  0.00  0.00    +0.000 C 
ATOM     10  C   UNL     1       7.215   4.702  17.075  0.00  0.00    +0.000 C 
ATOM     11  C   UNL     1       5.791   4.875  17.562  0.00  0.00    +0.000 C 
ATOM     12  C   UNL     1       5.447   4.578  18.992  0.00  0.00    +0.000 C 
ATOM     13  O   UNL     1       6.225   4.619  19.926  0.00  0.00    +0.000 OA
ENDBRANCH   1   3
BRANCH   1  15
ATOM     14  N   UNL     1       2.683   6.546  20.120  0.00  0.00    +0.000 N 
ATOM     15  C   UNL     1       2.204   5.240  20.212  0.00  0.00    +0.000 C 
ATOM     16  O   UNL     1       1.013   4.934  20.265  0.00  0.00    +0.000 OA
ATOM     17  H   UNL     1       3.659   6.711  19.874  0.00  0.00    +0.000 HD
BRANCH  14  23
ATOM     18  C   UNL     1       1.502   8.460  19.119  0.00  0.00    +0.000 A 
ATOM     19  C   UNL     1       0.724   9.622  19.273  0.00  0.00    +0.000 A 
ATOM     20  C   UNL     1       0.287  10.031  20.533  0.00  0.00    +0.000 A 
ATOM     21  C   UNL     1       0.652   9.303  21.651  0.00  0.00    +0.000 A 
ATOM     22  C   UNL     1       1.457   8.172  21.513  0.00  0.00    +0.000 A 
ATOM     23  C   UNL     1       1.880   7.718  20.259  0.00  0.00    +0.000 A 
BRANCH  18  25
ATOM     24  C   UNL     1       3.253   8.363  17.522  0.00  0.00    +0.000 C 
ATOM     25  O   UNL     1       1.918   7.999  17.887  0.00  0.00    +0.000 OA
ENDBRANCH  18  25
ENDBRANCH  14  23
ENDBRANCH   1  15
TORSDOF 4
ENDMDL
MODEL 3
REMARK VINA RESULT:      -7.4      1.053      1.894
REMARK  Name = 
REMARK  6 active torsions:
REMARK  status: ('A' for Active; 'I' for Inactive)
REMARK    1  A    between atoms: C_1  and  O_2
REMARK    2  A    between atoms: O_2  and  C_3
REMARK    3  A    between atoms: C_8  and  N_9
REMARK    4  A    between atoms: C_10  and  C_12
REMARK    5  A    between atoms: C_12  and  C_13
REMARK    6  A    between atoms: C_12  and  N_14
REMARK                            x       y       z     vdW  Elec       q    Type
REMARK                         _______ _______ _______ _____ _____    ______ ____
ROOT
ATOM      1  C   UNL     1       3.416   4.705  20.127  0.00  0.00    +0.000 C 
ATOM      2  C   UNL     1       2.823   3.389  20.632  0.00  0.00    +0.000 C 
ENDROOT
BRANCH   1   3
ATOM      3  N   UNL     1       4.231   4.535  18.922  0.00  0.00    +0.000 N 
ATOM      4  C   UNL     1       5.563   4.876  18.877  0.00  0.00    +0.000 C 
ATOM      5  O   UNL     1       6.276   5.185  19.813  0.00  0.00    +0.000 OA
ATOM      6  C   UNL     1       5.910   4.970  17.417  0.00  0.00    +0.000 C 
ATOM      7  C   UNL     1       7.322   4.737  16.934  0.00  0.00    +0.000 C 
ATOM      8  C   UNL     1       7.321   4.845  15.398  0.00  0.00    +0.000 C 
ATOM      9  C   UNL     1       6.295   3.906  14.740  0.00  0.00    +0.000 C 
ATOM     10  C   UNL     1       4.883   4.070  15.326  0.00  0.00    +0.000 C 
ATOM     11  C   UNL     1       4.961   3.938  16.833  0.00  0.00    +0.000 C 
ATOM     12  C   UNL     1       3.746   4.208  17.672  0.00  0.00    +0.000 C 
ATOM     13  O   UNL     1       2.595   4.111  17.295  0.00  0.00    +0.000 OA
ENDBRANCH   1   3
BRANCH   1  15
ATOM     14  N   UNL     1       2.719   6.997  19.460  0.00  0.00    +0.000 N 
ATOM     15  C   UNL     1       2.300   5.718  19.823  0.00  0.00    +0.000 C 
ATOM     16  O   UNL     1       1.125   5.354  19.869  0.00  0.00    +0.000 OA
ATOM     17  H   UNL     1       3.701   7.165  19.246  0.00  0.00    +0.000 HD
BRANCH  14  23
ATOM     18  C   UNL     1       1.249   8.743  20.383  0.00  0.00    +0.000 A 
ATOM     19  C   UNL     1       0.384   9.832  20.181  0.00  0.00    +0.000 A 
ATOM     20  C   UNL     1       0.141  10.328  18.900  0.00  0.00    +0.000 A 
ATOM     21  C   UNL     1       0.733   9.717  17.808  0.00  0.00    +0.000 A 
ATOM     22  C   UNL     1       1.561   8.610  17.995  0.00  0.00    +0.000 A 
ATOM     23  C   UNL     1       1.851   8.114  19.272  0.00  0.00    +0.000 A 
BRANCH  18  25
ATOM     24  C   UNL     1       1.251   9.133  22.723  0.00  0.00    +0.000 C 
ATOM     25  O   UNL     1       1.548   8.250  21.637  0.00  0.00    +0.000 OA
ENDBRANCH  18  25
ENDBRANCH  14  23
ENDBRANCH   1  15
TORSDOF 4
ENDMDL
MODEL 4
REMARK VINA RESULT:      -7.2      1.120      2.665
REMARK  Name = 
REMARK  6 active torsions:
REMARK  status: ('A' for Active; 'I' for Inactive)
REMARK    1  A    between atoms: C_1  and  O_2
REMARK    2  A    between atoms: O_2  and  C_3
REMARK    3  A    between atoms: C_8  and  N_9
REMARK    4  A    between atoms: C_10  and  C_12
REMARK    5  A    between atoms: C_12  and  C_13
REMARK    6  A    between atoms: C_12  and  N_14
REMARK                            x       y       z     vdW  Elec       q    Type
REMARK                         _______ _______ _______ _____ _____    ______ ____
ROOT
ATOM      1  C   UNL     1       3.396   4.897  20.119  0.00  0.00    +0.000 C 
ATOM      2  C   UNL     1       2.851   3.521  20.506  0.00  0.00    +0.000 C 
ENDROOT
BRANCH   1   3
ATOM      3  N   UNL     1       4.224   4.860  18.912  0.00  0.00    +0.000 N 
ATOM      4  C   UNL     1       3.741   4.428  17.699  0.00  0.00    +0.000 C 
ATOM      5  O   UNL     1       2.584   4.191  17.408  0.00  0.00    +0.000 OA
ATOM      6  C   UNL     1       4.954   4.128  16.861  0.00  0.00    +0.000 C 
ATOM      7  C   UNL     1       4.901   4.203  15.354  0.00  0.00    +0.000 C 
ATOM      8  C   UNL     1       6.310   3.904  14.813  0.00  0.00    +0.000 C 
ATOM      9  C   UNL     1       7.384   4.820  15.426  0.00  0.00    +0.000 C 
ATOM     10  C   UNL     1       7.350   4.826  16.963  0.00  0.00    +0.000 C 
ATOM     11  C   UNL     1       5.941   5.140  17.419  0.00  0.00    +0.000 C 
ATOM     12  C   UNL     1       5.589   5.059  18.876  0.00  0.00    +0.000 C 
ATOM     13  O   UNL     1       6.372   5.185  19.796  0.00  0.00    +0.000 OA
ENDBRANCH   1   3
BRANCH   1  15
ATOM     14  N   UNL     1       2.609   7.162  19.459  0.00  0.00    +0.000 N 
ATOM     15  C   UNL     1       2.242   5.888  19.890  0.00  0.00    +0.000 C 
ATOM     16  O   UNL     1       1.082   5.512  20.049  0.00  0.00    +0.000 OA
ATOM     17  H   UNL     1       3.567   7.336  19.154  0.00  0.00    +0.000 HD
BRANCH  14  23
ATOM     18  C   UNL     1       1.135   8.858  20.463  0.00  0.00    +0.000 A 
ATOM     19  C   UNL     1       0.241   9.933  20.309  0.00  0.00    +0.000 A 
ATOM     20  C   UNL     1      -0.055  10.446  19.046  0.00  0.00    +0.000 A 
ATOM     21  C   UNL     1       0.513   9.869  17.925  0.00  0.00    +0.000 A 
ATOM     22  C   UNL     1       1.370   8.776  18.064  0.00  0.00    +0.000 A 
ATOM     23  C   UNL     1       1.712   8.264  19.320  0.00  0.00    +0.000 A 
BRANCH  18  25
ATOM     24  C   UNL     1       1.205   9.206  22.808  0.00  0.00    +0.000 C 
ATOM     25  O   UNL     1       1.486   8.350  21.696  0.00  0.00    +0.000 OA
ENDBRANCH  18  25
ENDBRANCH  14  23
ENDBRANCH   1  15
TORSDOF 4
ENDMDL
MODEL 5
REMARK VINA RESULT:      -7.0      2.739      6.869
REMARK  Name = 
REMARK  6 active torsions:
REMARK  status: ('A' for Active; 'I' for Inactive)
REMARK    1  A    between atoms: C_1  and  O_2
REMARK    2  A    between atoms: O_2  and  C_3
REMARK    3  A    between atoms: C_8  and  N_9
REMARK    4  A    between atoms: C_10  and  C_12
REMARK    5  A    between atoms: C_12  and  C_13
REMARK    6  A    between atoms: C_12  and  N_14
REMARK                            x       y       z     vdW  Elec       q    Type
REMARK                         _______ _______ _______ _____ _____    ______ ____
ROOT
ATOM      1  C   UNL     1       6.587   6.008  17.783  0.00  0.00    +0.000 C 
ATOM      2  C   UNL     1       6.511   7.496  17.435  0.00  0.00    +0.000 C 
ENDROOT
BRANCH   1   3
ATOM      3  N   UNL     1       5.338   5.494  18.349  0.00  0.00    +0.000 N 
ATOM      4  C   UNL     1       5.303   4.407  19.192  0.00  0.00    +0.000 C 
ATOM      5  O   UNL     1       6.250   3.846  19.711  0.00  0.00    +0.000 OA
ATOM      6  C   UNL     1       3.874   3.939  19.195  0.00  0.00    +0.000 C 
ATOM      7  C   UNL     1       3.296   3.199  20.377  0.00  0.00    +0.000 C 
ATOM      8  C   UNL     1       1.811   2.924  20.085  0.00  0.00    +0.000 C 
ATOM      9  C   UNL     1       1.031   4.203  19.735  0.00  0.00    +0.000 C 
ATOM     10  C   UNL     1       1.695   5.011  18.608  0.00  0.00    +0.000 C 
ATOM     11  C   UNL     1       3.146   5.254  18.971  0.00  0.00    +0.000 C 
ATOM     12  C   UNL     1       4.071   5.889  17.975  0.00  0.00    +0.000 C 
ATOM     13  O   UNL     1       3.731   6.622  17.067  0.00  0.00    +0.000 OA
ENDBRANCH   1   3
BRANCH   1  15
ATOM     14  N   UNL     1       6.222   5.495  15.377  0.00  0.00    +0.000 N 
ATOM     15  C   UNL     1       6.934   5.181  16.534  0.00  0.00    +0.000 C 
ATOM     16  O   UNL     1       7.826   4.335  16.597  0.00  0.00    +0.000 OA
ATOM     17  H   UNL     1       5.649   6.338  15.349  0.00  0.00    +0.000 HD
BRANCH  14  23
ATOM     18  C   UNL     1       7.395   4.924  13.290  0.00  0.00    +0.000 A 
ATOM     19  C   UNL     1       7.443   4.207  12.081  0.00  0.00    +0.000 A 
ATOM     20  C   UNL     1       6.433   3.306  11.741  0.00  0.00    +0.000 A 
ATOM     21  C   UNL     1       5.352   3.140  12.589  0.00  0.00    +0.000 A 
ATOM     22  C   UNL     1       5.276   3.878  13.771  0.00  0.00    +0.000 A 
ATOM     23  C   UNL     1       6.291   4.761  14.154  0.00  0.00    +0.000 A 
BRANCH  18  25
ATOM     24  C   UNL     1       9.274   6.216  12.637  0.00  0.00    +0.000 C 
ATOM     25  O   UNL     1       8.394   5.792  13.682  0.00  0.00    +0.000 OA
ENDBRANCH  18  25
ENDBRANCH  14  23
ENDBRANCH   1  15
TORSDOF 4
ENDMDL
MODEL 6
REMARK VINA RESULT:      -6.7      2.046      4.223
REMARK  Name = 
REMARK  6 active torsions:
REMARK  status: ('A' for Active; 'I' for Inactive)
REMARK    1  A    between atoms: C_1  and  O_2
REMARK    2  A    between atoms: O_2  and  C_3
REMARK    3  A    between atoms: C_8  and  N_9
REMARK    4  A    between atoms: C_10  and  C_12
REMARK    5  A    between atoms: C_12  and  C_13
REMARK    6  A    between atoms: C_12  and  N_14
REMARK                            x       y       z     vdW  Elec       q    Type
REMARK                         _______ _______ _______ _____ _____    ______ ____
ROOT
ATOM      1  C   UNL     1       5.911   5.677  17.856  0.00  0.00    +0.000 C 
ATOM      2  C   UNL     1       6.795   5.016  18.915  0.00  0.00    +0.000 C 
ENDROOT
BRANCH   1   3
ATOM      3  N   UNL     1       6.218   5.224  16.497  0.00  0.00    +0.000 N 
ATOM      4  C   UNL     1       7.162   5.843  15.710  0.00  0.00    +0.000 C 
ATOM      5  O   UNL     1       7.963   6.693  16.050  0.00  0.00    +0.000 OA
ATOM      6  C   UNL     1       6.877   5.392  14.304  0.00  0.00    +0.000 C 
ATOM      7  C   UNL     1       7.969   5.346  13.262  0.00  0.00    +0.000 C 
ATOM      8  C   UNL     1       7.363   4.785  11.963  0.00  0.00    +0.000 C 
ATOM      9  C   UNL     1       6.671   3.427  12.172  0.00  0.00    +0.000 C 
ATOM     10  C   UNL     1       5.644   3.457  13.316  0.00  0.00    +0.000 C 
ATOM     11  C   UNL     1       6.315   4.004  14.559  0.00  0.00    +0.000 C 
ATOM     12  C   UNL     1       5.500   4.285  15.788  0.00  0.00    +0.000 C 
ATOM     13  O   UNL     1       4.449   3.744  16.074  0.00  0.00    +0.000 OA
ENDBRANCH   1   3
BRANCH   1  15
ATOM     14  N   UNL     1       4.160   4.269  18.922  0.00  0.00    +0.000 N 
ATOM     15  C   UNL     1       4.427   5.393  18.141  0.00  0.00    +0.000 C 
ATOM     16  O   UNL     1       3.570   6.168  17.716  0.00  0.00    +0.000 OA
ATOM     17  H   UNL     1       4.923   3.796  19.404  0.00  0.00    +0.000 HD
BRANCH  14  23
ATOM     18  C   UNL     1       2.040   4.353  20.171  0.00  0.00    +0.000 A 
ATOM     19  C   UNL     1       0.764   3.824  20.432  0.00  0.00    +0.000 A 
ATOM     20  C   UNL     1       0.274   2.739  19.704  0.00  0.00    +0.000 A 
ATOM     21  C   UNL     1       1.068   2.153  18.735  0.00  0.00    +0.000 A 
ATOM     22  C   UNL     1       2.352   2.645  18.497  0.00  0.00    +0.000 A 
ATOM     23  C   UNL     1       2.855   3.754  19.186  0.00  0.00    +0.000 A 
BRANCH  18  25
ATOM     24  C   UNL     1       1.816   6.666  20.644  0.00  0.00    +0.000 C 
ATOM     25  O   UNL     1       2.544   5.450  20.839  0.00  0.00    +0.000 OA
ENDBRANCH  18  25
ENDBRANCH  14  23
ENDBRANCH   1  15
TORSDOF 4
ENDMDL
MODEL 7
REMARK VINA RESULT:      -6.7      2.611      4.339
REMARK  Name = 
REMARK  6 active torsions:
REMARK  status: ('A' for Active; 'I' for Inactive)
REMARK    1  A    between atoms: C_1  and  O_2
REMARK    2  A    between atoms: O_2  and  C_3
REMARK    3  A    between atoms: C_8  and  N_9
REMARK    4  A    between atoms: C_10  and  C_12
REMARK    5  A    between atoms: C_12  and  C_13
REMARK    6  A    between atoms: C_12  and  N_14
REMARK                            x       y       z     vdW  Elec       q    Type
REMARK                         _______ _______ _______ _____ _____    ______ ____
ROOT
ATOM      1  C   UNL     1       6.111   5.923  17.940  0.00  0.00    +0.000 C 
ATOM      2  C   UNL     1       7.085   5.342  18.967  0.00  0.00    +0.000 C 
ENDROOT
BRANCH   1   3
ATOM      3  N   UNL     1       6.307   5.371  16.598  0.00  0.00    +0.000 N 
ATOM      4  C   UNL     1       7.204   5.907  15.703  0.00  0.00    +0.000 C 
ATOM      5  O   UNL     1       8.050   6.753  15.925  0.00  0.00    +0.000 OA
ATOM      6  C   UNL     1       6.806   5.370  14.356  0.00  0.00    +0.000 C 
ATOM      7  C   UNL     1       7.816   5.222  13.244  0.00  0.00    +0.000 C 
ATOM      8  C   UNL     1       7.102   4.593  12.034  0.00  0.00    +0.000 C 
ATOM      9  C   UNL     1       6.394   3.273  12.387  0.00  0.00    +0.000 C 
ATOM     10  C   UNL     1       5.455   3.411  13.597  0.00  0.00    +0.000 C 
ATOM     11  C   UNL     1       6.229   4.020  14.747  0.00  0.00    +0.000 C 
ATOM     12  C   UNL     1       5.514   4.407  16.009  0.00  0.00    +0.000 C 
ATOM     13  O   UNL     1       4.474   3.919  16.406  0.00  0.00    +0.000 OA
ENDBRANCH   1   3
BRANCH   1  15
ATOM     14  N   UNL     1       4.475   4.661  19.324  0.00  0.00    +0.000 N 
ATOM     15  C   UNL     1       4.658   5.661  18.369  0.00  0.00    +0.000 C 
ATOM     16  O   UNL     1       3.755   6.351  17.898  0.00  0.00    +0.000 OA
ATOM     17  H   UNL     1       5.282   4.277  19.815  0.00  0.00    +0.000 HD
BRANCH  14  23
ATOM     18  C   UNL     1       2.962   2.781  19.807  0.00  0.00    +0.000 A 
ATOM     19  C   UNL     1       1.701   2.312  20.218  0.00  0.00    +0.000 A 
ATOM     20  C   UNL     1       0.699   3.199  20.613  0.00  0.00    +0.000 A 
ATOM     21  C   UNL     1       0.937   4.561  20.567  0.00  0.00    +0.000 A 
ATOM     22  C   UNL     1       2.171   5.038  20.122  0.00  0.00    +0.000 A 
ATOM     23  C   UNL     1       3.206   4.170  19.754  0.00  0.00    +0.000 A 
BRANCH  18  25
ATOM     24  C   UNL     1       3.741   1.128  18.295  0.00  0.00    +0.000 C 
ATOM     25  O   UNL     1       3.992   1.936  19.450  0.00  0.00    +0.000 OA
ENDBRANCH  18  25
ENDBRANCH  14  23
ENDBRANCH   1  15
TORSDOF 4
ENDMDL
MODEL 8
REMARK VINA RESULT:      -6.7      2.839      4.431
REMARK  Name = 
REMARK  6 active torsions:
REMARK  status: ('A' for Active; 'I' for Inactive)
REMARK    1  A    between atoms: C_1  and  O_2
REMARK    2  A    between atoms: O_2  and  C_3
REMARK    3  A    between atoms: C_8  and  N_9
REMARK    4  A    between atoms: C_10  and  C_12
REMARK    5  A    between atoms: C_12  and  C_13
REMARK    6  A    between atoms: C_12  and  N_14
REMARK                            x       y       z     vdW  Elec       q    Type
REMARK                         _______ _______ _______ _____ _____    ______ ____
ROOT
ATOM      1  C   UNL     1       5.781   5.890  17.818  0.00  0.00    +0.000 C 
ATOM      2  C   UNL     1       7.062   6.390  18.488  0.00  0.00    +0.000 C 
ENDROOT
BRANCH   1   3
ATOM      3  N   UNL     1       6.020   5.324  16.489  0.00  0.00    +0.000 N 
ATOM      4  C   UNL     1       7.078   5.715  15.700  0.00  0.00    +0.000 C 
ATOM      5  O   UNL     1       8.021   6.411  16.024  0.00  0.00    +0.000 OA
ATOM      6  C   UNL     1       6.737   5.260  14.308  0.00  0.00    +0.000 C 
ATOM      7  C   UNL     1       7.818   4.958  13.298  0.00  0.00    +0.000 C 
ATOM      8  C   UNL     1       7.138   4.462  12.009  0.00  0.00    +0.000 C 
ATOM      9  C   UNL     1       6.196   3.272  12.258  0.00  0.00    +0.000 C 
ATOM     10  C   UNL     1       5.174   3.550  13.373  0.00  0.00    +0.000 C 
ATOM     11  C   UNL     1       5.915   4.018  14.608  0.00  0.00    +0.000 C 
ATOM     12  C   UNL     1       5.147   4.506  15.802  0.00  0.00    +0.000 C 
ATOM     13  O   UNL     1       4.008   4.189  16.083  0.00  0.00    +0.000 OA
ENDBRANCH   1   3
BRANCH   1  15
ATOM     14  N   UNL     1       3.715   4.928  18.813  0.00  0.00    +0.000 N 
ATOM     15  C   UNL     1       5.100   4.821  18.689  0.00  0.00    +0.000 C 
ATOM     16  O   UNL     1       5.779   3.924  19.186  0.00  0.00    +0.000 OA
ATOM     17  H   UNL     1       3.201   5.571  18.211  0.00  0.00    +0.000 HD
BRANCH  14  23
ATOM     18  C   UNL     1       2.456   2.860  19.255  0.00  0.00    +0.000 A 
ATOM     19  C   UNL     1       1.653   2.087  20.114  0.00  0.00    +0.000 A 
ATOM     20  C   UNL     1       1.332   2.538  21.394  0.00  0.00    +0.000 A 
ATOM     21  C   UNL     1       1.782   3.776  21.815  0.00  0.00    +0.000 A 
ATOM     22  C   UNL     1       2.546   4.567  20.956  0.00  0.00    +0.000 A 
ATOM     23  C   UNL     1       2.913   4.126  19.679  0.00  0.00    +0.000 A 
BRANCH  18  25
ATOM     24  C   UNL     1       3.722   1.313  17.978  0.00  0.00    +0.000 C 
ATOM     25  O   UNL     1       2.830   2.432  17.998  0.00  0.00    +0.000 OA
ENDBRANCH  18  25
ENDBRANCH  14  23
ENDBRANCH   1  15
TORSDOF 4
ENDMDL
MODEL 9
REMARK VINA RESULT:      -6.7      2.564      6.802
REMARK  Name = 
REMARK  6 active torsions:
REMARK  status: ('A' for Active; 'I' for Inactive)
REMARK    1  A    between atoms: C_1  and  O_2
REMARK    2  A    between atoms: O_2  and  C_3
REMARK    3  A    between atoms: C_8  and  N_9
REMARK    4  A    between atoms: C_10  and  C_12
REMARK    5  A    between atoms: C_12  and  C_13
REMARK    6  A    between atoms: C_12  and  N_14
REMARK                            x       y       z     vdW  Elec       q    Type
REMARK                         _______ _______ _______ _____ _____    ______ ____
ROOT
ATOM      1  C   UNL     1       7.129   6.338  17.773  0.00  0.00    +0.000 C 
ATOM      2  C   UNL     1       7.311   7.805  17.381  0.00  0.00    +0.000 C 
ENDROOT
BRANCH   1   3
ATOM      3  N   UNL     1       5.801   6.058  18.322  0.00  0.00    +0.000 N 
ATOM      4  C   UNL     1       5.604   5.188  19.370  0.00  0.00    +0.000 C 
ATOM      5  O   UNL     1       6.455   4.683  20.078  0.00  0.00    +0.000 OA
ATOM      6  C   UNL     1       4.140   4.844  19.344  0.00  0.00    +0.000 C 
ATOM      7  C   UNL     1       3.414   4.426  20.600  0.00  0.00    +0.000 C 
ATOM      8  C   UNL     1       1.933   4.210  20.242  0.00  0.00    +0.000 C 
ATOM      9  C   UNL     1       1.304   5.438  19.561  0.00  0.00    +0.000 C 
ATOM     10  C   UNL     1       2.119   5.926  18.352  0.00  0.00    +0.000 C 
ATOM     11  C   UNL     1       3.557   6.129  18.783  0.00  0.00    +0.000 C 
ATOM     12  C   UNL     1       4.606   6.458  17.762  0.00  0.00    +0.000 C 
ATOM     13  O   UNL     1       4.401   6.999  16.692  0.00  0.00    +0.000 OA
ENDBRANCH   1   3
BRANCH   1  15
ATOM     14  N   UNL     1       6.754   5.828  15.368  0.00  0.00    +0.000 N 
ATOM     15  C   UNL     1       7.358   5.424  16.558  0.00  0.00    +0.000 C 
ATOM     16  O   UNL     1       8.076   4.431  16.675  0.00  0.00    +0.000 OA
ATOM     17  H   UNL     1       6.347   6.761  15.299  0.00  0.00    +0.000 HD
BRANCH  14  23
ATOM     18  C   UNL     1       5.681   4.139  13.935  0.00  0.00    +0.000 A 
ATOM     19  C   UNL     1       5.676   3.375  12.754  0.00  0.00    +0.000 A 
ATOM     20  C   UNL     1       6.669   3.541  11.788  0.00  0.00    +0.000 A 
ATOM     21  C   UNL     1       7.692   4.445  12.010  0.00  0.00    +0.000 A 
ATOM     22  C   UNL     1       7.728   5.177  13.197  0.00  0.00    +0.000 A 
ATOM     23  C   UNL     1       6.727   5.058  14.167  0.00  0.00    +0.000 A 
BRANCH  18  25
ATOM     24  C   UNL     1       4.993   3.148  15.978  0.00  0.00    +0.000 C 
ATOM     25  O   UNL     1       4.695   4.035  14.895  0.00  0.00    +0.000 OA
ENDBRANCH  18  25
ENDBRANCH  14  23
ENDBRANCH   1  15
TORSDOF 4
ENDMDL
