MODEL 1
REMARK VINA RESULT:      -7.1      0.000      0.000
REMARK  Name = 
REMARK  7 active torsions:
REMARK  status: ('A' for Active; 'I' for Inactive)
REMARK    1  A    between atoms: C_2  and  C_3
REMARK    2  A    between atoms: C_3  and  O_4
REMARK    3  A    between atoms: O_4  and  C_5
REMARK    4  A    between atoms: C_5  and  C_7
REMARK    5  A    between atoms: N_13  and  C_14
REMARK    6  A    between atoms: C_14  and  C_15
REMARK    7  A    between atoms: C_15  and  C_16
REMARK                            x       y       z     vdW  Elec       q    Type
REMARK                         _______ _______ _______ _____ _____    ______ ____
ROOT
ATOM      1  O   UNL     1       1.568   4.205  18.894  0.00  0.00    +0.000 OA
ATOM      2  C   UNL     1       2.554   4.344  19.614  0.00  0.00    +0.000 C 
ATOM      3  N   UNL     1       2.623   5.273  20.633  0.00  0.00    +0.000 N 
ATOM      4  H   UNL     1       3.509   5.379  21.116  0.00  0.00    +0.000 HD
ENDROOT
BRANCH   2   5
ATOM      5  C   UNL     1       3.777   3.434  19.503  0.00  0.00    +0.000 C 
BRANCH   5   6
ATOM      6  O   UNL     1       4.433   3.541  18.241  0.00  0.00    +0.000 OA
BRANCH   6   7
ATOM      7  C   UNL     1       5.571   4.281  18.255  0.00  0.00    +0.000 C 
ATOM      8  O   UNL     1       6.137   4.712  19.248  0.00  0.00    +0.000 OA
BRANCH   7   9
ATOM      9  C   UNL     1       6.069   4.478  16.872  0.00  0.00    +0.000 A 
ATOM     10  C   UNL     1       6.999   5.477  16.628  0.00  0.00    +0.000 A 
ATOM     11  N   UNL     1       7.518   5.698  15.393  0.00  0.00    +0.000 NA
ATOM     12  C   UNL     1       7.061   4.879  14.417  0.00  0.00    +0.000 A 
ATOM     13  C   UNL     1       6.128   3.884  14.659  0.00  0.00    +0.000 A 
ATOM     14  N   UNL     1       5.614   3.654  15.889  0.00  0.00    +0.000 NA
ENDBRANCH   7   9
ENDBRANCH   6   7
ENDBRANCH   5   6
ENDBRANCH   2   5
BRANCH   3  15
ATOM     15  C   UNL     1       1.578   6.258  20.856  0.00  0.00    +0.000 C 
BRANCH  15  16
ATOM     16  C   UNL     1       1.861   7.602  20.171  0.00  0.00    +0.000 C 
BRANCH  16  17
ATOM     17  C   UNL     1       1.088   8.737  20.806  0.00  0.00    +0.000 A 
ATOM     18  C   UNL     1       0.735   8.636  22.164  0.00  0.00    +0.000 A 
ATOM     19  C   UNL     1      -0.003   9.643  22.788  0.00  0.00    +0.000 A 
ATOM     20  C   UNL     1      -0.399  10.762  22.059  0.00  0.00    +0.000 A 
ATOM     21 CL   UNL     1      -1.321  11.996  22.822  0.00  0.00    +0.000 Cl
ATOM     22  C   UNL     1      -0.059  10.884  20.715  0.00  0.00    +0.000 A 
ATOM     23  C   UNL     1       0.680   9.876  20.091  0.00  0.00    +0.000 A 
ATOM     24 CL   UNL     1       1.061  10.085  18.418  0.00  0.00    +0.000 Cl
ENDBRANCH  16  17
ENDBRANCH  15  16
ENDBRANCH   3  15
TORSDOF 7
ENDMDL
MODEL 2
REMARK VINA RESULT:      -6.9      1.483      1.995
REMARK  Name = 
REMARK  7 active torsions:
REMARK  status: ('A' for Active; 'I' for Inactive)
REMARK    1  A    between atoms: C_2  and  C_3
REMARK    2  A    between atoms: C_3  and  O_4
REMARK    3  A    between atoms: O_4  and  C_5
REMARK    4  A    between atoms: C_5  and  C_7
REMARK    5  A    between atoms: N_13  and  C_14
REMARK    6  A    between atoms: C_14  and  C_15
REMARK    7  A    between atoms: C_15  and  C_16
REMARK                            x       y       z     vdW  Elec       q    Type
REMARK                         _______ _______ _______ _____ _____    ______ ____
ROOT
ATOM      1  O   UNL     1       0.903   3.398  20.404  0.00  0.00    +0.000 OA
ATOM      2  C   UNL     1       2.051   3.758  20.653  0.00  0.00    +0.000 C 
ATOM      3  N   UNL     1       2.392   5.070  20.916  0.00  0.00    +0.000 N 
ATOM      4  H   UNL     1       3.377   5.290  21.021  0.00  0.00    +0.000 HD
ENDROOT
BRANCH   2   5
ATOM      5  C   UNL     1       3.206   2.766  20.779  0.00  0.00    +0.000 C 
BRANCH   5   6
ATOM      6  O   UNL     1       4.264   3.030  19.858  0.00  0.00    +0.000 OA
BRANCH   6   7
ATOM      7  C   UNL     1       3.928   2.880  18.551  0.00  0.00    +0.000 C 
ATOM      8  O   UNL     1       3.326   1.934  18.068  0.00  0.00    +0.000 OA
BRANCH   7   9
ATOM      9  C   UNL     1       4.372   4.060  17.771  0.00  0.00    +0.000 A 
ATOM     10  C   UNL     1       4.874   3.871  16.492  0.00  0.00    +0.000 A 
ATOM     11  N   UNL     1       5.275   4.907  15.710  0.00  0.00    +0.000 NA
ATOM     12  C   UNL     1       5.155   6.135  16.269  0.00  0.00    +0.000 A 
ATOM     13  C   UNL     1       4.659   6.323  17.549  0.00  0.00    +0.000 A 
ATOM     14  N   UNL     1       4.251   5.297  18.328  0.00  0.00    +0.000 NA
ENDBRANCH   7   9
ENDBRANCH   6   7
ENDBRANCH   5   6
ENDBRANCH   2   5
BRANCH   3  15
ATOM     15  C   UNL     1       1.438   6.160  20.793  0.00  0.00    +0.000 C 
BRANCH  15  16
ATOM     16  C   UNL     1       2.029   7.406  20.122  0.00  0.00    +0.000 C 
BRANCH  16  17
ATOM     17  C   UNL     1       1.218   8.649  20.415  0.00  0.00    +0.000 A 
ATOM     18  C   UNL     1       0.614   8.777  21.679  0.00  0.00    +0.000 A 
ATOM     19  C   UNL     1      -0.169   9.890  21.988  0.00  0.00    +0.000 A 
ATOM     20  C   UNL     1      -0.358  10.888  21.034  0.00  0.00    +0.000 A 
ATOM     21 CL   UNL     1      -1.334  12.253  21.408  0.00  0.00    +0.000 Cl
ATOM     22  C   UNL     1       0.233  10.783  19.778  0.00  0.00    +0.000 A 
ATOM     23  C   UNL     1       1.016   9.668  19.470  0.00  0.00    +0.000 A 
ATOM     24 CL   UNL     1       1.712   9.595  17.889  0.00  0.00    +0.000 Cl
ENDBRANCH  16  17
ENDBRANCH  15  16
ENDBRANCH   3  15
TORSDOF 7
ENDMDL
MODEL 3
REMARK VINA RESULT:      -6.8      6.603      8.621
REMARK  Name = 
REMARK  7 active torsions:
REMARK  status: ('A' for Active; 'I' for Inactive)
REMARK    1  A    between atoms: C_2  and  C_3
REMARK    2  A    between atoms: C_3  and  O_4
REMARK    3  A    between atoms: O_4  and  C_5
REMARK    4  A    between atoms: C_5  and  C_7
REMARK    5  A    between atoms: N_13  and  C_14
REMARK    6  A    between atoms: C_14  and  C_15
REMARK    7  A    between atoms: C_15  and  C_16
REMARK                            x       y       z     vdW  Elec       q    Type
REMARK                         _______ _______ _______ _____ _____    ______ ____
ROOT
ATOM      1  O   UNL     1       7.326   9.175  17.462  0.00  0.00    +0.000 OA
ATOM      2  C   UNL     1       8.078   8.567  18.220  0.00  0.00    +0.000 C 
ATOM      3  N   UNL     1       8.940   9.197  19.096  0.00  0.00    +0.000 N 
ATOM      4  H   UNL     1       9.588   8.617  19.619  0.00  0.00    +0.000 HD
ENDROOT
BRANCH   2   5
ATOM      5  C   UNL     1       8.068   7.043  18.327  0.00  0.00    +0.000 C 
BRANCH   5   6
ATOM      6  O   UNL     1       7.571   6.410  17.149  0.00  0.00    +0.000 OA
BRANCH   6   7
ATOM      7  C   UNL     1       7.335   5.079  17.277  0.00  0.00    +0.000 C 
ATOM      8  O   UNL     1       8.128   4.182  17.035  0.00  0.00    +0.000 OA
BRANCH   7   9
ATOM      9  C   UNL     1       5.964   4.851  17.793  0.00  0.00    +0.000 A 
ATOM     10  C   UNL     1       4.881   5.247  17.024  0.00  0.00    +0.000 A 
ATOM     11  N   UNL     1       3.598   5.047  17.420  0.00  0.00    +0.000 NA
ATOM     12  C   UNL     1       3.450   4.438  18.620  0.00  0.00    +0.000 A 
ATOM     13  C   UNL     1       4.532   4.046  19.392  0.00  0.00    +0.000 A 
ATOM     14  N   UNL     1       5.812   4.236  18.998  0.00  0.00    +0.000 NA
ENDBRANCH   7   9
ENDBRANCH   6   7
ENDBRANCH   5   6
ENDBRANCH   2   5
BRANCH   3  15
ATOM     15  C   UNL     1       9.125  10.638  19.102  0.00  0.00    +0.000 C 
BRANCH  15  16
ATOM     16  C   UNL     1      10.589  11.057  19.287  0.00  0.00    +0.000 C 
BRANCH  16  17
ATOM     17  C   UNL     1      10.859  12.439  18.732  0.00  0.00    +0.000 A 
ATOM     18  C   UNL     1      11.259  12.559  17.389  0.00  0.00    +0.000 A 
ATOM     19  C   UNL     1      11.548  13.809  16.839  0.00  0.00    +0.000 A 
ATOM     20  C   UNL     1      11.444  14.952  17.628  0.00  0.00    +0.000 A 
ATOM     21 CL   UNL     1      11.815  16.491  16.955  0.00  0.00    +0.000 Cl
ATOM     22  C   UNL     1      11.048  14.856  18.958  0.00  0.00    +0.000 A 
ATOM     23  C   UNL     1      10.758  13.606  19.508  0.00  0.00    +0.000 A 
ATOM     24 CL   UNL     1      10.281  13.555  21.169  0.00  0.00    +0.000 Cl
ENDBRANCH  16  17
ENDBRANCH  15  16
ENDBRANCH   3  15
TORSDOF 7
ENDMDL
MODEL 4
REMARK VINA RESULT:      -6.7      5.635      7.180
REMARK  Name = 
REMARK  7 active torsions:
REMARK  status: ('A' for Active; 'I' for Inactive)
REMARK    1  A    between atoms: C_2  and  C_3
REMARK    2  A    between atoms: C_3  and  O_4
REMARK    3  A    between atoms: O_4  and  C_5
REMARK    4  A    between atoms: C_5  and  C_7
REMARK    5  A    between atoms: N_13  and  C_14
REMARK    6  A    between atoms: C_14  and  C_15
REMARK    7  A    between atoms: C_15  and  C_16
REMARK                            x       y       z     vdW  Elec       q    Type
REMARK                         _______ _______ _______ _____ _____    ______ ____
ROOT
ATOM      1  O   UNL     1       8.256   6.985  18.895  0.00  0.00    +0.000 OA
ATOM      2  C   UNL     1       7.733   7.673  18.022  0.00  0.00    +0.000 C 
ATOM      3  N   UNL     1       8.041   9.004  17.822  0.00  0.00    +0.000 N 
ATOM      4  H   UNL     1       7.494   9.518  17.138  0.00  0.00    +0.000 HD
ENDROOT
BRANCH   2   5
ATOM      5  C   UNL     1       6.745   7.093  17.011  0.00  0.00    +0.000 C 
BRANCH   5   6
ATOM      6  O   UNL     1       7.277   5.980  16.294  0.00  0.00    +0.000 OA
BRANCH   6   7
ATOM      7  C   UNL     1       7.279   4.810  16.984  0.00  0.00    +0.000 C 
ATOM      8  O   UNL     1       8.261   4.135  17.251  0.00  0.00    +0.000 OA
BRANCH   7   9
ATOM      9  C   UNL     1       5.901   4.465  17.408  0.00  0.00    +0.000 A 
ATOM     10  C   UNL     1       5.589   4.480  18.759  0.00  0.00    +0.000 A 
ATOM     11  N   UNL     1       4.342   4.201  19.218  0.00  0.00    +0.000 NA
ATOM     12  C   UNL     1       3.427   3.903  18.266  0.00  0.00    +0.000 A 
ATOM     13  C   UNL     1       3.739   3.883  16.916  0.00  0.00    +0.000 A 
ATOM     14  N   UNL     1       4.977   4.168  16.453  0.00  0.00    +0.000 NA
ENDBRANCH   7   9
ENDBRANCH   6   7
ENDBRANCH   5   6
ENDBRANCH   2   5
BRANCH   3  15
ATOM     15  C   UNL     1       8.920   9.740  18.715  0.00  0.00    +0.000 C 
BRANCH  15  16
ATOM     16  C   UNL     1       9.661  10.890  18.019  0.00  0.00    +0.000 C 
BRANCH  16  17
ATOM     17  C   UNL     1       9.068  12.239  18.363  0.00  0.00    +0.000 A 
ATOM     18  C   UNL     1       8.144  12.816  17.473  0.00  0.00    +0.000 A 
ATOM     19  C   UNL     1       7.592  14.071  17.731  0.00  0.00    +0.000 A 
ATOM     20  C   UNL     1       7.960  14.765  18.881  0.00  0.00    +0.000 A 
ATOM     21 CL   UNL     1       7.292  16.319  19.193  0.00  0.00    +0.000 Cl
ATOM     22  C   UNL     1       8.870  14.212  19.777  0.00  0.00    +0.000 A 
ATOM     23  C   UNL     1       9.423  12.955  19.519  0.00  0.00    +0.000 A 
ATOM     24 CL   UNL     1      10.555  12.330  20.666  0.00  0.00    +0.000 Cl
ENDBRANCH  16  17
ENDBRANCH  15  16
ENDBRANCH   3  15
TORSDOF 7
ENDMDL
MODEL 5
REMARK VINA RESULT:      -6.6      1.493      2.067
REMARK  Name = 
REMARK  7 active torsions:
REMARK  status: ('A' for Active; 'I' for Inactive)
REMARK    1  A    between atoms: C_2  and  C_3
REMARK    2  A    between atoms: C_3  and  O_4
REMARK    3  A    between atoms: O_4  and  C_5
REMARK    4  A    between atoms: C_5  and  C_7
REMARK    5  A    between atoms: N_13  and  C_14
REMARK    6  A    between atoms: C_14  and  C_15
REMARK    7  A    between atoms: C_15  and  C_16
REMARK                            x       y       z     vdW  Elec       q    Type
REMARK                         _______ _______ _______ _____ _____    ______ ____
ROOT
ATOM      1  O   UNL     1       2.309   3.840  21.689  0.00  0.00    +0.000 OA
ATOM      2  C   UNL     1       1.906   4.075  20.552  0.00  0.00    +0.000 C 
ATOM      3  N   UNL     1       1.673   5.352  20.081  0.00  0.00    +0.000 N 
ATOM      4  H   UNL     1       1.255   5.446  19.161  0.00  0.00    +0.000 HD
ENDROOT
BRANCH   2   5
ATOM      5  C   UNL     1       1.702   2.970  19.517  0.00  0.00    +0.000 C 
BRANCH   5   6
ATOM      6  O   UNL     1       2.912   2.605  18.854  0.00  0.00    +0.000 OA
BRANCH   6   7
ATOM      7  C   UNL     1       3.101   3.202  17.649  0.00  0.00    +0.000 C 
ATOM      8  O   UNL     1       2.270   3.308  16.761  0.00  0.00    +0.000 OA
BRANCH   7   9
ATOM      9  C   UNL     1       4.476   3.750  17.562  0.00  0.00    +0.000 A 
ATOM     10  C   UNL     1       5.106   3.792  16.328  0.00  0.00    +0.000 A 
ATOM     11  N   UNL     1       6.354   4.304  16.168  0.00  0.00    +0.000 NA
ATOM     12  C   UNL     1       6.940   4.767  17.297  0.00  0.00    +0.000 A 
ATOM     13  C   UNL     1       6.312   4.721  18.532  0.00  0.00    +0.000 A 
ATOM     14  N   UNL     1       5.067   4.220  18.695  0.00  0.00    +0.000 NA
ENDBRANCH   7   9
ENDBRANCH   6   7
ENDBRANCH   5   6
ENDBRANCH   2   5
BRANCH   3  15
ATOM     15  C   UNL     1       1.764   6.523  20.936  0.00  0.00    +0.000 C 
BRANCH  15  16
ATOM     16  C   UNL     1       1.748   7.843  20.154  0.00  0.00    +0.000 C 
BRANCH  16  17
ATOM     17  C   UNL     1       0.901   8.896  20.833  0.00  0.00    +0.000 A 
ATOM     18  C   UNL     1       0.799   8.878  22.236  0.00  0.00    +0.000 A 
ATOM     19  C   UNL     1       0.006   9.811  22.906  0.00  0.00    +0.000 A 
ATOM     20  C   UNL     1      -0.697  10.770  22.181  0.00  0.00    +0.000 A 
ATOM     21 CL   UNL     1      -1.686  11.910  23.005  0.00  0.00    +0.000 Cl
ATOM     22  C   UNL     1      -0.608  10.807  20.793  0.00  0.00    +0.000 A 
ATOM     23  C   UNL     1       0.185   9.875  20.121  0.00  0.00    +0.000 A 
ATOM     24 CL   UNL     1       0.243   9.970  18.396  0.00  0.00    +0.000 Cl
ENDBRANCH  16  17
ENDBRANCH  15  16
ENDBRANCH   3  15
TORSDOF 7
ENDMDL
MODEL 6
REMARK VINA RESULT:      -6.6      2.586      4.334
REMARK  Name = 
REMARK  7 active torsions:
REMARK  status: ('A' for Active; 'I' for Inactive)
REMARK    1  A    between atoms: C_2  and  C_3
REMARK    2  A    between atoms: C_3  and  O_4
REMARK    3  A    between atoms: O_4  and  C_5
REMARK    4  A    between atoms: C_5  and  C_7
REMARK    5  A    between atoms: N_13  and  C_14
REMARK    6  A    between atoms: C_14  and  C_15
REMARK    7  A    between atoms: C_15  and  C_16
REMARK                            x       y       z     vdW  Elec       q    Type
REMARK                         _______ _______ _______ _____ _____    ______ ____
ROOT
ATOM      1  O   UNL     1       5.269   6.467  17.593  0.00  0.00    +0.000 OA
ATOM      2  C   UNL     1       4.436   5.617  17.900  0.00  0.00    +0.000 C 
ATOM      3  N   UNL     1       3.101   5.905  18.104  0.00  0.00    +0.000 N 
ATOM      4  H   UNL     1       2.504   5.158  18.443  0.00  0.00    +0.000 HD
ENDROOT
BRANCH   2   5
ATOM      5  C   UNL     1       4.787   4.134  18.003  0.00  0.00    +0.000 C 
BRANCH   5   6
ATOM      6  O   UNL     1       5.240   3.761  19.304  0.00  0.00    +0.000 OA
BRANCH   6   7
ATOM      7  C   UNL     1       4.597   2.694  19.844  0.00  0.00    +0.000 C 
ATOM      8  O   UNL     1       5.126   1.717  20.350  0.00  0.00    +0.000 OA
BRANCH   7   9
ATOM      9  C   UNL     1       3.129   2.889  19.764  0.00  0.00    +0.000 A 
ATOM     10  C   UNL     1       2.390   2.091  18.905  0.00  0.00    +0.000 A 
ATOM     11  N   UNL     1       1.040   2.195  18.799  0.00  0.00    +0.000 NA
ATOM     12  C   UNL     1       0.468   3.135  19.588  0.00  0.00    +0.000 A 
ATOM     13  C   UNL     1       1.207   3.937  20.443  0.00  0.00    +0.000 A 
ATOM     14  N   UNL     1       2.550   3.832  20.558  0.00  0.00    +0.000 NA
ENDBRANCH   7   9
ENDBRANCH   6   7
ENDBRANCH   5   6
ENDBRANCH   2   5
BRANCH   3  15
ATOM     15  C   UNL     1       2.591   7.266  18.099  0.00  0.00    +0.000 C 
BRANCH  15  16
ATOM     16  C   UNL     1       2.254   7.788  19.502  0.00  0.00    +0.000 C 
BRANCH  16  17
ATOM     17  C   UNL     1       1.212   8.884  19.465  0.00  0.00    +0.000 A 
ATOM     18  C   UNL     1       0.791   9.372  18.215  0.00  0.00    +0.000 A 
ATOM     19  C   UNL     1      -0.146  10.403  18.129  0.00  0.00    +0.000 A 
ATOM     20  C   UNL     1      -0.671  10.959  19.294  0.00  0.00    +0.000 A 
ATOM     21 CL   UNL     1      -1.814  12.239  19.190  0.00  0.00    +0.000 Cl
ATOM     22  C   UNL     1      -0.271  10.489  20.541  0.00  0.00    +0.000 A 
ATOM     23  C   UNL     1       0.667   9.457  20.627  0.00  0.00    +0.000 A 
ATOM     24 CL   UNL     1       1.129   8.927  22.206  0.00  0.00    +0.000 Cl
ENDBRANCH  16  17
ENDBRANCH  15  16
ENDBRANCH   3  15
TORSDOF 7
ENDMDL
MODEL 7
REMARK VINA RESULT:      -6.6      2.587      3.871
REMARK  Name = 
REMARK  7 active torsions:
REMARK  status: ('A' for Active; 'I' for Inactive)
REMARK    1  A    between atoms: C_2  and  C_3
REMARK    2  A    between atoms: C_3  and  O_4
REMARK    3  A    between atoms: O_4  and  C_5
REMARK    4  A    between atoms: C_5  and  C_7
REMARK    5  A    between atoms: N_13  and  C_14
REMARK    6  A    between atoms: C_14  and  C_15
REMARK    7  A    between atoms: C_15  and  C_16
REMARK                            x       y       z     vdW  Elec       q    Type
REMARK                         _______ _______ _______ _____ _____    ______ ____
ROOT
ATOM      1  O   UNL     1       4.763   6.119  17.340  0.00  0.00    +0.000 OA
ATOM      2  C   UNL     1       4.384   5.733  18.443  0.00  0.00    +0.000 C 
ATOM      3  N   UNL     1       3.120   5.983  18.939  0.00  0.00    +0.000 N 
ATOM      4  H   UNL     1       2.925   5.705  19.895  0.00  0.00    +0.000 HD
ENDROOT
BRANCH   2   5
ATOM      5  C   UNL     1       5.256   4.858  19.342  0.00  0.00    +0.000 C 
BRANCH   5   6
ATOM      6  O   UNL     1       5.274   3.491  18.934  0.00  0.00    +0.000 OA
BRANCH   6   7
ATOM      7  C   UNL     1       4.640   2.639  19.780  0.00  0.00    +0.000 C 
ATOM      8  O   UNL     1       5.175   1.903  20.593  0.00  0.00    +0.000 OA
BRANCH   7   9
ATOM      9  C   UNL     1       3.171   2.743  19.604  0.00  0.00    +0.000 A 
ATOM     10  C   UNL     1       2.598   2.267  18.434  0.00  0.00    +0.000 A 
ATOM     11  N   UNL     1       1.258   2.306  18.215  0.00  0.00    +0.000 NA
ATOM     12  C   UNL     1       0.523   2.846  19.215  0.00  0.00    +0.000 A 
ATOM     13  C   UNL     1       1.096   3.327  20.382  0.00  0.00    +0.000 A 
ATOM     14  N   UNL     1       2.428   3.283  20.609  0.00  0.00    +0.000 NA
ENDBRANCH   7   9
ENDBRANCH   6   7
ENDBRANCH   5   6
ENDBRANCH   2   5
BRANCH   3  15
ATOM     15  C   UNL     1       2.171   6.840  18.248  0.00  0.00    +0.000 C 
BRANCH  15  16
ATOM     16  C   UNL     1       2.416   8.334  18.497  0.00  0.00    +0.000 C 
BRANCH  16  17
ATOM     17  C   UNL     1       1.589   8.862  19.649  0.00  0.00    +0.000 A 
ATOM     18  C   UNL     1       1.348   8.017  20.747  0.00  0.00    +0.000 A 
ATOM     19  C   UNL     1       0.566   8.448  21.821  0.00  0.00    +0.000 A 
ATOM     20  C   UNL     1       0.016   9.727  21.806  0.00  0.00    +0.000 A 
ATOM     21 CL   UNL     1      -0.959  10.253  23.121  0.00  0.00    +0.000 Cl
ATOM     22  C   UNL     1       0.245  10.580  20.730  0.00  0.00    +0.000 A 
ATOM     23  C   UNL     1       1.026  10.149  19.656  0.00  0.00    +0.000 A 
ATOM     24 CL   UNL     1       1.263  11.254  18.348  0.00  0.00    +0.000 Cl
ENDBRANCH  16  17
ENDBRANCH  15  16
ENDBRANCH   3  15
TORSDOF 7
ENDMDL
MODEL 8
REMARK VINA RESULT:      -6.5      5.794      8.088
REMARK  Name = 
REMARK  7 active torsions:
REMARK  status: ('A' for Active; 'I' for Inactive)
REMARK    1  A    between atoms: C_2  and  C_3
REMARK    2  A    between atoms: C_3  and  O_4
REMARK    3  A    between atoms: O_4  and  C_5
REMARK    4  A    between atoms: C_5  and  C_7
REMARK    5  A    between atoms: N_13  and  C_14
REMARK    6  A    between atoms: C_14  and  C_15
REMARK    7  A    between atoms: C_15  and  C_16
REMARK                            x       y       z     vdW  Elec       q    Type
REMARK                         _______ _______ _______ _____ _____    ______ ____
ROOT
ATOM      1  O   UNL     1       7.870   7.219  16.510  0.00  0.00    +0.000 OA
ATOM      2  C   UNL     1       7.748   7.062  17.723  0.00  0.00    +0.000 C 
ATOM      3  N   UNL     1       8.045   8.044  18.647  0.00  0.00    +0.000 N 
ATOM      4  H   UNL     1       8.001   7.795  19.630  0.00  0.00    +0.000 HD
ENDROOT
BRANCH   2   5
ATOM      5  C   UNL     1       7.168   5.782  18.323  0.00  0.00    +0.000 C 
BRANCH   5   6
ATOM      6  O   UNL     1       6.225   5.146  17.462  0.00  0.00    +0.000 OA
BRANCH   6   7
ATOM      7  C   UNL     1       4.927   5.449  17.722  0.00  0.00    +0.000 C 
ATOM      8  O   UNL     1       4.391   6.530  17.536  0.00  0.00    +0.000 OA
BRANCH   7   9
ATOM      9  C   UNL     1       4.218   4.256  18.245  0.00  0.00    +0.000 A 
ATOM     10  C   UNL     1       3.683   4.298  19.523  0.00  0.00    +0.000 A 
ATOM     11  N   UNL     1       2.999   3.254  20.057  0.00  0.00    +0.000 NA
ATOM     12  C   UNL     1       2.881   2.168  19.258  0.00  0.00    +0.000 A 
ATOM     13  C   UNL     1       3.421   2.123  17.982  0.00  0.00    +0.000 A 
ATOM     14  N   UNL     1       4.096   3.163  17.442  0.00  0.00    +0.000 NA
ENDBRANCH   7   9
ENDBRANCH   6   7
ENDBRANCH   5   6
ENDBRANCH   2   5
BRANCH   3  15
ATOM     15  C   UNL     1       8.654   9.308  18.268  0.00  0.00    +0.000 C 
BRANCH  15  16
ATOM     16  C   UNL     1       9.319  10.033  19.445  0.00  0.00    +0.000 C 
BRANCH  16  17
ATOM     17  C   UNL     1       9.968  11.332  19.018  0.00  0.00    +0.000 A 
ATOM     18  C   UNL     1      10.434  11.450  17.696  0.00  0.00    +0.000 A 
ATOM     19  C   UNL     1      11.067  12.617  17.264  0.00  0.00    +0.000 A 
ATOM     20  C   UNL     1      11.242  13.677  18.149  0.00  0.00    +0.000 A 
ATOM     21 CL   UNL     1      12.034  15.110  17.621  0.00  0.00    +0.000 Cl
ATOM     22  C   UNL     1      10.785  13.583  19.461  0.00  0.00    +0.000 A 
ATOM     23  C   UNL     1      10.153  12.415  19.894  0.00  0.00    +0.000 A 
ATOM     24 CL   UNL     1       9.619  12.359  21.537  0.00  0.00    +0.000 Cl
ENDBRANCH  16  17
ENDBRANCH  15  16
ENDBRANCH   3  15
TORSDOF 7
ENDMDL
MODEL 9
REMARK VINA RESULT:      -6.5      5.669      7.459
REMARK  Name = 
REMARK  7 active torsions:
REMARK  status: ('A' for Active; 'I' for Inactive)
REMARK    1  A    between atoms: C_2  and  C_3
REMARK    2  A    between atoms: C_3  and  O_4
REMARK    3  A    between atoms: O_4  and  C_5
REMARK    4  A    between atoms: C_5  and  C_7
REMARK    5  A    between atoms: N_13  and  C_14
REMARK    6  A    between atoms: C_14  and  C_15
REMARK    7  A    between atoms: C_15  and  C_16
REMARK                            x       y       z     vdW  Elec       q    Type
REMARK                         _______ _______ _______ _____ _____    ______ ____
ROOT
ATOM      1  O   UNL     1       6.271   7.411  17.135  0.00  0.00    +0.000 OA
ATOM      2  C   UNL     1       7.260   6.984  17.727  0.00  0.00    +0.000 C 
ATOM      3  N   UNL     1       8.261   7.801  18.215  0.00  0.00    +0.000 N 
ATOM      4  H   UNL     1       9.083   7.355  18.609  0.00  0.00    +0.000 HD
ENDROOT
BRANCH   2   5
ATOM      5  C   UNL     1       7.434   5.502  18.056  0.00  0.00    +0.000 C 
BRANCH   5   6
ATOM      6  O   UNL     1       6.234   4.897  18.533  0.00  0.00    +0.000 OA
BRANCH   6   7
ATOM      7  C   UNL     1       5.557   4.171  17.607  0.00  0.00    +0.000 C 
ATOM      8  O   UNL     1       5.887   4.005  16.443  0.00  0.00    +0.000 OA
BRANCH   7   9
ATOM      9  C   UNL     1       4.350   3.564  18.216  0.00  0.00    +0.000 A 
ATOM     10  C   UNL     1       4.405   3.132  19.533  0.00  0.00    +0.000 A 
ATOM     11  N   UNL     1       3.331   2.591  20.164  0.00  0.00    +0.000 NA
ATOM     12  C   UNL     1       2.206   2.498  19.417  0.00  0.00    +0.000 A 
ATOM     13  C   UNL     1       2.152   2.924  18.100  0.00  0.00    +0.000 A 
ATOM     14  N   UNL     1       3.215   3.471  17.469  0.00  0.00    +0.000 NA
ENDBRANCH   7   9
ENDBRANCH   6   7
ENDBRANCH   5   6
ENDBRANCH   2   5
BRANCH   3  15
ATOM     15  C   UNL     1       8.292   9.230  17.954  0.00  0.00    +0.000 C 
BRANCH  15  16
ATOM     16  C   UNL     1       9.200   9.999  18.923  0.00  0.00    +0.000 C 
BRANCH  16  17
ATOM     17  C   UNL     1       9.133  11.494  18.699  0.00  0.00    +0.000 A 
ATOM     18  C   UNL     1       8.273  11.988  17.701  0.00  0.00    +0.000 A 
ATOM     19  C   UNL     1       8.198  13.357  17.437  0.00  0.00    +0.000 A 
ATOM     20  C   UNL     1       8.985  14.246  18.166  0.00  0.00    +0.000 A 
ATOM     21 CL   UNL     1       8.904  15.931  17.830  0.00  0.00    +0.000 Cl
ATOM     22  C   UNL     1       9.840  13.779  19.159  0.00  0.00    +0.000 A 
ATOM     23  C   UNL     1       9.915  12.409  19.424  0.00  0.00    +0.000 A 
ATOM     24 CL   UNL     1      11.005  11.894  20.663  0.00  0.00    +0.000 Cl
ENDBRANCH  16  17
ENDBRANCH  15  16
ENDBRANCH   3  15
TORSDOF 7
ENDMDL
