MODEL 1
REMARK VINA RESULT:      -7.2      0.000      0.000
REMARK  Name = 
REMARK  5 active torsions:
REMARK  status: ('A' for Active; 'I' for Inactive)
REMARK    1  A    between atoms: C_1  and  O_2
REMARK    2  A    between atoms: O_2  and  C_3
REMARK    3  A    between atoms: C_5  and  C_6
REMARK    4  A    between atoms: C_13  and  C_14
REMARK    5  A    between atoms: C_22  and  C_23
REMARK                            x       y       z     vdW  Elec       q    Type
REMARK                         _______ _______ _______ _____ _____    ______ ____
ROOT
ATOM      1  C   UNL     1       2.111   4.306  19.976  0.00  0.00    +0.000 A 
ATOM      2  N   UNL     1       1.704   5.514  20.417  0.00  0.00    +0.000 NA
ATOM      3  C   UNL     1       2.252   6.607  19.854  0.00  0.00    +0.000 A 
ATOM      4  C   UNL     1       3.287   6.504  18.928  0.00  0.00    +0.000 A 
ATOM      5  C   UNL     1       3.699   5.256  18.413  0.00  0.00    +0.000 A 
ATOM      6  C   UNL     1       3.053   4.121  18.958  0.00  0.00    +0.000 A 
ENDROOT
BRANCH   5   7
ATOM      7  C   UNL     1       4.791   5.211  17.378  0.00  0.00    +0.000 A 
ATOM      8  C   UNL     1       4.454   5.065  16.012  0.00  0.00    +0.000 A 
ATOM      9  C   UNL     1       5.422   4.992  15.003  0.00  0.00    +0.000 A 
ATOM     10  C   UNL     1       6.769   4.996  15.333  0.00  0.00    +0.000 A 
ATOM     11 CL   UNL     1       7.957   4.862  14.100  0.00  0.00    +0.000 Cl
ATOM     12  C   UNL     1       7.152   5.114  16.660  0.00  0.00    +0.000 A 
ATOM     13  C   UNL     1       6.181   5.254  17.666  0.00  0.00    +0.000 A 
ATOM     14 CL   UNL     1       6.826   5.532  19.256  0.00  0.00    +0.000 Cl
ENDBRANCH   5   7
BRANCH   3  15
ATOM     15  C   UNL     1       1.642   7.892  20.231  0.00  0.00    +0.000 A 
ATOM     16  C   UNL     1       1.140   8.104  21.521  0.00  0.00    +0.000 A 
ATOM     17  C   UNL     1       0.533   9.313  21.821  0.00  0.00    +0.000 A 
ATOM     18  N   UNL     1       0.387  10.319  20.934  0.00  0.00    +0.000 NA
ATOM     19  C   UNL     1       0.857  10.102  19.691  0.00  0.00    +0.000 A 
ATOM     20  C   UNL     1       1.481   8.928  19.299  0.00  0.00    +0.000 A 
ENDBRANCH   3  15
BRANCH   1  22
ATOM     21  C   UNL     1       2.057   2.924  21.876  0.00  0.00    +0.000 C 
ATOM     22  O   UNL     1       1.556   3.184  20.566  0.00  0.00    +0.000 OA
ENDBRANCH   1  22
BRANCH   6  23
ATOM     23  C   UNL     1       3.303   2.786  18.507  0.00  0.00    +0.000 C 
ATOM     24  N   UNL     1       3.541   1.706  18.138  0.00  0.00    +0.000 NA
ENDBRANCH   6  23
TORSDOF 4
ENDMDL
MODEL 2
REMARK VINA RESULT:      -7.1      0.662      1.160
REMARK  Name = 
REMARK  5 active torsions:
REMARK  status: ('A' for Active; 'I' for Inactive)
REMARK    1  A    between atoms: C_1  and  O_2
REMARK    2  A    between atoms: O_2  and  C_3
REMARK    3  A    between atoms: C_5  and  C_6
REMARK    4  A    between atoms: C_13  and  C_14
REMARK    5  A    between atoms: C_22  and  C_23
REMARK                            x       y       z     vdW  Elec       q    Type
REMARK                         _______ _______ _______ _____ _____    ______ ____
ROOT
ATOM      1  C   UNL     1       2.601   4.642  20.672  0.00  0.00    +0.000 A 
ATOM      2  N   UNL     1       1.997   5.831  20.874  0.00  0.00    +0.000 NA
ATOM      3  C   UNL     1       2.278   6.833  20.020  0.00  0.00    +0.000 A 
ATOM      4  C   UNL     1       3.244   6.689  19.027  0.00  0.00    +0.000 A 
ATOM      5  C   UNL     1       3.855   5.445  18.762  0.00  0.00    +0.000 A 
ATOM      6  C   UNL     1       3.486   4.381  19.620  0.00  0.00    +0.000 A 
ENDROOT
BRANCH   5   7
ATOM      7  C   UNL     1       4.857   5.340  17.643  0.00  0.00    +0.000 A 
ATOM      8  C   UNL     1       4.405   5.178  16.312  0.00  0.00    +0.000 A 
ATOM      9  C   UNL     1       5.286   5.051  15.231  0.00  0.00    +0.000 A 
ATOM     10  C   UNL     1       6.654   5.013  15.452  0.00  0.00    +0.000 A 
ATOM     11 CL   UNL     1       7.733   4.812  14.131  0.00  0.00    +0.000 Cl
ATOM     12  C   UNL     1       7.148   5.144  16.741  0.00  0.00    +0.000 A 
ATOM     13  C   UNL     1       6.267   5.339  17.818  0.00  0.00    +0.000 A 
ATOM     14 CL   UNL     1       7.047   5.625  19.344  0.00  0.00    +0.000 Cl
ENDBRANCH   5   7
BRANCH   3  15
ATOM     15  C   UNL     1       1.456   8.045  20.167  0.00  0.00    +0.000 A 
ATOM     16  C   UNL     1       1.403   9.009  19.154  0.00  0.00    +0.000 A 
ATOM     17  C   UNL     1       0.651  10.157  19.350  0.00  0.00    +0.000 A 
ATOM     18  N   UNL     1      -0.043  10.414  20.478  0.00  0.00    +0.000 NA
ATOM     19  C   UNL     1       0.026   9.490  21.455  0.00  0.00    +0.000 A 
ATOM     20  C   UNL     1       0.748   8.311  21.348  0.00  0.00    +0.000 A 
ENDBRANCH   3  15
BRANCH   1  22
ATOM     21  C   UNL     1       1.125   2.906  21.249  0.00  0.00    +0.000 C 
ATOM     22  O   UNL     1       2.321   3.619  21.561  0.00  0.00    +0.000 OA
ENDBRANCH   1  22
BRANCH   6  23
ATOM     23  C   UNL     1       3.960   3.041  19.455  0.00  0.00    +0.000 C 
ATOM     24  N   UNL     1       4.365   1.961  19.294  0.00  0.00    +0.000 NA
ENDBRANCH   6  23
TORSDOF 4
ENDMDL
MODEL 3
REMARK VINA RESULT:      -6.9      1.347      1.865
REMARK  Name = 
REMARK  5 active torsions:
REMARK  status: ('A' for Active; 'I' for Inactive)
REMARK    1  A    between atoms: C_1  and  O_2
REMARK    2  A    between atoms: O_2  and  C_3
REMARK    3  A    between atoms: C_5  and  C_6
REMARK    4  A    between atoms: C_13  and  C_14
REMARK    5  A    between atoms: C_22  and  C_23
REMARK                            x       y       z     vdW  Elec       q    Type
REMARK                         _______ _______ _______ _____ _____    ______ ____
ROOT
ATOM      1  C   UNL     1       2.542   4.747  20.851  0.00  0.00    +0.000 A 
ATOM      2  N   UNL     1       1.945   5.948  21.001  0.00  0.00    +0.000 NA
ATOM      3  C   UNL     1       2.173   6.885  20.063  0.00  0.00    +0.000 A 
ATOM      4  C   UNL     1       3.082   6.672  19.029  0.00  0.00    +0.000 A 
ATOM      5  C   UNL     1       3.683   5.412  18.820  0.00  0.00    +0.000 A 
ATOM      6  C   UNL     1       3.367   4.413  19.771  0.00  0.00    +0.000 A 
ENDROOT
BRANCH   5   7
ATOM      7  C   UNL     1       4.620   5.228  17.657  0.00  0.00    +0.000 A 
ATOM      8  C   UNL     1       5.825   5.968  17.605  0.00  0.00    +0.000 A 
ATOM      9  C   UNL     1       6.727   5.861  16.540  0.00  0.00    +0.000 A 
ATOM     10  C   UNL     1       6.424   5.054  15.453  0.00  0.00    +0.000 A 
ATOM     11 CL   UNL     1       7.510   4.956  14.126  0.00  0.00    +0.000 Cl
ATOM     12  C   UNL     1       5.245   4.325  15.444  0.00  0.00    +0.000 A 
ATOM     13  C   UNL     1       4.371   4.382  16.542  0.00  0.00    +0.000 A 
ATOM     14 CL   UNL     1       3.011   3.305  16.438  0.00  0.00    +0.000 Cl
ENDBRANCH   5   7
BRANCH   3  15
ATOM     15  C   UNL     1       1.355   8.104  20.168  0.00  0.00    +0.000 A 
ATOM     16  C   UNL     1       1.338   9.055  19.141  0.00  0.00    +0.000 A 
ATOM     17  C   UNL     1       0.588  10.210  19.300  0.00  0.00    +0.000 A 
ATOM     18  N   UNL     1      -0.138  10.487  20.403  0.00  0.00    +0.000 NA
ATOM     19  C   UNL     1      -0.104   9.576  21.394  0.00  0.00    +0.000 A 
ATOM     20  C   UNL     1       0.614   8.392  21.324  0.00  0.00    +0.000 A 
ENDBRANCH   3  15
BRANCH   1  22
ATOM     21  C   UNL     1       1.238   2.910  21.519  0.00  0.00    +0.000 C 
ATOM     22  O   UNL     1       2.318   3.790  21.825  0.00  0.00    +0.000 OA
ENDBRANCH   1  22
BRANCH   6  23
ATOM     23  C   UNL     1       3.838   3.065  19.676  0.00  0.00    +0.000 C 
ATOM     24  N   UNL     1       4.253   1.979  19.593  0.00  0.00    +0.000 NA
ENDBRANCH   6  23
TORSDOF 4
ENDMDL
MODEL 4
REMARK VINA RESULT:      -6.0      2.777      6.574
REMARK  Name = 
REMARK  5 active torsions:
REMARK  status: ('A' for Active; 'I' for Inactive)
REMARK    1  A    between atoms: C_1  and  O_2
REMARK    2  A    between atoms: O_2  and  C_3
REMARK    3  A    between atoms: C_5  and  C_6
REMARK    4  A    between atoms: C_13  and  C_14
REMARK    5  A    between atoms: C_22  and  C_23
REMARK                            x       y       z     vdW  Elec       q    Type
REMARK                         _______ _______ _______ _____ _____    ______ ____
ROOT
ATOM      1  C   UNL     1       2.931   3.451  18.124  0.00  0.00    +0.000 A 
ATOM      2  N   UNL     1       3.879   3.689  17.194  0.00  0.00    +0.000 NA
ATOM      3  C   UNL     1       4.290   4.960  17.026  0.00  0.00    +0.000 A 
ATOM      4  C   UNL     1       3.683   6.015  17.703  0.00  0.00    +0.000 A 
ATOM      5  C   UNL     1       2.725   5.791  18.714  0.00  0.00    +0.000 A 
ATOM      6  C   UNL     1       2.364   4.440  18.935  0.00  0.00    +0.000 A 
ENDROOT
BRANCH   5   7
ATOM      7  C   UNL     1       2.138   6.969  19.446  0.00  0.00    +0.000 A 
ATOM      8  C   UNL     1       1.745   6.828  20.797  0.00  0.00    +0.000 A 
ATOM      9  C   UNL     1       1.171   7.877  21.526  0.00  0.00    +0.000 A 
ATOM     10  C   UNL     1       0.908   9.089  20.906  0.00  0.00    +0.000 A 
ATOM     11 CL   UNL     1       0.163  10.362  21.786  0.00  0.00    +0.000 Cl
ATOM     12  C   UNL     1       1.252   9.271  19.575  0.00  0.00    +0.000 A 
ATOM     13  C   UNL     1       1.889   8.241  18.863  0.00  0.00    +0.000 A 
ATOM     14 CL   UNL     1       2.380   8.674  17.254  0.00  0.00    +0.000 Cl
ENDBRANCH   5   7
BRANCH   3  15
ATOM     15  C   UNL     1       5.452   5.141  16.141  0.00  0.00    +0.000 A 
ATOM     16  C   UNL     1       5.523   4.501  14.899  0.00  0.00    +0.000 A 
ATOM     17  C   UNL     1       6.655   4.664  14.117  0.00  0.00    +0.000 A 
ATOM     18  N   UNL     1       7.718   5.411  14.482  0.00  0.00    +0.000 NA
ATOM     19  C   UNL     1       7.651   6.011  15.685  0.00  0.00    +0.000 A 
ATOM     20  C   UNL     1       6.560   5.909  16.535  0.00  0.00    +0.000 A 
ENDBRANCH   3  15
BRANCH   1  22
ATOM     21  C   UNL     1       3.555   1.232  18.583  0.00  0.00    +0.000 C 
ATOM     22  O   UNL     1       2.501   2.146  18.285  0.00  0.00    +0.000 OA
ENDBRANCH   1  22
BRANCH   6  23
ATOM     23  C   UNL     1       1.457   4.030  19.962  0.00  0.00    +0.000 C 
ATOM     24  N   UNL     1       0.733   3.663  20.799  0.00  0.00    +0.000 NA
ENDBRANCH   6  23
TORSDOF 4
ENDMDL
MODEL 5
REMARK VINA RESULT:      -6.0      3.732      6.175
REMARK  Name = 
REMARK  5 active torsions:
REMARK  status: ('A' for Active; 'I' for Inactive)
REMARK    1  A    between atoms: C_1  and  O_2
REMARK    2  A    between atoms: O_2  and  C_3
REMARK    3  A    between atoms: C_5  and  C_6
REMARK    4  A    between atoms: C_13  and  C_14
REMARK    5  A    between atoms: C_22  and  C_23
REMARK                            x       y       z     vdW  Elec       q    Type
REMARK                         _______ _______ _______ _____ _____    ______ ____
ROOT
ATOM      1  C   UNL     1      -0.223  10.909  20.911  0.00  0.00    +0.000 A 
ATOM      2  N   UNL     1      -1.157  11.252  20.001  0.00  0.00    +0.000 NA
ATOM      3  C   UNL     1      -1.145  10.614  18.816  0.00  0.00    +0.000 A 
ATOM      4  C   UNL     1      -0.137   9.710  18.489  0.00  0.00    +0.000 A 
ATOM      5  C   UNL     1       0.823   9.297  19.437  0.00  0.00    +0.000 A 
ATOM      6  C   UNL     1       0.744   9.919  20.706  0.00  0.00    +0.000 A 
ENDROOT
BRANCH   5   7
ATOM      7  C   UNL     1       1.859   8.280  19.040  0.00  0.00    +0.000 A 
ATOM      8  C   UNL     1       2.723   8.549  17.952  0.00  0.00    +0.000 A 
ATOM      9  C   UNL     1       3.691   7.636  17.518  0.00  0.00    +0.000 A 
ATOM     10  C   UNL     1       3.787   6.390  18.117  0.00  0.00    +0.000 A 
ATOM     11 CL   UNL     1       4.945   5.252  17.556  0.00  0.00    +0.000 Cl
ATOM     12  C   UNL     1       2.948   6.067  19.173  0.00  0.00    +0.000 A 
ATOM     13  C   UNL     1       2.022   7.008  19.652  0.00  0.00    +0.000 A 
ATOM     14 CL   UNL     1       1.146   6.502  21.065  0.00  0.00    +0.000 Cl
ENDBRANCH   5   7
BRANCH   3  15
ATOM     15  C   UNL     1      -2.292  10.886  17.934  0.00  0.00    +0.000 A 
ATOM     16  C   UNL     1      -3.429  11.549  18.409  0.00  0.00    +0.000 A 
ATOM     17  C   UNL     1      -4.504  11.745  17.557  0.00  0.00    +0.000 A 
ATOM     18  N   UNL     1      -4.531  11.326  16.274  0.00  0.00    +0.000 NA
ATOM     19  C   UNL     1      -3.441  10.674  15.829  0.00  0.00    +0.000 A 
ATOM     20  C   UNL     1      -2.317  10.434  16.605  0.00  0.00    +0.000 A 
ENDBRANCH   3  15
BRANCH   1  22
ATOM     21  C   UNL     1      -1.323  11.216  22.966  0.00  0.00    +0.000 C 
ATOM     22  O   UNL     1      -0.230  11.577  22.123  0.00  0.00    +0.000 OA
ENDBRANCH   1  22
BRANCH   6  23
ATOM     23  C   UNL     1       1.597   9.574  21.802  0.00  0.00    +0.000 C 
ATOM     24  N   UNL     1       2.273   9.315  22.715  0.00  0.00    +0.000 NA
ENDBRANCH   6  23
TORSDOF 4
ENDMDL
MODEL 6
REMARK VINA RESULT:      -6.0      5.181      8.203
REMARK  Name = 
REMARK  5 active torsions:
REMARK  status: ('A' for Active; 'I' for Inactive)
REMARK    1  A    between atoms: C_1  and  O_2
REMARK    2  A    between atoms: O_2  and  C_3
REMARK    3  A    between atoms: C_5  and  C_6
REMARK    4  A    between atoms: C_13  and  C_14
REMARK    5  A    between atoms: C_22  and  C_23
REMARK                            x       y       z     vdW  Elec       q    Type
REMARK                         _______ _______ _______ _____ _____    ______ ____
ROOT
ATOM      1  C   UNL     1      -0.573  13.338  19.737  0.00  0.00    +0.000 A 
ATOM      2  N   UNL     1      -1.835  13.212  19.278  0.00  0.00    +0.000 NA
ATOM      3  C   UNL     1      -2.271  11.978  18.965  0.00  0.00    +0.000 A 
ATOM      4  C   UNL     1      -1.419  10.876  19.003  0.00  0.00    +0.000 A 
ATOM      5  C   UNL     1      -0.111  10.969  19.524  0.00  0.00    +0.000 A 
ATOM      6  C   UNL     1       0.303  12.262  19.925  0.00  0.00    +0.000 A 
ENDROOT
BRANCH   5   7
ATOM      7  C   UNL     1       0.748   9.734  19.584  0.00  0.00    +0.000 A 
ATOM      8  C   UNL     1       1.455   9.318  18.431  0.00  0.00    +0.000 A 
ATOM      9  C   UNL     1       2.251   8.166  18.414  0.00  0.00    +0.000 A 
ATOM     10  C   UNL     1       2.315   7.351  19.534  0.00  0.00    +0.000 A 
ATOM     11 CL   UNL     1       3.256   5.914  19.500  0.00  0.00    +0.000 Cl
ATOM     12  C   UNL     1       1.622   7.702  20.682  0.00  0.00    +0.000 A 
ATOM     13  C   UNL     1       0.877   8.892  20.721  0.00  0.00    +0.000 A 
ATOM     14 CL   UNL     1       0.184   9.259  22.272  0.00  0.00    +0.000 Cl
ENDBRANCH   5   7
BRANCH   3  15
ATOM     15  C   UNL     1      -3.705  11.868  18.653  0.00  0.00    +0.000 A 
ATOM     16  C   UNL     1      -4.141  11.487  17.379  0.00  0.00    +0.000 A 
ATOM     17  C   UNL     1      -5.500  11.439  17.114  0.00  0.00    +0.000 A 
ATOM     18  N   UNL     1      -6.452  11.746  18.020  0.00  0.00    +0.000 NA
ATOM     19  C   UNL     1      -6.025  12.128  19.239  0.00  0.00    +0.000 A 
ATOM     20  C   UNL     1      -4.688  12.203  19.597  0.00  0.00    +0.000 A 
ENDBRANCH   3  15
BRANCH   1  22
ATOM     21  C   UNL     1      -0.340  15.557  19.000  0.00  0.00    +0.000 C 
ATOM     22  O   UNL     1      -0.123  14.610  20.044  0.00  0.00    +0.000 OA
ENDBRANCH   1  22
BRANCH   6  23
ATOM     23  C   UNL     1       1.572  12.526  20.532  0.00  0.00    +0.000 C 
ATOM     24  N   UNL     1       2.593  12.772  21.038  0.00  0.00    +0.000 NA
ENDBRANCH   6  23
TORSDOF 4
ENDMDL
MODEL 7
REMARK VINA RESULT:      -6.0      5.234      7.976
REMARK  Name = 
REMARK  5 active torsions:
REMARK  status: ('A' for Active; 'I' for Inactive)
REMARK    1  A    between atoms: C_1  and  O_2
REMARK    2  A    between atoms: O_2  and  C_3
REMARK    3  A    between atoms: C_5  and  C_6
REMARK    4  A    between atoms: C_13  and  C_14
REMARK    5  A    between atoms: C_22  and  C_23
REMARK                            x       y       z     vdW  Elec       q    Type
REMARK                         _______ _______ _______ _____ _____    ______ ____
ROOT
ATOM      1  C   UNL     1      -0.022  13.702  19.580  0.00  0.00    +0.000 A 
ATOM      2  N   UNL     1      -1.164  13.678  20.296  0.00  0.00    +0.000 NA
ATOM      3  C   UNL     1      -1.582  12.492  20.776  0.00  0.00    +0.000 A 
ATOM      4  C   UNL     1      -0.924  11.307  20.453  0.00  0.00    +0.000 A 
ATOM      5  C   UNL     1       0.298  11.307  19.748  0.00  0.00    +0.000 A 
ATOM      6  C   UNL     1       0.764  12.573  19.321  0.00  0.00    +0.000 A 
ENDROOT
BRANCH   5   7
ATOM      7  C   UNL     1       0.988   9.998  19.470  0.00  0.00    +0.000 A 
ATOM      8  C   UNL     1       1.316   9.649  18.138  0.00  0.00    +0.000 A 
ATOM      9  C   UNL     1       1.936   8.437  17.811  0.00  0.00    +0.000 A 
ATOM     10  C   UNL     1       2.189   7.498  18.799  0.00  0.00    +0.000 A 
ATOM     11 CL   UNL     1       2.909   5.993  18.392  0.00  0.00    +0.000 Cl
ATOM     12  C   UNL     1       1.865   7.781  20.117  0.00  0.00    +0.000 A 
ATOM     13  C   UNL     1       1.305   9.025  20.455  0.00  0.00    +0.000 A 
ATOM     14 CL   UNL     1       1.087   9.277  22.161  0.00  0.00    +0.000 Cl
ENDBRANCH   5   7
BRANCH   3  15
ATOM     15  C   UNL     1      -2.722  12.545  21.705  0.00  0.00    +0.000 A 
ATOM     16  C   UNL     1      -2.564  12.243  23.062  0.00  0.00    +0.000 A 
ATOM     17  C   UNL     1      -3.672  12.262  23.894  0.00  0.00    +0.000 A 
ATOM     18  N   UNL     1      -4.920  12.555  23.473  0.00  0.00    +0.000 NA
ATOM     19  C   UNL     1      -5.068  12.829  22.163  0.00  0.00    +0.000 A 
ATOM     20  C   UNL     1      -4.019  12.837  21.256  0.00  0.00    +0.000 A 
ENDBRANCH   3  15
BRANCH   1  22
ATOM     21  C   UNL     1      -0.563  15.964  19.238  0.00  0.00    +0.000 C 
ATOM     22  O   UNL     1       0.397  14.921  19.076  0.00  0.00    +0.000 OA
ENDBRANCH   1  22
BRANCH   6  23
ATOM     23  C   UNL     1       2.014  12.763  18.650  0.00  0.00    +0.000 C 
ATOM     24  N   UNL     1       3.015  12.937  18.080  0.00  0.00    +0.000 NA
ENDBRANCH   6  23
TORSDOF 4
ENDMDL
MODEL 8
REMARK VINA RESULT:      -6.0      8.700     11.796
REMARK  Name = 
REMARK  5 active torsions:
REMARK  status: ('A' for Active; 'I' for Inactive)
REMARK    1  A    between atoms: C_1  and  O_2
REMARK    2  A    between atoms: O_2  and  C_3
REMARK    3  A    between atoms: C_5  and  C_6
REMARK    4  A    between atoms: C_13  and  C_14
REMARK    5  A    between atoms: C_22  and  C_23
REMARK                            x       y       z     vdW  Elec       q    Type
REMARK                         _______ _______ _______ _____ _____    ______ ____
ROOT
ATOM      1  C   UNL     1      -6.119  12.047  20.527  0.00  0.00    +0.000 A 
ATOM      2  N   UNL     1      -5.613  11.632  19.348  0.00  0.00    +0.000 NA
ATOM      3  C   UNL     1      -4.316  11.888  19.095  0.00  0.00    +0.000 A 
ATOM      4  C   UNL     1      -3.545  12.655  19.965  0.00  0.00    +0.000 A 
ATOM      5  C   UNL     1      -4.033  13.060  21.226  0.00  0.00    +0.000 A 
ATOM      6  C   UNL     1      -5.375  12.710  21.509  0.00  0.00    +0.000 A 
ENDROOT
BRANCH   5   7
ATOM      7  C   UNL     1      -3.136  13.846  22.145  0.00  0.00    +0.000 A 
ATOM      8  C   UNL     1      -3.229  15.257  22.173  0.00  0.00    +0.000 A 
ATOM      9  C   UNL     1      -2.408  16.048  22.988  0.00  0.00    +0.000 A 
ATOM     10  C   UNL     1      -1.417  15.455  23.755  0.00  0.00    +0.000 A 
ATOM     11 CL   UNL     1      -0.380  16.427  24.720  0.00  0.00    +0.000 Cl
ATOM     12  C   UNL     1      -1.269  14.077  23.745  0.00  0.00    +0.000 A 
ATOM     13  C   UNL     1      -2.136  13.279  22.980  0.00  0.00    +0.000 A 
ATOM     14 CL   UNL     1      -1.910  11.568  23.184  0.00  0.00    +0.000 Cl
ENDBRANCH   5   7
BRANCH   3  15
ATOM     15  C   UNL     1      -3.764  11.254  17.887  0.00  0.00    +0.000 A 
ATOM     16  C   UNL     1      -2.604  10.474  17.945  0.00  0.00    +0.000 A 
ATOM     17  C   UNL     1      -2.093   9.931  16.777  0.00  0.00    +0.000 A 
ATOM     18  N   UNL     1      -2.649  10.110  15.561  0.00  0.00    +0.000 NA
ATOM     19  C   UNL     1      -3.756  10.875  15.510  0.00  0.00    +0.000 A 
ATOM     20  C   UNL     1      -4.341  11.457  16.624  0.00  0.00    +0.000 A 
ENDBRANCH   3  15
BRANCH   1  22
ATOM     21  C   UNL     1      -7.788  10.407  20.754  0.00  0.00    +0.000 C 
ATOM     22  O   UNL     1      -7.456  11.794  20.778  0.00  0.00    +0.000 OA
ENDBRANCH   1  22
BRANCH   6  23
ATOM     23  C   UNL     1      -6.009  12.986  22.762  0.00  0.00    +0.000 C 
ATOM     24  N   UNL     1      -6.500  13.191  23.799  0.00  0.00    +0.000 NA
ENDBRANCH   6  23
TORSDOF 4
ENDMDL
MODEL 9
REMARK VINA RESULT:      -6.0      1.291      1.663
REMARK  Name = 
REMARK  5 active torsions:
REMARK  status: ('A' for Active; 'I' for Inactive)
REMARK    1  A    between atoms: C_1  and  O_2
REMARK    2  A    between atoms: O_2  and  C_3
REMARK    3  A    between atoms: C_5  and  C_6
REMARK    4  A    between atoms: C_13  and  C_14
REMARK    5  A    between atoms: C_22  and  C_23
REMARK                            x       y       z     vdW  Elec       q    Type
REMARK                         _______ _______ _______ _____ _____    ______ ____
ROOT
ATOM      1  C   UNL     1       1.525   4.477  20.237  0.00  0.00    +0.000 A 
ATOM      2  N   UNL     1       1.268   5.692  20.763  0.00  0.00    +0.000 NA
ATOM      3  C   UNL     1       1.854   6.762  20.194  0.00  0.00    +0.000 A 
ATOM      4  C   UNL     1       2.784   6.619  19.168  0.00  0.00    +0.000 A 
ATOM      5  C   UNL     1       3.036   5.367  18.566  0.00  0.00    +0.000 A 
ATOM      6  C   UNL     1       2.347   4.264  19.125  0.00  0.00    +0.000 A 
ENDROOT
BRANCH   5   7
ATOM      7  C   UNL     1       4.017   5.282  17.428  0.00  0.00    +0.000 A 
ATOM      8  C   UNL     1       4.565   4.028  17.069  0.00  0.00    +0.000 A 
ATOM      9  C   UNL     1       5.500   3.884  16.036  0.00  0.00    +0.000 A 
ATOM     10  C   UNL     1       5.972   5.004  15.368  0.00  0.00    +0.000 A 
ATOM     11 CL   UNL     1       7.152   4.833  14.131  0.00  0.00    +0.000 Cl
ATOM     12  C   UNL     1       5.485   6.259  15.697  0.00  0.00    +0.000 A 
ATOM     13  C   UNL     1       4.498   6.396  16.688  0.00  0.00    +0.000 A 
ATOM     14 CL   UNL     1       3.893   8.013  16.884  0.00  0.00    +0.000 Cl
ENDBRANCH   5   7
BRANCH   3  15
ATOM     15  C   UNL     1       1.396   8.073  20.680  0.00  0.00    +0.000 A 
ATOM     16  C   UNL     1       1.256   9.159  19.809  0.00  0.00    +0.000 A 
ATOM     17  C   UNL     1       0.864  10.388  20.315  0.00  0.00    +0.000 A 
ATOM     18  N   UNL     1       0.609  10.614  21.621  0.00  0.00    +0.000 NA
ATOM     19  C   UNL     1       0.762   9.570  22.456  0.00  0.00    +0.000 A 
ATOM     20  C   UNL     1       1.146   8.303  22.042  0.00  0.00    +0.000 A 
ENDBRANCH   3  15
BRANCH   1  22
ATOM     21  C   UNL     1       1.728   2.790  21.860  0.00  0.00    +0.000 C 
ATOM     22  O   UNL     1       0.932   3.378  20.833  0.00  0.00    +0.000 OA
ENDBRANCH   1  22
BRANCH   6  23
ATOM     23  C   UNL     1       2.437   2.936  18.599  0.00  0.00    +0.000 C 
ATOM     24  N   UNL     1       2.481   1.862  18.150  0.00  0.00    +0.000 NA
ENDBRANCH   6  23
TORSDOF 4
ENDMDL
