MODEL 1
REMARK VINA RESULT:      -7.8      0.000      0.000
REMARK  Name = 
REMARK  3 active torsions:
REMARK  status: ('A' for Active; 'I' for Inactive)
REMARK    1  A    between atoms: C_1  and  C_2
REMARK    2  A    between atoms: C_5  and  C_6
REMARK    3  A    between atoms: C_11  and  C_12
REMARK                            x       y       z     vdW  Elec       q    Type
REMARK                         _______ _______ _______ _____ _____    ______ ____
ROOT
ATOM      1  C   UNL     1       2.756   5.735  18.534  0.00  0.00    +0.000 C 
ATOM      2  O   UNL     1       2.456   6.920  18.703  0.00  0.00    +0.000 OA
ATOM      3  N   UNL     1       3.814   5.408  17.670  0.00  0.00    +0.000 N 
ATOM      4  C   UNL     1       4.573   6.537  17.134  0.00  0.00    +0.000 C 
ATOM      5  C   UNL     1       5.358   6.153  15.915  0.00  0.00    +0.000 C 
ATOM      6  C   UNL     1       5.437   4.903  15.429  0.00  0.00    +0.000 C 
ATOM      7  C   UNL     1       4.772   3.750  16.126  0.00  0.00    +0.000 C 
ATOM      8  C   UNL     1       4.496   4.114  17.591  0.00  0.00    +0.000 C 
ENDROOT
BRANCH   1  13
ATOM      9  C   UNL     1       1.228   2.397  22.334  0.00  0.00    +0.000 C 
ATOM     10  C   UNL     1       1.358   3.105  21.030  0.00  0.00    +0.000 A 
ATOM     11  C   UNL     1       0.783   2.796  19.818  0.00  0.00    +0.000 A 
ATOM     12  C   UNL     1       1.129   3.737  18.802  0.00  0.00    +0.000 A 
ATOM     13  C   UNL     1       2.054   4.668  19.238  0.00  0.00    +0.000 A 
ATOM     14  S   UNL     1       2.323   4.511  20.927  0.00  0.00    +0.000 S 
ENDBRANCH   1  13
BRANCH   6  15
ATOM     15  C   UNL     1       6.193   4.641  14.204  0.00  0.00    +0.000 A 
ATOM     16  C   UNL     1       7.338   5.384  13.901  0.00  0.00    +0.000 A 
ATOM     17  C   UNL     1       8.009   5.176  12.694  0.00  0.00    +0.000 A 
ATOM     18  C   UNL     1       7.538   4.226  11.788  0.00  0.00    +0.000 A 
ATOM     19  C   UNL     1       6.399   3.478  12.088  0.00  0.00    +0.000 A 
ATOM     20  C   UNL     1       5.731   3.682  13.294  0.00  0.00    +0.000 A 
ENDBRANCH   6  15
TORSDOF 2
ENDMDL
MODEL 2
REMARK VINA RESULT:      -7.5      0.076      1.084
REMARK  Name = 
REMARK  3 active torsions:
REMARK  status: ('A' for Active; 'I' for Inactive)
REMARK    1  A    between atoms: C_1  and  C_2
REMARK    2  A    between atoms: C_5  and  C_6
REMARK    3  A    between atoms: C_11  and  C_12
REMARK                            x       y       z     vdW  Elec       q    Type
REMARK                         _______ _______ _______ _____ _____    ______ ____
ROOT
ATOM      1  C   UNL     1       2.806   5.749  18.609  0.00  0.00    +0.000 C 
ATOM      2  O   UNL     1       2.550   6.936  18.829  0.00  0.00    +0.000 OA
ATOM      3  N   UNL     1       3.831   5.419  17.707  0.00  0.00    +0.000 N 
ATOM      4  C   UNL     1       4.615   6.541  17.193  0.00  0.00    +0.000 C 
ATOM      5  C   UNL     1       5.356   6.177  15.941  0.00  0.00    +0.000 C 
ATOM      6  C   UNL     1       5.381   4.944  15.408  0.00  0.00    +0.000 C 
ATOM      7  C   UNL     1       4.695   3.788  16.080  0.00  0.00    +0.000 C 
ATOM      8  C   UNL     1       4.466   4.107  17.564  0.00  0.00    +0.000 C 
ENDROOT
BRANCH   1  13
ATOM      9  C   UNL     1       1.224   2.360  22.341  0.00  0.00    +0.000 C 
ATOM     10  C   UNL     1       1.364   3.093  21.053  0.00  0.00    +0.000 A 
ATOM     11  C   UNL     1       0.781   2.820  19.835  0.00  0.00    +0.000 A 
ATOM     12  C   UNL     1       1.144   3.776  18.838  0.00  0.00    +0.000 A 
ATOM     13  C   UNL     1       2.086   4.680  19.292  0.00  0.00    +0.000 A 
ATOM     14  S   UNL     1       2.355   4.483  20.976  0.00  0.00    +0.000 S 
ENDBRANCH   1  13
BRANCH   6  15
ATOM     15  C   UNL     1       6.097   4.702  14.156  0.00  0.00    +0.000 A 
ATOM     16  C   UNL     1       5.655   3.724  13.259  0.00  0.00    +0.000 A 
ATOM     17  C   UNL     1       6.388   3.450  12.103  0.00  0.00    +0.000 A 
ATOM     18  C   UNL     1       7.564   4.152  11.840  0.00  0.00    +0.000 A 
ATOM     19  C   UNL     1       8.007   5.133  12.728  0.00  0.00    +0.000 A 
ATOM     20  C   UNL     1       7.273   5.410  13.880  0.00  0.00    +0.000 A 
ENDBRANCH   6  15
TORSDOF 2
ENDMDL
MODEL 3
REMARK VINA RESULT:      -7.0      5.241      7.140
REMARK  Name = 
REMARK  3 active torsions:
REMARK  status: ('A' for Active; 'I' for Inactive)
REMARK    1  A    between atoms: C_1  and  C_2
REMARK    2  A    between atoms: C_5  and  C_6
REMARK    3  A    between atoms: C_11  and  C_12
REMARK                            x       y       z     vdW  Elec       q    Type
REMARK                         _______ _______ _______ _____ _____    ______ ____
ROOT
ATOM      1  C   UNL     1       0.831  10.477  20.856  0.00  0.00    +0.000 C 
ATOM      2  O   UNL     1       0.812  10.317  22.079  0.00  0.00    +0.000 OA
ATOM      3  N   UNL     1       1.195   9.406  20.024  0.00  0.00    +0.000 N 
ATOM      4  C   UNL     1       1.400   8.121  20.691  0.00  0.00    +0.000 C 
ATOM      5  C   UNL     1       2.199   7.174  19.845  0.00  0.00    +0.000 C 
ATOM      6  C   UNL     1       2.594   7.433  18.587  0.00  0.00    +0.000 C 
ATOM      7  C   UNL     1       2.203   8.706  17.892  0.00  0.00    +0.000 C 
ATOM      8  C   UNL     1       0.976   9.322  18.578  0.00  0.00    +0.000 C 
ENDROOT
BRANCH   1  13
ATOM      9  C   UNL     1       1.109  15.372  18.886  0.00  0.00    +0.000 C 
ATOM     10  C   UNL     1       0.600  14.049  19.342  0.00  0.00    +0.000 A 
ATOM     11  C   UNL     1      -0.702  13.610  19.435  0.00  0.00    +0.000 A 
ATOM     12  C   UNL     1      -0.784  12.261  19.894  0.00  0.00    +0.000 A 
ATOM     13  C   UNL     1       0.450  11.750  20.253  0.00  0.00    +0.000 A 
ATOM     14  S   UNL     1       1.706  12.842  19.828  0.00  0.00    +0.000 S 
ENDBRANCH   1  13
BRANCH   6  15
ATOM     15  C   UNL     1       3.411   6.460  17.863  0.00  0.00    +0.000 A 
ATOM     16  C   UNL     1       4.486   6.880  17.071  0.00  0.00    +0.000 A 
ATOM     17  C   UNL     1       5.212   5.950  16.325  0.00  0.00    +0.000 A 
ATOM     18  C   UNL     1       4.867   4.600  16.366  0.00  0.00    +0.000 A 
ATOM     19  C   UNL     1       3.800   4.175  17.158  0.00  0.00    +0.000 A 
ATOM     20  C   UNL     1       3.077   5.101  17.907  0.00  0.00    +0.000 A 
ENDBRANCH   6  15
TORSDOF 2
ENDMDL
MODEL 4
REMARK VINA RESULT:      -7.0      5.419      7.444
REMARK  Name = 
REMARK  3 active torsions:
REMARK  status: ('A' for Active; 'I' for Inactive)
REMARK    1  A    between atoms: C_1  and  C_2
REMARK    2  A    between atoms: C_5  and  C_6
REMARK    3  A    between atoms: C_11  and  C_12
REMARK                            x       y       z     vdW  Elec       q    Type
REMARK                         _______ _______ _______ _____ _____    ______ ____
ROOT
ATOM      1  C   UNL     1       0.780  10.746  20.877  0.00  0.00    +0.000 C 
ATOM      2  O   UNL     1       0.766  10.605  22.103  0.00  0.00    +0.000 OA
ATOM      3  N   UNL     1       1.094   9.648  20.060  0.00  0.00    +0.000 N 
ATOM      4  C   UNL     1       1.253   8.366  20.745  0.00  0.00    +0.000 C 
ATOM      5  C   UNL     1       2.006   7.374  19.908  0.00  0.00    +0.000 C 
ATOM      6  C   UNL     1       2.401   7.598  18.644  0.00  0.00    +0.000 C 
ATOM      7  C   UNL     1       2.055   8.875  17.931  0.00  0.00    +0.000 C 
ATOM      8  C   UNL     1       0.860   9.550  18.617  0.00  0.00    +0.000 C 
ENDROOT
BRANCH   1  13
ATOM      9  C   UNL     1       1.233  15.604  18.851  0.00  0.00    +0.000 C 
ATOM     10  C   UNL     1       0.678  14.305  19.320  0.00  0.00    +0.000 A 
ATOM     11  C   UNL     1      -0.639  13.910  19.410  0.00  0.00    +0.000 A 
ATOM     12  C   UNL     1      -0.768  12.570  19.885  0.00  0.00    +0.000 A 
ATOM     13  C   UNL     1       0.446  12.023  20.257  0.00  0.00    +0.000 A 
ATOM     14  S   UNL     1       1.740  13.067  19.827  0.00  0.00    +0.000 S 
ENDBRANCH   1  13
BRANCH   6  15
ATOM     15  C   UNL     1       3.172   6.582  17.928  0.00  0.00    +0.000 A 
ATOM     16  C   UNL     1       2.795   5.235  17.977  0.00  0.00    +0.000 A 
ATOM     17  C   UNL     1       3.580   4.265  17.352  0.00  0.00    +0.000 A 
ATOM     18  C   UNL     1       4.743   4.635  16.678  0.00  0.00    +0.000 A 
ATOM     19  C   UNL     1       5.120   5.977  16.621  0.00  0.00    +0.000 A 
ATOM     20  C   UNL     1       4.335   6.948  17.241  0.00  0.00    +0.000 A 
ENDBRANCH   6  15
TORSDOF 2
ENDMDL
MODEL 5
REMARK VINA RESULT:      -6.8      4.469      8.243
REMARK  Name = 
REMARK  3 active torsions:
REMARK  status: ('A' for Active; 'I' for Inactive)
REMARK    1  A    between atoms: C_1  and  C_2
REMARK    2  A    between atoms: C_5  and  C_6
REMARK    3  A    between atoms: C_11  and  C_12
REMARK                            x       y       z     vdW  Elec       q    Type
REMARK                         _______ _______ _______ _____ _____    ______ ____
ROOT
ATOM      1  C   UNL     1       3.605   6.682  17.927  0.00  0.00    +0.000 C 
ATOM      2  O   UNL     1       4.147   7.237  16.967  0.00  0.00    +0.000 OA
ATOM      3  N   UNL     1       2.580   7.347  18.619  0.00  0.00    +0.000 N 
ATOM      4  C   UNL     1       2.142   8.619  18.046  0.00  0.00    +0.000 C 
ATOM      5  C   UNL     1       1.399   9.455  19.045  0.00  0.00    +0.000 C 
ATOM      6  C   UNL     1       1.085   9.049  20.287  0.00  0.00    +0.000 C 
ATOM      7  C   UNL     1       1.411   7.661  20.762  0.00  0.00    +0.000 C 
ATOM      8  C   UNL     1       1.635   6.736  19.558  0.00  0.00    +0.000 C 
ENDROOT
BRANCH   1  13
ATOM      9  C   UNL     1       3.647   1.424  18.448  0.00  0.00    +0.000 C 
ATOM     10  C   UNL     1       3.983   2.869  18.576  0.00  0.00    +0.000 A 
ATOM     11  C   UNL     1       4.906   3.472  19.402  0.00  0.00    +0.000 A 
ATOM     12  C   UNL     1       4.956   4.886  19.214  0.00  0.00    +0.000 A 
ATOM     13  C   UNL     1       3.986   5.336  18.337  0.00  0.00    +0.000 A 
ATOM     14  S   UNL     1       3.174   4.014  17.600  0.00  0.00    +0.000 S 
ENDBRANCH   1  13
BRANCH   6  15
ATOM     15  C   UNL     1       0.399   9.960  21.203  0.00  0.00    +0.000 A 
ATOM     16  C   UNL     1      -0.182   9.481  22.382  0.00  0.00    +0.000 A 
ATOM     17  C   UNL     1      -0.899  10.346  23.211  0.00  0.00    +0.000 A 
ATOM     18  C   UNL     1      -1.037  11.690  22.866  0.00  0.00    +0.000 A 
ATOM     19  C   UNL     1      -0.455  12.174  21.694  0.00  0.00    +0.000 A 
ATOM     20  C   UNL     1       0.265  11.312  20.867  0.00  0.00    +0.000 A 
ENDBRANCH   6  15
TORSDOF 2
ENDMDL
MODEL 6
REMARK VINA RESULT:      -6.7      2.509      7.529
REMARK  Name = 
REMARK  3 active torsions:
REMARK  status: ('A' for Active; 'I' for Inactive)
REMARK    1  A    between atoms: C_1  and  C_2
REMARK    2  A    between atoms: C_5  and  C_6
REMARK    3  A    between atoms: C_11  and  C_12
REMARK                            x       y       z     vdW  Elec       q    Type
REMARK                         _______ _______ _______ _____ _____    ______ ____
ROOT
ATOM      1  C   UNL     1       6.803   5.408  15.666  0.00  0.00    +0.000 C 
ATOM      2  O   UNL     1       7.749   6.073  16.096  0.00  0.00    +0.000 OA
ATOM      3  N   UNL     1       5.680   5.197  16.483  0.00  0.00    +0.000 N 
ATOM      4  C   UNL     1       5.673   5.913  17.758  0.00  0.00    +0.000 C 
ATOM      5  C   UNL     1       4.706   5.309  18.732  0.00  0.00    +0.000 C 
ATOM      6  C   UNL     1       3.873   4.295  18.441  0.00  0.00    +0.000 C 
ATOM      7  C   UNL     1       3.803   3.714  17.058  0.00  0.00    +0.000 C 
ATOM      8  C   UNL     1       4.369   4.714  16.040  0.00  0.00    +0.000 C 
ENDROOT
BRANCH   1  13
ATOM      9  C   UNL     1       5.777   2.334  11.493  0.00  0.00    +0.000 C 
ATOM     10  C   UNL     1       6.327   3.404  12.371  0.00  0.00    +0.000 A 
ATOM     11  C   UNL     1       7.314   4.325  12.096  0.00  0.00    +0.000 A 
ATOM     12  C   UNL     1       7.545   5.209  13.193  0.00  0.00    +0.000 A 
ATOM     13  C   UNL     1       6.814   4.863  14.314  0.00  0.00    +0.000 A 
ATOM     14  S   UNL     1       5.706   3.602  13.950  0.00  0.00    +0.000 S 
ENDBRANCH   1  13
BRANCH   6  15
ATOM     15  C   UNL     1       3.000   3.746  19.478  0.00  0.00    +0.000 A 
ATOM     16  C   UNL     1       1.651   4.110  19.540  0.00  0.00    +0.000 A 
ATOM     17  C   UNL     1       0.845   3.638  20.578  0.00  0.00    +0.000 A 
ATOM     18  C   UNL     1       1.384   2.802  21.556  0.00  0.00    +0.000 A 
ATOM     19  C   UNL     1       2.727   2.432  21.496  0.00  0.00    +0.000 A 
ATOM     20  C   UNL     1       3.532   2.899  20.458  0.00  0.00    +0.000 A 
ENDBRANCH   6  15
TORSDOF 2
ENDMDL
MODEL 7
REMARK VINA RESULT:      -6.7      2.507      7.489
REMARK  Name = 
REMARK  3 active torsions:
REMARK  status: ('A' for Active; 'I' for Inactive)
REMARK    1  A    between atoms: C_1  and  C_2
REMARK    2  A    between atoms: C_5  and  C_6
REMARK    3  A    between atoms: C_11  and  C_12
REMARK                            x       y       z     vdW  Elec       q    Type
REMARK                         _______ _______ _______ _____ _____    ______ ____
ROOT
ATOM      1  C   UNL     1       6.816   5.454  15.669  0.00  0.00    +0.000 C 
ATOM      2  O   UNL     1       7.770   6.122  16.077  0.00  0.00    +0.000 OA
ATOM      3  N   UNL     1       5.702   5.262  16.503  0.00  0.00    +0.000 N 
ATOM      4  C   UNL     1       5.713   6.000  17.765  0.00  0.00    +0.000 C 
ATOM      5  C   UNL     1       4.755   5.418  18.761  0.00  0.00    +0.000 C 
ATOM      6  C   UNL     1       3.915   4.403  18.498  0.00  0.00    +0.000 C 
ATOM      7  C   UNL     1       3.826   3.797  17.126  0.00  0.00    +0.000 C 
ATOM      8  C   UNL     1       4.384   4.777  16.084  0.00  0.00    +0.000 C 
ENDROOT
BRANCH   1  13
ATOM      9  C   UNL     1       5.742   2.300  11.568  0.00  0.00    +0.000 C 
ATOM     10  C   UNL     1       6.300   3.389  12.418  0.00  0.00    +0.000 A 
ATOM     11  C   UNL     1       7.277   4.310  12.112  0.00  0.00    +0.000 A 
ATOM     12  C   UNL     1       7.520   5.215  13.188  0.00  0.00    +0.000 A 
ATOM     13  C   UNL     1       6.809   4.884  14.327  0.00  0.00    +0.000 A 
ATOM     14  S   UNL     1       5.702   3.611  14.003  0.00  0.00    +0.000 S 
ENDBRANCH   1  13
BRANCH   6  15
ATOM     15  C   UNL     1       3.052   3.876  19.554  0.00  0.00    +0.000 A 
ATOM     16  C   UNL     1       3.547   2.960  20.489  0.00  0.00    +0.000 A 
ATOM     17  C   UNL     1       2.695   2.406  21.447  0.00  0.00    +0.000 A 
ATOM     18  C   UNL     1       1.348   2.766  21.474  0.00  0.00    +0.000 A 
ATOM     19  C   UNL     1       0.850   3.683  20.549  0.00  0.00    +0.000 A 
ATOM     20  C   UNL     1       1.700   4.240  19.595  0.00  0.00    +0.000 A 
ENDBRANCH   6  15
TORSDOF 2
ENDMDL
MODEL 8
REMARK VINA RESULT:      -6.7      4.689      6.784
REMARK  Name = 
REMARK  3 active torsions:
REMARK  status: ('A' for Active; 'I' for Inactive)
REMARK    1  A    between atoms: C_1  and  C_2
REMARK    2  A    between atoms: C_5  and  C_6
REMARK    3  A    between atoms: C_11  and  C_12
REMARK                            x       y       z     vdW  Elec       q    Type
REMARK                         _______ _______ _______ _____ _____    ______ ____
ROOT
ATOM      1  C   UNL     1       0.821   9.887  19.578  0.00  0.00    +0.000 C 
ATOM      2  O   UNL     1       0.839  10.608  18.577  0.00  0.00    +0.000 OA
ATOM      3  N   UNL     1       1.483   8.649  19.550  0.00  0.00    +0.000 N 
ATOM      4  C   UNL     1       2.268   8.372  18.348  0.00  0.00    +0.000 C 
ATOM      5  C   UNL     1       2.559   6.909  18.196  0.00  0.00    +0.000 C 
ATOM      6  C   UNL     1       2.227   5.974  19.103  0.00  0.00    +0.000 C 
ATOM      7  C   UNL     1       1.573   6.343  20.404  0.00  0.00    +0.000 C 
ATOM      8  C   UNL     1       1.824   7.826  20.713  0.00  0.00    +0.000 C 
ENDROOT
BRANCH   1  13
ATOM      9  C   UNL     1      -1.447  12.927  23.258  0.00  0.00    +0.000 C 
ATOM     10  C   UNL     1      -0.901  11.754  22.521  0.00  0.00    +0.000 A 
ATOM     11  C   UNL     1      -0.753  10.454  22.952  0.00  0.00    +0.000 A 
ATOM     12  C   UNL     1      -0.211   9.608  21.938  0.00  0.00    +0.000 A 
ATOM     13  C   UNL     1       0.151  10.310  20.803  0.00  0.00    +0.000 A 
ATOM     14  S   UNL     1      -0.366  11.944  20.910  0.00  0.00    +0.000 S 
ENDBRANCH   1  13
BRANCH   6  15
ATOM     15  C   UNL     1       2.515   4.564  18.838  0.00  0.00    +0.000 A 
ATOM     16  C   UNL     1       1.478   3.661  18.580  0.00  0.00    +0.000 A 
ATOM     17  C   UNL     1       1.758   2.305  18.403  0.00  0.00    +0.000 A 
ATOM     18  C   UNL     1       3.073   1.847  18.483  0.00  0.00    +0.000 A 
ATOM     19  C   UNL     1       4.111   2.744  18.734  0.00  0.00    +0.000 A 
ATOM     20  C   UNL     1       3.834   4.099  18.907  0.00  0.00    +0.000 A 
ENDBRANCH   6  15
TORSDOF 2
ENDMDL
MODEL 9
REMARK VINA RESULT:      -6.7      4.315      7.685
REMARK  Name = 
REMARK  3 active torsions:
REMARK  status: ('A' for Active; 'I' for Inactive)
REMARK    1  A    between atoms: C_1  and  C_2
REMARK    2  A    between atoms: C_5  and  C_6
REMARK    3  A    between atoms: C_11  and  C_12
REMARK                            x       y       z     vdW  Elec       q    Type
REMARK                         _______ _______ _______ _____ _____    ______ ____
ROOT
ATOM      1  C   UNL     1       3.050   5.617  19.459  0.00  0.00    +0.000 C 
ATOM      2  O   UNL     1       2.807   5.008  20.504  0.00  0.00    +0.000 OA
ATOM      3  N   UNL     1       2.570   6.926  19.296  0.00  0.00    +0.000 N 
ATOM      4  C   UNL     1       1.919   7.519  20.463  0.00  0.00    +0.000 C 
ATOM      5  C   UNL     1       1.064   8.693  20.091  0.00  0.00    +0.000 C 
ATOM      6  C   UNL     1       0.980   9.204  18.851  0.00  0.00    +0.000 C 
ATOM      7  C   UNL     1       1.810   8.659  17.723  0.00  0.00    +0.000 C 
ATOM      8  C   UNL     1       3.013   7.889  18.283  0.00  0.00    +0.000 C 
ENDROOT
BRANCH   1  13
ATOM      9  C   UNL     1       7.153   4.380  16.368  0.00  0.00    +0.000 C 
ATOM     10  C   UNL     1       5.787   4.454  16.957  0.00  0.00    +0.000 A 
ATOM     11  C   UNL     1       4.609   3.925  16.477  0.00  0.00    +0.000 A 
ATOM     12  C   UNL     1       3.507   4.190  17.346  0.00  0.00    +0.000 A 
ATOM     13  C   UNL     1       3.853   5.014  18.400  0.00  0.00    +0.000 A 
ATOM     14  S   UNL     1       5.549   5.279  18.434  0.00  0.00    +0.000 S 
ENDBRANCH   1  13
BRANCH   6  15
ATOM     15  C   UNL     1       0.079  10.324  18.581  0.00  0.00    +0.000 A 
ATOM     16  C   UNL     1       0.372  11.606  19.058  0.00  0.00    +0.000 A 
ATOM     17  C   UNL     1      -0.531  12.652  18.858  0.00  0.00    +0.000 A 
ATOM     18  C   UNL     1      -1.729  12.420  18.183  0.00  0.00    +0.000 A 
ATOM     19  C   UNL     1      -2.024  11.144  17.701  0.00  0.00    +0.000 A 
ATOM     20  C   UNL     1      -1.121  10.101  17.895  0.00  0.00    +0.000 A 
ENDBRANCH   6  15
TORSDOF 2
ENDMDL
