MODEL 1
REMARK VINA RESULT:      -6.6      0.000      0.000
REMARK  Name = 
REMARK  7 active torsions:
REMARK  status: ('A' for Active; 'I' for Inactive)
REMARK    1  A    between atoms: C_1  and  C_2
REMARK    2  A    between atoms: CA_3  and  N_4
REMARK    3  A    between atoms: CA_3  and  C_14
REMARK    4  A    between atoms: C_5  and  C_7
REMARK    5  A    between atoms: C_7  and  C_8
REMARK    6  A    between atoms: C_8  and  C_9
REMARK    7  A    between atoms: C_14  and  OXT_16
REMARK                            x       y       z     vdW  Elec       q    Type
REMARK                         _______ _______ _______ _____ _____    ______ ____
ROOT
ATOM      1  N   UNL     1       4.841   4.697  17.488  0.00  0.00    +0.000 N 
ATOM      2  C   UNL     1       3.995   5.785  17.548  0.00  0.00    +0.000 C 
ATOM      3  O   UNL     1       4.169   6.864  16.988  0.00  0.00    +0.000 OA
ATOM      4  H   UNL     1       4.455   3.814  17.811  0.00  0.00    +0.000 HD
ENDROOT
BRANCH   1   7
ATOM      5  C   UNL     1       5.623   4.339  14.446  0.00  0.00    +0.000 C 
ATOM      6  C   UNL     1       6.474   4.403  15.671  0.00  0.00    +0.000 C 
ATOM      7  CA  UNL     1       6.116   4.618  16.951  0.00  0.00    +0.000 C 
BRANCH   7   8
ATOM      8  C   UNL     1       7.267   4.871  17.896  0.00  0.00    +0.000 C 
ATOM      9  O   UNL     1       7.292   5.722  18.767  0.00  0.00    +0.000 OA
BRANCH   8  10
ATOM     10  OXT UNL     1       8.278   3.998  17.685  0.00  0.00    +0.000 OA
ATOM     11  HXT UNL     1       8.395   3.798  16.736  0.00  0.00    +0.000 HD
ENDBRANCH   8  10
ENDBRANCH   7   8
ENDBRANCH   1   7
BRANCH   2  12
ATOM     12  C   UNL     1       2.704   5.515  18.303  0.00  0.00    +0.000 C 
BRANCH  12  13
ATOM     13  C   UNL     1       1.982   4.283  17.765  0.00  0.00    +0.000 C 
BRANCH  13  14
ATOM     14  C   UNL     1       1.782   3.209  18.831  0.00  0.00    +0.000 C 
ATOM     15  C   UNL     1       0.882   3.688  19.960  0.00  0.00    +0.000 C 
ATOM     16  C   UNL     1       1.396   2.906  21.140  0.00  0.00    +0.000 C 
ATOM     17  C   UNL     1       2.880   2.827  20.857  0.00  0.00    +0.000 C 
ATOM     18  O   UNL     1       3.046   2.880  19.433  0.00  0.00    +0.000 OA
ENDBRANCH  13  14
ENDBRANCH  12  13
ENDBRANCH   2  12
TORSDOF 6
ENDMDL
MODEL 2
REMARK VINA RESULT:      -6.5      1.427      1.588
REMARK  Name = 
REMARK  7 active torsions:
REMARK  status: ('A' for Active; 'I' for Inactive)
REMARK    1  A    between atoms: C_1  and  C_2
REMARK    2  A    between atoms: CA_3  and  N_4
REMARK    3  A    between atoms: CA_3  and  C_14
REMARK    4  A    between atoms: C_5  and  C_7
REMARK    5  A    between atoms: C_7  and  C_8
REMARK    6  A    between atoms: C_8  and  C_9
REMARK    7  A    between atoms: C_14  and  OXT_16
REMARK                            x       y       z     vdW  Elec       q    Type
REMARK                         _______ _______ _______ _____ _____    ______ ____
ROOT
ATOM      1  N   UNL     1       5.368   3.491  16.230  0.00  0.00    +0.000 N 
ATOM      2  C   UNL     1       4.355   4.053  16.978  0.00  0.00    +0.000 C 
ATOM      3  O   UNL     1       4.085   5.250  17.042  0.00  0.00    +0.000 OA
ATOM      4  H   UNL     1       5.322   2.483  16.102  0.00  0.00    +0.000 HD
ENDROOT
BRANCH   1   7
ATOM      5  C   UNL     1       5.735   3.679  13.095  0.00  0.00    +0.000 C 
ATOM      6  C   UNL     1       6.602   4.164  14.210  0.00  0.00    +0.000 C 
ATOM      7  CA  UNL     1       6.389   4.123  15.539  0.00  0.00    +0.000 C 
BRANCH   7   8
ATOM      8  C   UNL     1       7.363   4.934  16.361  0.00  0.00    +0.000 C 
ATOM      9  O   UNL     1       7.507   6.143  16.297  0.00  0.00    +0.000 OA
BRANCH   8  10
ATOM     10  OXT UNL     1       8.048   4.153  17.225  0.00  0.00    +0.000 OA
ATOM     11  HXT UNL     1       8.763   3.657  16.781  0.00  0.00    +0.000 HD
ENDBRANCH   8  10
ENDBRANCH   7   8
ENDBRANCH   1   7
BRANCH   2  12
ATOM     12  C   UNL     1       3.469   3.032  17.673  0.00  0.00    +0.000 C 
BRANCH  12  13
ATOM     13  C   UNL     1       2.000   3.451  17.651  0.00  0.00    +0.000 C 
BRANCH  13  14
ATOM     14  C   UNL     1       1.390   3.524  19.048  0.00  0.00    +0.000 C 
ATOM     15  C   UNL     1       2.017   4.629  19.886  0.00  0.00    +0.000 C 
ATOM     16  C   UNL     1       1.889   4.089  21.285  0.00  0.00    +0.000 C 
ATOM     17  C   UNL     1       2.082   2.602  21.080  0.00  0.00    +0.000 C 
ATOM     18  O   UNL     1       1.638   2.294  19.751  0.00  0.00    +0.000 OA
ENDBRANCH  13  14
ENDBRANCH  12  13
ENDBRANCH   2  12
TORSDOF 6
ENDMDL
MODEL 3
REMARK VINA RESULT:      -6.4      2.084      5.457
REMARK  Name = 
REMARK  7 active torsions:
REMARK  status: ('A' for Active; 'I' for Inactive)
REMARK    1  A    between atoms: C_1  and  C_2
REMARK    2  A    between atoms: CA_3  and  N_4
REMARK    3  A    between atoms: CA_3  and  C_14
REMARK    4  A    between atoms: C_5  and  C_7
REMARK    5  A    between atoms: C_7  and  C_8
REMARK    6  A    between atoms: C_8  and  C_9
REMARK    7  A    between atoms: C_14  and  OXT_16
REMARK                            x       y       z     vdW  Elec       q    Type
REMARK                         _______ _______ _______ _____ _____    ______ ____
ROOT
ATOM      1  N   UNL     1       5.411   3.620  19.214  0.00  0.00    +0.000 N 
ATOM      2  C   UNL     1       5.597   4.974  19.021  0.00  0.00    +0.000 C 
ATOM      3  O   UNL     1       4.764   5.852  19.232  0.00  0.00    +0.000 OA
ATOM      4  H   UNL     1       6.253   3.051  19.215  0.00  0.00    +0.000 HD
ENDROOT
BRANCH   1   7
ATOM      5  C   UNL     1       2.974   3.059  17.281  0.00  0.00    +0.000 C 
ATOM      6  C   UNL     1       3.165   2.741  18.727  0.00  0.00    +0.000 C 
ATOM      7  CA  UNL     1       4.242   2.939  19.511  0.00  0.00    +0.000 C 
BRANCH   7   8
ATOM      8  C   UNL     1       4.174   2.265  20.861  0.00  0.00    +0.000 C 
ATOM      9  O   UNL     1       3.228   2.311  21.627  0.00  0.00    +0.000 OA
BRANCH   8  10
ATOM     10  OXT UNL     1       5.296   1.555  21.113  0.00  0.00    +0.000 OA
ATOM     11  HXT UNL     1       5.737   1.265  20.291  0.00  0.00    +0.000 HD
ENDBRANCH   8  10
ENDBRANCH   7   8
ENDBRANCH   1   7
BRANCH   2  12
ATOM     12  C   UNL     1       7.013   5.346  18.615  0.00  0.00    +0.000 C 
BRANCH  12  13
ATOM     13  C   UNL     1       7.467   4.574  17.378  0.00  0.00    +0.000 C 
BRANCH  13  14
ATOM     14  C   UNL     1       6.674   4.948  16.129  0.00  0.00    +0.000 C 
ATOM     15  C   UNL     1       5.988   3.742  15.507  0.00  0.00    +0.000 C 
ATOM     16  C   UNL     1       5.946   4.108  14.047  0.00  0.00    +0.000 C 
ATOM     17  C   UNL     1       7.241   4.869  13.864  0.00  0.00    +0.000 C 
ATOM     18  O   UNL     1       7.565   5.469  15.127  0.00  0.00    +0.000 OA
ENDBRANCH  13  14
ENDBRANCH  12  13
ENDBRANCH   2  12
TORSDOF 6
ENDMDL
MODEL 4
REMARK VINA RESULT:      -6.4      1.812      2.349
REMARK  Name = 
REMARK  7 active torsions:
REMARK  status: ('A' for Active; 'I' for Inactive)
REMARK    1  A    between atoms: C_1  and  C_2
REMARK    2  A    between atoms: CA_3  and  N_4
REMARK    3  A    between atoms: CA_3  and  C_14
REMARK    4  A    between atoms: C_5  and  C_7
REMARK    5  A    between atoms: C_7  and  C_8
REMARK    6  A    between atoms: C_8  and  C_9
REMARK    7  A    between atoms: C_14  and  OXT_16
REMARK                            x       y       z     vdW  Elec       q    Type
REMARK                         _______ _______ _______ _____ _____    ______ ____
ROOT
ATOM      1  N   UNL     1       4.972   3.811  17.602  0.00  0.00    +0.000 N 
ATOM      2  C   UNL     1       4.646   2.998  18.667  0.00  0.00    +0.000 C 
ATOM      3  O   UNL     1       4.944   3.196  19.842  0.00  0.00    +0.000 OA
ATOM      4  H   UNL     1       4.467   3.637  16.737  0.00  0.00    +0.000 HD
ENDROOT
BRANCH   1   7
ATOM      5  C   UNL     1       4.170   6.864  17.427  0.00  0.00    +0.000 C 
ATOM      6  C   UNL     1       5.510   6.207  17.437  0.00  0.00    +0.000 C 
ATOM      7  CA  UNL     1       5.823   4.904  17.574  0.00  0.00    +0.000 C 
BRANCH   7   8
ATOM      8  C   UNL     1       7.292   4.626  17.792  0.00  0.00    +0.000 C 
ATOM      9  O   UNL     1       7.898   4.806  18.834  0.00  0.00    +0.000 OA
BRANCH   8  10
ATOM     10  OXT UNL     1       7.864   4.105  16.684  0.00  0.00    +0.000 OA
ATOM     11  HXT UNL     1       8.839   4.155  16.720  0.00  0.00    +0.000 HD
ENDBRANCH   8  10
ENDBRANCH   7   8
ENDBRANCH   1   7
BRANCH   2  12
ATOM     12  C   UNL     1       3.747   1.831  18.294  0.00  0.00    +0.000 C 
BRANCH  12  13
ATOM     13  C   UNL     1       2.449   2.303  17.643  0.00  0.00    +0.000 C 
BRANCH  13  14
ATOM     14  C   UNL     1       1.390   2.699  18.668  0.00  0.00    +0.000 C 
ATOM     15  C   UNL     1       1.460   4.178  19.017  0.00  0.00    +0.000 C 
ATOM     16  C   UNL     1       0.960   4.201  20.438  0.00  0.00    +0.000 C 
ATOM     17  C   UNL     1       1.496   2.900  20.993  0.00  0.00    +0.000 C 
ATOM     18  O   UNL     1       1.610   1.983  19.895  0.00  0.00    +0.000 OA
ENDBRANCH  13  14
ENDBRANCH  12  13
ENDBRANCH   2  12
TORSDOF 6
ENDMDL
MODEL 5
REMARK VINA RESULT:      -6.4      1.819      2.615
REMARK  Name = 
REMARK  7 active torsions:
REMARK  status: ('A' for Active; 'I' for Inactive)
REMARK    1  A    between atoms: C_1  and  C_2
REMARK    2  A    between atoms: CA_3  and  N_4
REMARK    3  A    between atoms: CA_3  and  C_14
REMARK    4  A    between atoms: C_5  and  C_7
REMARK    5  A    between atoms: C_7  and  C_8
REMARK    6  A    between atoms: C_8  and  C_9
REMARK    7  A    between atoms: C_14  and  OXT_16
REMARK                            x       y       z     vdW  Elec       q    Type
REMARK                         _______ _______ _______ _____ _____    ______ ____
ROOT
ATOM      1  N   UNL     1       5.543   6.096  17.909  0.00  0.00    +0.000 N 
ATOM      2  C   UNL     1       5.076   5.226  18.873  0.00  0.00    +0.000 C 
ATOM      3  O   UNL     1       5.727   4.335  19.415  0.00  0.00    +0.000 OA
ATOM      4  H   UNL     1       4.964   6.911  17.727  0.00  0.00    +0.000 HD
ENDROOT
BRANCH   1   7
ATOM      5  C   UNL     1       7.714   8.388  17.750  0.00  0.00    +0.000 C 
ATOM      6  C   UNL     1       7.658   7.050  17.090  0.00  0.00    +0.000 C 
ATOM      7  CA  UNL     1       6.747   6.067  17.225  0.00  0.00    +0.000 C 
BRANCH   7   8
ATOM      8  C   UNL     1       7.140   4.750  16.599  0.00  0.00    +0.000 C 
ATOM      9  O   UNL     1       6.714   4.314  15.544  0.00  0.00    +0.000 OA
BRANCH   8  10
ATOM     10  OXT UNL     1       8.071   4.110  17.342  0.00  0.00    +0.000 OA
ATOM     11  HXT UNL     1       8.858   3.873  16.814  0.00  0.00    +0.000 HD
ENDBRANCH   8  10
ENDBRANCH   7   8
ENDBRANCH   1   7
BRANCH   2  12
ATOM     12  C   UNL     1       3.658   5.523  19.332  0.00  0.00    +0.000 C 
BRANCH  12  13
ATOM     13  C   UNL     1       2.710   5.714  18.150  0.00  0.00    +0.000 C 
BRANCH  13  14
ATOM     14  C   UNL     1       1.850   4.482  17.884  0.00  0.00    +0.000 C 
ATOM     15  C   UNL     1       1.380   3.826  19.174  0.00  0.00    +0.000 C 
ATOM     16  C   UNL     1       1.257   2.379  18.777  0.00  0.00    +0.000 C 
ATOM     17  C   UNL     1       2.396   2.213  17.794  0.00  0.00    +0.000 C 
ATOM     18  O   UNL     1       2.623   3.492  17.184  0.00  0.00    +0.000 OA
ENDBRANCH  13  14
ENDBRANCH  12  13
ENDBRANCH   2  12
TORSDOF 6
ENDMDL
MODEL 6
REMARK VINA RESULT:      -6.4      1.587      1.744
REMARK  Name = 
REMARK  7 active torsions:
REMARK  status: ('A' for Active; 'I' for Inactive)
REMARK    1  A    between atoms: C_1  and  C_2
REMARK    2  A    between atoms: CA_3  and  N_4
REMARK    3  A    between atoms: CA_3  and  C_14
REMARK    4  A    between atoms: C_5  and  C_7
REMARK    5  A    between atoms: C_7  and  C_8
REMARK    6  A    between atoms: C_8  and  C_9
REMARK    7  A    between atoms: C_14  and  OXT_16
REMARK                            x       y       z     vdW  Elec       q    Type
REMARK                         _______ _______ _______ _____ _____    ______ ____
ROOT
ATOM      1  N   UNL     1       3.769   4.540  17.640  0.00  0.00    +0.000 N 
ATOM      2  C   UNL     1       2.572   5.090  18.049  0.00  0.00    +0.000 C 
ATOM      3  O   UNL     1       2.414   6.226  18.491  0.00  0.00    +0.000 OA
ATOM      4  H   UNL     1       3.703   3.686  17.094  0.00  0.00    +0.000 HD
ENDROOT
BRANCH   1   7
ATOM      5  C   UNL     1       5.171   6.742  15.856  0.00  0.00    +0.000 C 
ATOM      6  C   UNL     1       5.692   5.937  17.002  0.00  0.00    +0.000 C 
ATOM      7  CA  UNL     1       5.051   5.048  17.783  0.00  0.00    +0.000 C 
BRANCH   7   8
ATOM      8  C   UNL     1       5.820   4.611  19.007  0.00  0.00    +0.000 C 
ATOM      9  O   UNL     1       6.529   5.329  19.690  0.00  0.00    +0.000 OA
BRANCH   8  10
ATOM     10  OXT UNL     1       5.598   3.307  19.289  0.00  0.00    +0.000 OA
ATOM     11  HXT UNL     1       4.801   3.184  19.840  0.00  0.00    +0.000 HD
ENDBRANCH   8  10
ENDBRANCH   7   8
ENDBRANCH   1   7
BRANCH   2  12
ATOM     12  C   UNL     1       1.370   4.193  17.803  0.00  0.00    +0.000 C 
BRANCH  12  13
ATOM     13  C   UNL     1       1.738   2.714  17.908  0.00  0.00    +0.000 C 
BRANCH  13  14
ATOM     14  C   UNL     1       1.703   2.203  19.346  0.00  0.00    +0.000 C 
ATOM     15  C   UNL     1       0.804   3.052  20.231  0.00  0.00    +0.000 C 
ATOM     16  C   UNL     1       1.450   2.910  21.584  0.00  0.00    +0.000 C 
ATOM     17  C   UNL     1       2.921   2.837  21.236  0.00  0.00    +0.000 C 
ATOM     18  O   UNL     1       3.020   2.275  19.919  0.00  0.00    +0.000 OA
ENDBRANCH  13  14
ENDBRANCH  12  13
ENDBRANCH   2  12
TORSDOF 6
ENDMDL
MODEL 7
REMARK VINA RESULT:      -6.4      1.320      1.377
REMARK  Name = 
REMARK  7 active torsions:
REMARK  status: ('A' for Active; 'I' for Inactive)
REMARK    1  A    between atoms: C_1  and  C_2
REMARK    2  A    between atoms: CA_3  and  N_4
REMARK    3  A    between atoms: CA_3  and  C_14
REMARK    4  A    between atoms: C_5  and  C_7
REMARK    5  A    between atoms: C_7  and  C_8
REMARK    6  A    between atoms: C_8  and  C_9
REMARK    7  A    between atoms: C_14  and  OXT_16
REMARK                            x       y       z     vdW  Elec       q    Type
REMARK                         _______ _______ _______ _____ _____    ______ ____
ROOT
ATOM      1  N   UNL     1       4.920   4.692  16.211  0.00  0.00    +0.000 N 
ATOM      2  C   UNL     1       4.563   4.514  17.532  0.00  0.00    +0.000 C 
ATOM      3  O   UNL     1       5.338   4.395  18.478  0.00  0.00    +0.000 OA
ATOM      4  H   UNL     1       4.179   5.000  15.588  0.00  0.00    +0.000 HD
ENDROOT
BRANCH   1   7
ATOM      5  C   UNL     1       5.629   3.710  13.291  0.00  0.00    +0.000 C 
ATOM      6  C   UNL     1       6.510   4.137  14.418  0.00  0.00    +0.000 C 
ATOM      7  CA  UNL     1       6.176   4.610  15.634  0.00  0.00    +0.000 C 
BRANCH   7   8
ATOM      8  C   UNL     1       7.326   5.182  16.428  0.00  0.00    +0.000 C 
ATOM      9  O   UNL     1       7.603   6.365  16.520  0.00  0.00    +0.000 OA
BRANCH   8  10
ATOM     10  OXT UNL     1       8.010   4.210  17.074  0.00  0.00    +0.000 OA
ATOM     11  HXT UNL     1       7.461   3.417  17.225  0.00  0.00    +0.000 HD
ENDBRANCH   8  10
ENDBRANCH   7   8
ENDBRANCH   1   7
BRANCH   2  12
ATOM     12  C   UNL     1       3.065   4.590  17.777  0.00  0.00    +0.000 C 
BRANCH  12  13
ATOM     13  C   UNL     1       2.385   3.243  17.542  0.00  0.00    +0.000 C 
BRANCH  13  14
ATOM     14  C   UNL     1       1.885   2.605  18.836  0.00  0.00    +0.000 C 
ATOM     15  C   UNL     1       1.036   3.566  19.654  0.00  0.00    +0.000 C 
ATOM     16  C   UNL     1       1.288   3.102  21.064  0.00  0.00    +0.000 C 
ATOM     17  C   UNL     1       2.735   2.665  21.011  0.00  0.00    +0.000 C 
ATOM     18  O   UNL     1       3.005   2.247  19.665  0.00  0.00    +0.000 OA
ENDBRANCH  13  14
ENDBRANCH  12  13
ENDBRANCH   2  12
TORSDOF 6
ENDMDL
MODEL 8
REMARK VINA RESULT:      -6.3      1.851      2.507
REMARK  Name = 
REMARK  7 active torsions:
REMARK  status: ('A' for Active; 'I' for Inactive)
REMARK    1  A    between atoms: C_1  and  C_2
REMARK    2  A    between atoms: CA_3  and  N_4
REMARK    3  A    between atoms: CA_3  and  C_14
REMARK    4  A    between atoms: C_5  and  C_7
REMARK    5  A    between atoms: C_7  and  C_8
REMARK    6  A    between atoms: C_8  and  C_9
REMARK    7  A    between atoms: C_14  and  OXT_16
REMARK                            x       y       z     vdW  Elec       q    Type
REMARK                         _______ _______ _______ _____ _____    ______ ____
ROOT
ATOM      1  N   UNL     1       5.498   6.471  17.931  0.00  0.00    +0.000 N 
ATOM      2  C   UNL     1       4.561   6.844  16.990  0.00  0.00    +0.000 C 
ATOM      3  O   UNL     1       4.727   6.853  15.772  0.00  0.00    +0.000 OA
ATOM      4  H   UNL     1       5.144   6.300  18.868  0.00  0.00    +0.000 HD
ENDROOT
BRANCH   1   7
ATOM      5  C   UNL     1       7.883   8.544  17.812  0.00  0.00    +0.000 C 
ATOM      6  C   UNL     1       7.869   7.061  17.636  0.00  0.00    +0.000 C 
ATOM      7  CA  UNL     1       6.845   6.196  17.753  0.00  0.00    +0.000 C 
BRANCH   7   8
ATOM      8  C   UNL     1       7.244   4.739  17.756  0.00  0.00    +0.000 C 
ATOM      9  O   UNL     1       8.096   4.238  17.042  0.00  0.00    +0.000 OA
BRANCH   8  10
ATOM     10  OXT UNL     1       6.560   4.043  18.690  0.00  0.00    +0.000 OA
ATOM     11  HXT UNL     1       5.600   4.041  18.513  0.00  0.00    +0.000 HD
ENDBRANCH   8  10
ENDBRANCH   7   8
ENDBRANCH   1   7
BRANCH   2  12
ATOM     12  C   UNL     1       3.195   7.157  17.576  0.00  0.00    +0.000 C 
BRANCH  12  13
ATOM     13  C   UNL     1       2.717   6.052  18.515  0.00  0.00    +0.000 C 
BRANCH  13  14
ATOM     14  C   UNL     1       2.747   4.673  17.861  0.00  0.00    +0.000 C 
ATOM     15  C   UNL     1       1.462   3.897  18.109  0.00  0.00    +0.000 C 
ATOM     16  C   UNL     1       1.937   2.468  18.093  0.00  0.00    +0.000 C 
ATOM     17  C   UNL     1       3.311   2.574  18.717  0.00  0.00    +0.000 C 
ATOM     18  O   UNL     1       3.810   3.888  18.429  0.00  0.00    +0.000 OA
ENDBRANCH  13  14
ENDBRANCH  12  13
ENDBRANCH   2  12
TORSDOF 6
ENDMDL
MODEL 9
REMARK VINA RESULT:      -6.3      0.967      1.129
REMARK  Name = 
REMARK  7 active torsions:
REMARK  status: ('A' for Active; 'I' for Inactive)
REMARK    1  A    between atoms: C_1  and  C_2
REMARK    2  A    between atoms: CA_3  and  N_4
REMARK    3  A    between atoms: CA_3  and  C_14
REMARK    4  A    between atoms: C_5  and  C_7
REMARK    5  A    between atoms: C_7  and  C_8
REMARK    6  A    between atoms: C_8  and  C_9
REMARK    7  A    between atoms: C_14  and  OXT_16
REMARK                            x       y       z     vdW  Elec       q    Type
REMARK                         _______ _______ _______ _____ _____    ______ ____
ROOT
ATOM      1  N   UNL     1       4.807   4.353  16.472  0.00  0.00    +0.000 N 
ATOM      2  C   UNL     1       4.152   5.217  17.325  0.00  0.00    +0.000 C 
ATOM      3  O   UNL     1       4.563   6.314  17.695  0.00  0.00    +0.000 OA
ATOM      4  H   UNL     1       4.246   3.598  16.085  0.00  0.00    +0.000 HD
ENDROOT
BRANCH   1   7
ATOM      5  C   UNL     1       5.786   3.773  13.522  0.00  0.00    +0.000 C 
ATOM      6  C   UNL     1       6.553   4.128  14.753  0.00  0.00    +0.000 C 
ATOM      7  CA  UNL     1       6.102   4.430  15.985  0.00  0.00    +0.000 C 
BRANCH   7   8
ATOM      8  C   UNL     1       7.146   4.988  16.923  0.00  0.00    +0.000 C 
ATOM      9  O   UNL     1       7.703   4.366  17.811  0.00  0.00    +0.000 OA
BRANCH   8  10
ATOM     10  OXT UNL     1       7.429   6.277  16.634  0.00  0.00    +0.000 OA
ATOM     11  HXT UNL     1       7.282   6.480  15.690  0.00  0.00    +0.000 HD
ENDBRANCH   8  10
ENDBRANCH   7   8
ENDBRANCH   1   7
BRANCH   2  12
ATOM     12  C   UNL     1       2.759   4.752  17.717  0.00  0.00    +0.000 C 
BRANCH  12  13
ATOM     13  C   UNL     1       2.578   3.253  17.486  0.00  0.00    +0.000 C 
BRANCH  13  14
ATOM     14  C   UNL     1       2.134   2.516  18.747  0.00  0.00    +0.000 C 
ATOM     15  C   UNL     1       1.035   3.263  19.487  0.00  0.00    +0.000 C 
ATOM     16  C   UNL     1       1.275   2.861  20.918  0.00  0.00    +0.000 C 
ATOM     17  C   UNL     1       2.783   2.753  20.978  0.00  0.00    +0.000 C 
ATOM     18  O   UNL     1       3.239   2.410  19.662  0.00  0.00    +0.000 OA
ENDBRANCH  13  14
ENDBRANCH  12  13
ENDBRANCH   2  12
TORSDOF 6
ENDMDL
