MODEL 1
REMARK VINA RESULT:      -8.3      0.000      0.000
REMARK  Name = 
REMARK  6 active torsions:
REMARK  status: ('A' for Active; 'I' for Inactive)
REMARK    1  A    between atoms: N_11  and  C_12
REMARK    2  A    between atoms: C_12  and  C_13
REMARK    3  A    between atoms: C_13  and  O_14
REMARK    4  A    between atoms: C_13  and  C_15
REMARK    5  A    between atoms: C_15  and  O_16
REMARK    6  A    between atoms: O_16  and  C_17
REMARK                            x       y       z     vdW  Elec       q    Type
REMARK                         _______ _______ _______ _____ _____    ______ ____
ROOT
ATOM      1  C   UNL     1       1.577   3.250  20.813  0.00  0.00    +0.000 C 
ENDROOT
BRANCH   1   2
ATOM      2  O   UNL     1       2.445   3.415  21.939  0.00  0.00    +0.000 OA
ATOM      3  H   UNL     1       3.365   3.358  21.631  0.00  0.00    +0.000 HD
ENDBRANCH   1   2
BRANCH   1   4
ATOM      4  C   UNL     1       2.230   2.340  19.757  0.00  0.00    +0.000 C 
BRANCH   4  15
ATOM      5  O   UNL     1       5.024   3.131  20.411  0.00  0.00    +0.000 OA
ATOM      6  C   UNL     1       4.496   3.314  19.333  0.00  0.00    +0.000 C 
ATOM      7  C   UNL     1       5.165   3.930  18.189  0.00  0.00    +0.000 A 
ATOM      8  C   UNL     1       6.444   4.435  18.069  0.00  0.00    +0.000 A 
ATOM      9  C   UNL     1       6.812   4.953  16.824  0.00  0.00    +0.000 A 
ATOM     10  C   UNL     1       5.905   4.949  15.743  0.00  0.00    +0.000 A 
ATOM     11  C   UNL     1       4.612   4.437  15.893  0.00  0.00    +0.000 A 
ATOM     12  C   UNL     1       4.272   3.934  17.133  0.00  0.00    +0.000 A 
ATOM     13  C   UNL     1       3.025   3.341  17.611  0.00  0.00    +0.000 C 
ATOM     14  O   UNL     1       2.020   3.202  16.938  0.00  0.00    +0.000 OA
ATOM     15  N   UNL     1       3.225   3.007  18.923  0.00  0.00    +0.000 N 
ENDBRANCH   4  15
ENDBRANCH   1   4
BRANCH   1  16
ATOM     16  C   UNL     1       1.128   4.605  20.246  0.00  0.00    +0.000 C 
BRANCH  16  17
ATOM     17  O   UNL     1       2.081   5.609  20.624  0.00  0.00    +0.000 OA
BRANCH  17  18
ATOM     18  C   UNL     1       2.139   6.725  19.819  0.00  0.00    +0.000 A 
ATOM     19  C   UNL     1       2.766   6.722  18.569  0.00  0.00    +0.000 A 
ATOM     20  C   UNL     1       2.753   7.862  17.771  0.00  0.00    +0.000 A 
ATOM     21  C   UNL     1       2.110   9.015  18.212  0.00  0.00    +0.000 A 
ATOM     22  C   UNL     1       1.464   9.045  19.455  0.00  0.00    +0.000 A 
ATOM     23  C   UNL     1       0.807  10.210  19.884  0.00  0.00    +0.000 A 
ATOM     24  C   UNL     1       0.157  10.255  21.116  0.00  0.00    +0.000 A 
ATOM     25  C   UNL     1       0.159   9.134  21.938  0.00  0.00    +0.000 A 
ATOM     26  C   UNL     1       0.808   7.967  21.525  0.00  0.00    +0.000 A 
ATOM     27  C   UNL     1       1.470   7.890  20.279  0.00  0.00    +0.000 A 
ENDBRANCH  17  18
ENDBRANCH  16  17
ENDBRANCH   1  16
TORSDOF 6
ENDMDL
MODEL 2
REMARK VINA RESULT:      -8.2      0.073      1.716
REMARK  Name = 
REMARK  6 active torsions:
REMARK  status: ('A' for Active; 'I' for Inactive)
REMARK    1  A    between atoms: N_11  and  C_12
REMARK    2  A    between atoms: C_12  and  C_13
REMARK    3  A    between atoms: C_13  and  O_14
REMARK    4  A    between atoms: C_13  and  C_15
REMARK    5  A    between atoms: C_15  and  O_16
REMARK    6  A    between atoms: O_16  and  C_17
REMARK                            x       y       z     vdW  Elec       q    Type
REMARK                         _______ _______ _______ _____ _____    ______ ____
ROOT
ATOM      1  C   UNL     1       1.596   3.292  20.763  0.00  0.00    +0.000 C 
ENDROOT
BRANCH   1   2
ATOM      2  O   UNL     1       2.436   3.482  21.906  0.00  0.00    +0.000 OA
ATOM      3  H   UNL     1       3.051   4.210  21.721  0.00  0.00    +0.000 HD
ENDBRANCH   1   2
BRANCH   1   4
ATOM      4  C   UNL     1       2.263   2.334  19.758  0.00  0.00    +0.000 C 
BRANCH   4  15
ATOM      5  O   UNL     1       2.059   3.218  16.923  0.00  0.00    +0.000 OA
ATOM      6  C   UNL     1       3.055   3.340  17.607  0.00  0.00    +0.000 C 
ATOM      7  C   UNL     1       4.294   3.960  17.144  0.00  0.00    +0.000 A 
ATOM      8  C   UNL     1       4.620   4.493  15.913  0.00  0.00    +0.000 A 
ATOM      9  C   UNL     1       5.898   5.042  15.772  0.00  0.00    +0.000 A 
ATOM     10  C   UNL     1       6.805   5.048  16.853  0.00  0.00    +0.000 A 
ATOM     11  C   UNL     1       6.452   4.495  18.089  0.00  0.00    +0.000 A 
ATOM     12  C   UNL     1       5.186   3.956  18.202  0.00  0.00    +0.000 A 
ATOM     13  C   UNL     1       4.521   3.312  19.333  0.00  0.00    +0.000 C 
ATOM     14  O   UNL     1       5.030   3.131  20.425  0.00  0.00    +0.000 OA
ATOM     15  N   UNL     1       3.268   2.963  18.908  0.00  0.00    +0.000 N 
ENDBRANCH   4  15
ENDBRANCH   1   4
BRANCH   1  16
ATOM     16  C   UNL     1       1.186   4.633  20.136  0.00  0.00    +0.000 C 
BRANCH  16  17
ATOM     17  O   UNL     1       2.134   5.638  20.524  0.00  0.00    +0.000 OA
BRANCH  17  18
ATOM     18  C   UNL     1       2.178   6.767  19.737  0.00  0.00    +0.000 A 
ATOM     19  C   UNL     1       2.807   6.794  18.487  0.00  0.00    +0.000 A 
ATOM     20  C   UNL     1       2.778   7.946  17.708  0.00  0.00    +0.000 A 
ATOM     21  C   UNL     1       2.118   9.082  18.165  0.00  0.00    +0.000 A 
ATOM     22  C   UNL     1       1.470   9.082  19.407  0.00  0.00    +0.000 A 
ATOM     23  C   UNL     1       0.795  10.232  19.854  0.00  0.00    +0.000 A 
ATOM     24  C   UNL     1       0.142  10.247  21.084  0.00  0.00    +0.000 A 
ATOM     25  C   UNL     1       0.159   9.114  21.889  0.00  0.00    +0.000 A 
ATOM     26  C   UNL     1       0.825   7.963  21.459  0.00  0.00    +0.000 A 
ATOM     27  C   UNL     1       1.491   7.916  20.213  0.00  0.00    +0.000 A 
ENDBRANCH  17  18
ENDBRANCH  16  17
ENDBRANCH   1  16
TORSDOF 6
ENDMDL
MODEL 3
REMARK VINA RESULT:      -7.9      0.970      1.094
REMARK  Name = 
REMARK  6 active torsions:
REMARK  status: ('A' for Active; 'I' for Inactive)
REMARK    1  A    between atoms: N_11  and  C_12
REMARK    2  A    between atoms: C_12  and  C_13
REMARK    3  A    between atoms: C_13  and  O_14
REMARK    4  A    between atoms: C_13  and  C_15
REMARK    5  A    between atoms: C_15  and  O_16
REMARK    6  A    between atoms: O_16  and  C_17
REMARK                            x       y       z     vdW  Elec       q    Type
REMARK                         _______ _______ _______ _____ _____    ______ ____
ROOT
ATOM      1  C   UNL     1       1.919   3.749  19.738  0.00  0.00    +0.000 C 
ENDROOT
BRANCH   1   2
ATOM      2  O   UNL     1       1.187   2.588  20.145  0.00  0.00    +0.000 OA
ATOM      3  H   UNL     1       1.569   1.811  19.704  0.00  0.00    +0.000 HD
ENDBRANCH   1   2
BRANCH   1   4
ATOM      4  C   UNL     1       3.432   3.516  19.901  0.00  0.00    +0.000 C 
BRANCH   4  15
ATOM      5  O   UNL     1       6.089   4.850  19.757  0.00  0.00    +0.000 OA
ATOM      6  C   UNL     1       5.452   4.489  18.788  0.00  0.00    +0.000 C 
ATOM      7  C   UNL     1       5.908   4.636  17.408  0.00  0.00    +0.000 A 
ATOM      8  C   UNL     1       7.065   5.196  16.906  0.00  0.00    +0.000 A 
ATOM      9  C   UNL     1       7.236   5.175  15.518  0.00  0.00    +0.000 A 
ATOM     10  C   UNL     1       6.259   4.599  14.679  0.00  0.00    +0.000 A 
ATOM     11  C   UNL     1       5.091   4.043  15.213  0.00  0.00    +0.000 A 
ATOM     12  C   UNL     1       4.945   4.079  16.586  0.00  0.00    +0.000 A 
ATOM     13  C   UNL     1       3.863   3.597  17.442  0.00  0.00    +0.000 C 
ATOM     14  O   UNL     1       2.847   3.061  17.040  0.00  0.00    +0.000 OA
ATOM     15  N   UNL     1       4.224   3.882  18.732  0.00  0.00    +0.000 N 
ENDBRANCH   4  15
ENDBRANCH   1   4
BRANCH   1  16
ATOM     16  C   UNL     1       1.422   5.010  20.460  0.00  0.00    +0.000 C 
BRANCH  16  17
ATOM     17  O   UNL     1       2.473   5.986  20.474  0.00  0.00    +0.000 OA
BRANCH  17  18
ATOM     18  C   UNL     1       2.299   7.077  19.653  0.00  0.00    +0.000 A 
ATOM     19  C   UNL     1       2.753   7.109  18.330  0.00  0.00    +0.000 A 
ATOM     20  C   UNL     1       2.506   8.217  17.525  0.00  0.00    +0.000 A 
ATOM     21  C   UNL     1       1.799   9.303  18.032  0.00  0.00    +0.000 A 
ATOM     22  C   UNL     1       1.322   9.296  19.349  0.00  0.00    +0.000 A 
ATOM     23  C   UNL     1       0.597  10.393  19.845  0.00  0.00    +0.000 A 
ATOM     24  C   UNL     1       0.112  10.400  21.152  0.00  0.00    +0.000 A 
ATOM     25  C   UNL     1       0.349   9.310  21.981  0.00  0.00    +0.000 A 
ATOM     26  C   UNL     1       1.068   8.212  21.503  0.00  0.00    +0.000 A 
ATOM     27  C   UNL     1       1.567   8.174  20.181  0.00  0.00    +0.000 A 
ENDBRANCH  17  18
ENDBRANCH  16  17
ENDBRANCH   1  16
TORSDOF 6
ENDMDL
MODEL 4
REMARK VINA RESULT:      -7.8      1.127      1.506
REMARK  Name = 
REMARK  6 active torsions:
REMARK  status: ('A' for Active; 'I' for Inactive)
REMARK    1  A    between atoms: N_11  and  C_12
REMARK    2  A    between atoms: C_12  and  C_13
REMARK    3  A    between atoms: C_13  and  O_14
REMARK    4  A    between atoms: C_13  and  C_15
REMARK    5  A    between atoms: C_15  and  O_16
REMARK    6  A    between atoms: O_16  and  C_17
REMARK                            x       y       z     vdW  Elec       q    Type
REMARK                         _______ _______ _______ _____ _____    ______ ____
ROOT
ATOM      1  C   UNL     1       2.429   4.513  20.170  0.00  0.00    +0.000 C 
ENDROOT
BRANCH   1   2
ATOM      2  O   UNL     1       2.352   4.714  21.585  0.00  0.00    +0.000 OA
ATOM      3  H   UNL     1       2.962   4.096  22.019  0.00  0.00    +0.000 HD
ENDBRANCH   1   2
BRANCH   1   4
ATOM      4  C   UNL     1       3.547   3.511  19.828  0.00  0.00    +0.000 C 
BRANCH   4  15
ATOM      5  O   UNL     1       6.252   4.739  19.643  0.00  0.00    +0.000 OA
ATOM      6  C   UNL     1       5.579   4.419  18.684  0.00  0.00    +0.000 C 
ATOM      7  C   UNL     1       6.010   4.569  17.296  0.00  0.00    +0.000 A 
ATOM      8  C   UNL     1       7.177   5.090  16.775  0.00  0.00    +0.000 A 
ATOM      9  C   UNL     1       7.315   5.083  15.384  0.00  0.00    +0.000 A 
ATOM     10  C   UNL     1       6.297   4.559  14.559  0.00  0.00    +0.000 A 
ATOM     11  C   UNL     1       5.120   4.042  15.112  0.00  0.00    +0.000 A 
ATOM     12  C   UNL     1       5.007   4.063  16.488  0.00  0.00    +0.000 A 
ATOM     13  C   UNL     1       3.926   3.611  17.362  0.00  0.00    +0.000 C 
ATOM     14  O   UNL     1       2.880   3.123  16.976  0.00  0.00    +0.000 OA
ATOM     15  N   UNL     1       4.327   3.862  18.647  0.00  0.00    +0.000 N 
ENDBRANCH   4  15
ENDBRANCH   1   4
BRANCH   1  16
ATOM     16  C   UNL     1       2.566   5.846  19.419  0.00  0.00    +0.000 C 
BRANCH  16  17
ATOM     17  O   UNL     1       2.274   6.923  20.322  0.00  0.00    +0.000 OA
BRANCH  17  18
ATOM     18  C   UNL     1       1.824   8.091  19.749  0.00  0.00    +0.000 A 
ATOM     19  C   UNL     1       2.058   8.415  18.408  0.00  0.00    +0.000 A 
ATOM     20  C   UNL     1       1.538   9.584  17.863  0.00  0.00    +0.000 A 
ATOM     21  C   UNL     1       0.773  10.441  18.650  0.00  0.00    +0.000 A 
ATOM     22  C   UNL     1       0.511  10.138  19.993  0.00  0.00    +0.000 A 
ATOM     23  C   UNL     1      -0.273  11.003  20.774  0.00  0.00    +0.000 A 
ATOM     24  C   UNL     1      -0.546  10.715  22.110  0.00  0.00    +0.000 A 
ATOM     25  C   UNL     1      -0.033   9.557  22.684  0.00  0.00    +0.000 A 
ATOM     26  C   UNL     1       0.748   8.686  21.921  0.00  0.00    +0.000 A 
ATOM     27  C   UNL     1       1.037   8.949  20.562  0.00  0.00    +0.000 A 
ENDBRANCH  17  18
ENDBRANCH  16  17
ENDBRANCH   1  16
TORSDOF 6
ENDMDL
MODEL 5
REMARK VINA RESULT:      -7.7      0.999      2.104
REMARK  Name = 
REMARK  6 active torsions:
REMARK  status: ('A' for Active; 'I' for Inactive)
REMARK    1  A    between atoms: N_11  and  C_12
REMARK    2  A    between atoms: C_12  and  C_13
REMARK    3  A    between atoms: C_13  and  O_14
REMARK    4  A    between atoms: C_13  and  C_15
REMARK    5  A    between atoms: C_15  and  O_16
REMARK    6  A    between atoms: O_16  and  C_17
REMARK                            x       y       z     vdW  Elec       q    Type
REMARK                         _______ _______ _______ _____ _____    ______ ____
ROOT
ATOM      1  C   UNL     1       2.234   4.407  20.298  0.00  0.00    +0.000 C 
ENDROOT
BRANCH   1   2
ATOM      2  O   UNL     1       2.674   4.728  21.622  0.00  0.00    +0.000 OA
ATOM      3  H   UNL     1       1.938   4.579  22.237  0.00  0.00    +0.000 HD
ENDBRANCH   1   2
BRANCH   1   4
ATOM      4  C   UNL     1       3.054   3.235  19.727  0.00  0.00    +0.000 C 
BRANCH   4  15
ATOM      5  O   UNL     1       2.584   3.157  16.789  0.00  0.00    +0.000 OA
ATOM      6  C   UNL     1       3.616   3.537  17.307  0.00  0.00    +0.000 C 
ATOM      7  C   UNL     1       4.770   4.033  16.562  0.00  0.00    +0.000 A 
ATOM      8  C   UNL     1       4.968   4.159  15.202  0.00  0.00    +0.000 A 
ATOM      9  C   UNL     1       6.190   4.693  14.780  0.00  0.00    +0.000 A 
ATOM     10  C   UNL     1       7.169   5.085  15.718  0.00  0.00    +0.000 A 
ATOM     11  C   UNL     1       6.946   4.940  17.091  0.00  0.00    +0.000 A 
ATOM     12  C   UNL     1       5.733   4.408  17.482  0.00  0.00    +0.000 A 
ATOM     13  C   UNL     1       5.200   4.129  18.814  0.00  0.00    +0.000 C 
ATOM     14  O   UNL     1       5.797   4.330  19.856  0.00  0.00    +0.000 OA
ATOM     15  N   UNL     1       3.948   3.605  18.635  0.00  0.00    +0.000 N 
ENDBRANCH   4  15
ENDBRANCH   1   4
BRANCH   1  16
ATOM     16  C   UNL     1       2.238   5.645  19.388  0.00  0.00    +0.000 C 
BRANCH  16  17
ATOM     17  O   UNL     1       2.387   6.820  20.199  0.00  0.00    +0.000 OA
BRANCH  17  18
ATOM     18  C   UNL     1       1.927   7.996  19.652  0.00  0.00    +0.000 A 
ATOM     19  C   UNL     1       2.154   8.351  18.318  0.00  0.00    +0.000 A 
ATOM     20  C   UNL     1       1.622   9.528  17.800  0.00  0.00    +0.000 A 
ATOM     21  C   UNL     1       0.854  10.361  18.608  0.00  0.00    +0.000 A 
ATOM     22  C   UNL     1       0.600  10.028  19.945  0.00  0.00    +0.000 A 
ATOM     23  C   UNL     1      -0.187  10.871  20.747  0.00  0.00    +0.000 A 
ATOM     24  C   UNL     1      -0.453  10.552  22.078  0.00  0.00    +0.000 A 
ATOM     25  C   UNL     1       0.070   9.386  22.625  0.00  0.00    +0.000 A 
ATOM     26  C   UNL     1       0.855   8.537  21.840  0.00  0.00    +0.000 A 
ATOM     27  C   UNL     1       1.136   8.832  20.487  0.00  0.00    +0.000 A 
ENDBRANCH  17  18
ENDBRANCH  16  17
ENDBRANCH   1  16
TORSDOF 6
ENDMDL
MODEL 6
REMARK VINA RESULT:      -7.5      2.995      5.578
REMARK  Name = 
REMARK  6 active torsions:
REMARK  status: ('A' for Active; 'I' for Inactive)
REMARK    1  A    between atoms: N_11  and  C_12
REMARK    2  A    between atoms: C_12  and  C_13
REMARK    3  A    between atoms: C_13  and  O_14
REMARK    4  A    between atoms: C_13  and  C_15
REMARK    5  A    between atoms: C_15  and  O_16
REMARK    6  A    between atoms: O_16  and  C_17
REMARK                            x       y       z     vdW  Elec       q    Type
REMARK                         _______ _______ _______ _____ _____    ______ ____
ROOT
ATOM      1  C   UNL     1       7.089   4.817  17.752  0.00  0.00    +0.000 C 
ENDROOT
BRANCH   1   2
ATOM      2  O   UNL     1       8.309   4.073  17.680  0.00  0.00    +0.000 OA
ATOM      3  H   UNL     1       8.150   3.183  18.037  0.00  0.00    +0.000 HD
ENDBRANCH   1   2
BRANCH   1   4
ATOM      4  C   UNL     1       6.988   5.802  16.573  0.00  0.00    +0.000 C 
BRANCH   4  15
ATOM      5  O   UNL     1       8.565   5.753  14.049  0.00  0.00    +0.000 OA
ATOM      6  C   UNL     1       7.487   5.211  14.193  0.00  0.00    +0.000 C 
ATOM      7  C   UNL     1       6.817   4.435  13.153  0.00  0.00    +0.000 A 
ATOM      8  C   UNL     1       7.197   4.168  11.853  0.00  0.00    +0.000 A 
ATOM      9  C   UNL     1       6.345   3.365  11.089  0.00  0.00    +0.000 A 
ATOM     10  C   UNL     1       5.150   2.853  11.638  0.00  0.00    +0.000 A 
ATOM     11  C   UNL     1       4.784   3.144  12.957  0.00  0.00    +0.000 A 
ATOM     12  C   UNL     1       5.641   3.941  13.690  0.00  0.00    +0.000 A 
ATOM     13  C   UNL     1       5.552   4.423  15.067  0.00  0.00    +0.000 C 
ATOM     14  O   UNL     1       4.631   4.183  15.826  0.00  0.00    +0.000 OA
ATOM     15  N   UNL     1       6.671   5.177  15.294  0.00  0.00    +0.000 N 
ENDBRANCH   4  15
ENDBRANCH   1   4
BRANCH   1  16
ATOM     16  C   UNL     1       6.924   5.496  19.120  0.00  0.00    +0.000 C 
BRANCH  16  17
ATOM     17  O   UNL     1       5.803   4.913  19.799  0.00  0.00    +0.000 OA
BRANCH  17  18
ATOM     18  C   UNL     1       4.561   5.199  19.276  0.00  0.00    +0.000 A 
ATOM     19  C   UNL     1       4.145   6.502  18.985  0.00  0.00    +0.000 A 
ATOM     20  C   UNL     1       2.900   6.734  18.409  0.00  0.00    +0.000 A 
ATOM     21  C   UNL     1       2.058   5.665  18.115  0.00  0.00    +0.000 A 
ATOM     22  C   UNL     1       2.451   4.348  18.385  0.00  0.00    +0.000 A 
ATOM     23  C   UNL     1       1.598   3.276  18.071  0.00  0.00    +0.000 A 
ATOM     24  C   UNL     1       1.976   1.959  18.329  0.00  0.00    +0.000 A 
ATOM     25  C   UNL     1       3.211   1.698  18.910  0.00  0.00    +0.000 A 
ATOM     26  C   UNL     1       4.071   2.753  19.228  0.00  0.00    +0.000 A 
ATOM     27  C   UNL     1       3.718   4.097  18.972  0.00  0.00    +0.000 A 
ENDBRANCH  17  18
ENDBRANCH  16  17
ENDBRANCH   1  16
TORSDOF 6
ENDMDL
MODEL 7
REMARK VINA RESULT:      -7.4      2.998      5.647
REMARK  Name = 
REMARK  6 active torsions:
REMARK  status: ('A' for Active; 'I' for Inactive)
REMARK    1  A    between atoms: N_11  and  C_12
REMARK    2  A    between atoms: C_12  and  C_13
REMARK    3  A    between atoms: C_13  and  O_14
REMARK    4  A    between atoms: C_13  and  C_15
REMARK    5  A    between atoms: C_15  and  O_16
REMARK    6  A    between atoms: O_16  and  C_17
REMARK                            x       y       z     vdW  Elec       q    Type
REMARK                         _______ _______ _______ _____ _____    ______ ____
ROOT
ATOM      1  C   UNL     1       7.121   4.805  17.759  0.00  0.00    +0.000 C 
ENDROOT
BRANCH   1   2
ATOM      2  O   UNL     1       8.353   4.078  17.711  0.00  0.00    +0.000 OA
ATOM      3  H   UNL     1       8.200   3.188  18.068  0.00  0.00    +0.000 HD
ENDBRANCH   1   2
BRANCH   1   4
ATOM      4  C   UNL     1       7.010   5.758  16.554  0.00  0.00    +0.000 C 
BRANCH   4  15
ATOM      5  O   UNL     1       4.634   4.128  15.810  0.00  0.00    +0.000 OA
ATOM      6  C   UNL     1       5.556   4.373  15.059  0.00  0.00    +0.000 C 
ATOM      7  C   UNL     1       5.624   3.924  13.671  0.00  0.00    +0.000 A 
ATOM      8  C   UNL     1       4.743   3.153  12.939  0.00  0.00    +0.000 A 
ATOM      9  C   UNL     1       5.073   2.898  11.605  0.00  0.00    +0.000 A 
ATOM     10  C   UNL     1       6.258   3.417  11.042  0.00  0.00    +0.000 A 
ATOM     11  C   UNL     1       7.137   4.191  11.807  0.00  0.00    +0.000 A 
ATOM     12  C   UNL     1       6.791   4.425  13.123  0.00  0.00    +0.000 A 
ATOM     13  C   UNL     1       7.479   5.177  14.171  0.00  0.00    +0.000 C 
ATOM     14  O   UNL     1       8.548   5.742  14.031  0.00  0.00    +0.000 OA
ATOM     15  N   UNL     1       6.698   5.096  15.292  0.00  0.00    +0.000 N 
ENDBRANCH   4  15
ENDBRANCH   1   4
BRANCH   1  16
ATOM     16  C   UNL     1       6.938   5.516  19.108  0.00  0.00    +0.000 C 
BRANCH  16  17
ATOM     17  O   UNL     1       5.820   4.935  19.794  0.00  0.00    +0.000 OA
BRANCH  17  18
ATOM     18  C   UNL     1       4.576   5.218  19.276  0.00  0.00    +0.000 A 
ATOM     19  C   UNL     1       4.158   6.520  18.981  0.00  0.00    +0.000 A 
ATOM     20  C   UNL     1       2.910   6.748  18.410  0.00  0.00    +0.000 A 
ATOM     21  C   UNL     1       2.067   5.678  18.123  0.00  0.00    +0.000 A 
ATOM     22  C   UNL     1       2.463   4.362  18.397  0.00  0.00    +0.000 A 
ATOM     23  C   UNL     1       1.609   3.288  18.091  0.00  0.00    +0.000 A 
ATOM     24  C   UNL     1       1.989   1.973  18.353  0.00  0.00    +0.000 A 
ATOM     25  C   UNL     1       3.227   1.715  18.929  0.00  0.00    +0.000 A 
ATOM     26  C   UNL     1       4.087   2.772  19.240  0.00  0.00    +0.000 A 
ATOM     27  C   UNL     1       3.732   4.114  18.980  0.00  0.00    +0.000 A 
ENDBRANCH  17  18
ENDBRANCH  16  17
ENDBRANCH   1  16
TORSDOF 6
ENDMDL
MODEL 8
REMARK VINA RESULT:      -7.3      5.969      7.278
REMARK  Name = 
REMARK  6 active torsions:
REMARK  status: ('A' for Active; 'I' for Inactive)
REMARK    1  A    between atoms: N_11  and  C_12
REMARK    2  A    between atoms: C_12  and  C_13
REMARK    3  A    between atoms: C_13  and  O_14
REMARK    4  A    between atoms: C_13  and  C_15
REMARK    5  A    between atoms: C_15  and  O_16
REMARK    6  A    between atoms: O_16  and  C_17
REMARK                            x       y       z     vdW  Elec       q    Type
REMARK                         _______ _______ _______ _____ _____    ______ ____
ROOT
ATOM      1  C   UNL     1       7.658   7.791  18.408  0.00  0.00    +0.000 C 
ENDROOT
BRANCH   1   2
ATOM      2  O   UNL     1       8.575   6.939  19.103  0.00  0.00    +0.000 OA
ATOM      3  H   UNL     1       9.064   6.414  18.449  0.00  0.00    +0.000 HD
ENDBRANCH   1   2
BRANCH   1   4
ATOM      4  C   UNL     1       7.025   7.045  17.219  0.00  0.00    +0.000 C 
BRANCH   4  15
ATOM      5  O   UNL     1       4.097   7.501  16.944  0.00  0.00    +0.000 OA
ATOM      6  C   UNL     1       4.591   6.488  17.396  0.00  0.00    +0.000 C 
ATOM      7  C   UNL     1       3.821   5.333  17.850  0.00  0.00    +0.000 A 
ATOM      8  C   UNL     1       2.456   5.134  17.897  0.00  0.00    +0.000 A 
ATOM      9  C   UNL     1       2.006   3.898  18.372  0.00  0.00    +0.000 A 
ATOM     10  C   UNL     1       2.921   2.904  18.778  0.00  0.00    +0.000 A 
ATOM     11  C   UNL     1       4.300   3.133  18.726  0.00  0.00    +0.000 A 
ATOM     12  C   UNL     1       4.719   4.362  18.257  0.00  0.00    +0.000 A 
ATOM     13  C   UNL     1       6.063   4.909  18.083  0.00  0.00    +0.000 C 
ATOM     14  O   UNL     1       7.092   4.319  18.358  0.00  0.00    +0.000 OA
ATOM     15  N   UNL     1       5.913   6.173  17.580  0.00  0.00    +0.000 N 
ENDBRANCH   4  15
ENDBRANCH   1   4
BRANCH   1  16
ATOM     16  C   UNL     1       8.317   9.118  18.005  0.00  0.00    +0.000 C 
BRANCH  16  17
ATOM     17  O   UNL     1       9.096   9.606  19.107  0.00  0.00    +0.000 OA
BRANCH  17  18
ATOM     18  C   UNL     1       9.684  10.839  18.935  0.00  0.00    +0.000 A 
ATOM     19  C   UNL     1      10.286  11.230  17.734  0.00  0.00    +0.000 A 
ATOM     20  C   UNL     1      10.821  12.507  17.596  0.00  0.00    +0.000 A 
ATOM     21  C   UNL     1      10.756  13.409  18.653  0.00  0.00    +0.000 A 
ATOM     22  C   UNL     1      10.149  13.051  19.864  0.00  0.00    +0.000 A 
ATOM     23  C   UNL     1      10.079  13.975  20.921  0.00  0.00    +0.000 A 
ATOM     24  C   UNL     1       9.475  13.636  22.131  0.00  0.00    +0.000 A 
ATOM     25  C   UNL     1       8.938  12.365  22.301  0.00  0.00    +0.000 A 
ATOM     26  C   UNL     1       9.001  11.435  21.260  0.00  0.00    +0.000 A 
ATOM     27  C   UNL     1       9.601  11.752  20.021  0.00  0.00    +0.000 A 
ENDBRANCH  17  18
ENDBRANCH  16  17
ENDBRANCH   1  16
TORSDOF 6
ENDMDL
MODEL 9
REMARK VINA RESULT:      -7.3      3.459      8.599
REMARK  Name = 
REMARK  6 active torsions:
REMARK  status: ('A' for Active; 'I' for Inactive)
REMARK    1  A    between atoms: N_11  and  C_12
REMARK    2  A    between atoms: C_12  and  C_13
REMARK    3  A    between atoms: C_13  and  O_14
REMARK    4  A    between atoms: C_13  and  C_15
REMARK    5  A    between atoms: C_15  and  O_16
REMARK    6  A    between atoms: O_16  and  C_17
REMARK                            x       y       z     vdW  Elec       q    Type
REMARK                         _______ _______ _______ _____ _____    ______ ____
ROOT
ATOM      1  C   UNL     1       1.020   9.525  18.426  0.00  0.00    +0.000 C 
ENDROOT
BRANCH   1   2
ATOM      2  O   UNL     1       0.094   9.684  17.347  0.00  0.00    +0.000 OA
ATOM      3  H   UNL     1       0.510   9.357  16.532  0.00  0.00    +0.000 HD
ENDBRANCH   1   2
BRANCH   1   4
ATOM      4  C   UNL     1       1.270  10.875  19.125  0.00  0.00    +0.000 C 
BRANCH   4  15
ATOM      5  O   UNL     1      -1.230  12.361  18.494  0.00  0.00    +0.000 OA
ATOM      6  C   UNL     1      -0.926  11.975  19.605  0.00  0.00    +0.000 C 
ATOM      7  C   UNL     1      -1.756  12.163  20.792  0.00  0.00    +0.000 A 
ATOM      8  C   UNL     1      -2.975  12.794  20.938  0.00  0.00    +0.000 A 
ATOM      9  C   UNL     1      -3.545  12.798  22.215  0.00  0.00    +0.000 A 
ATOM     10  C   UNL     1      -2.891  12.175  23.299  0.00  0.00    +0.000 A 
ATOM     11  C   UNL     1      -1.653  11.547  23.126  0.00  0.00    +0.000 A 
ATOM     12  C   UNL     1      -1.110  11.560  21.856  0.00  0.00    +0.000 A 
ATOM     13  C   UNL     1       0.144  11.006  21.351  0.00  0.00    +0.000 C 
ATOM     14  O   UNL     1       0.965  10.417  22.029  0.00  0.00    +0.000 OA
ATOM     15  N   UNL     1       0.193  11.298  20.014  0.00  0.00    +0.000 N 
ENDBRANCH   4  15
ENDBRANCH   1   4
BRANCH   1  16
ATOM     16  C   UNL     1       2.314   8.839  17.962  0.00  0.00    +0.000 C 
BRANCH  16  17
ATOM     17  O   UNL     1       2.317   7.483  18.431  0.00  0.00    +0.000 OA
BRANCH  17  18
ATOM     18  C   UNL     1       3.206   6.630  17.817  0.00  0.00    +0.000 A 
ATOM     19  C   UNL     1       4.387   7.075  17.214  0.00  0.00    +0.000 A 
ATOM     20  C   UNL     1       5.278   6.166  16.651  0.00  0.00    +0.000 A 
ATOM     21  C   UNL     1       5.000   4.803  16.688  0.00  0.00    +0.000 A 
ATOM     22  C   UNL     1       3.831   4.326  17.294  0.00  0.00    +0.000 A 
ATOM     23  C   UNL     1       3.567   2.947  17.337  0.00  0.00    +0.000 A 
ATOM     24  C   UNL     1       2.411   2.455  17.940  0.00  0.00    +0.000 A 
ATOM     25  C   UNL     1       1.499   3.340  18.505  0.00  0.00    +0.000 A 
ATOM     26  C   UNL     1       1.746   4.715  18.470  0.00  0.00    +0.000 A 
ATOM     27  C   UNL     1       2.913   5.241  17.871  0.00  0.00    +0.000 A 
ENDBRANCH  17  18
ENDBRANCH  16  17
ENDBRANCH   1  16
TORSDOF 6
ENDMDL
