MODEL 1
REMARK VINA RESULT:      -7.4      0.000      0.000
REMARK  Name = 
REMARK  7 active torsions:
REMARK  status: ('A' for Active; 'I' for Inactive)
REMARK    1  A    between atoms: C_1  and  C_2
REMARK    2  A    between atoms: C_8  and  N_9
REMARK    3  A    between atoms: C_10  and  C_12
REMARK    4  A    between atoms: C_12  and  O_13
REMARK    5  A    between atoms: O_13  and  C_14
REMARK    6  A    between atoms: C_14  and  C_16
REMARK    7  A    between atoms: C_16  and  C_17
REMARK                            x       y       z     vdW  Elec       q    Type
REMARK                         _______ _______ _______ _____ _____    ______ ____
ROOT
ATOM      1  N   UNL     1       2.523   6.006  20.644  0.00  0.00    +0.000 N 
ATOM      2  C   UNL     1       1.829   4.805  20.699  0.00  0.00    +0.000 C 
ATOM      3  O   UNL     1       0.681   4.612  20.288  0.00  0.00    +0.000 OA
ATOM      4  H   UNL     1       3.494   5.988  20.948  0.00  0.00    +0.000 HD
ENDROOT
BRANCH   1  12
ATOM      5  C   UNL     1       3.144   6.930  17.911  0.00  0.00    +0.000 C 
ATOM      6  C   UNL     1       2.294   7.703  18.888  0.00  0.00    +0.000 A 
ATOM      7  C   UNL     1       1.753   8.930  18.452  0.00  0.00    +0.000 A 
ATOM      8  C   UNL     1       0.952   9.698  19.293  0.00  0.00    +0.000 A 
ATOM      9  C   UNL     1       0.702   9.261  20.584  0.00  0.00    +0.000 A 
ATOM     10 CL   UNL     1      -0.256  10.222  21.644  0.00  0.00    +0.000 Cl
ATOM     11  C   UNL     1       1.226   8.051  21.031  0.00  0.00    +0.000 A 
ATOM     12  C   UNL     1       2.010   7.248  20.192  0.00  0.00    +0.000 A 
ENDBRANCH   1  12
BRANCH   2  13
ATOM     13  C   UNL     1       2.612   3.652  21.314  0.00  0.00    +0.000 C 
BRANCH  13  14
ATOM     14  O   UNL     1       2.792   2.604  20.368  0.00  0.00    +0.000 OA
BRANCH  14  15
ATOM     15  C   UNL     1       3.962   2.658  19.678  0.00  0.00    +0.000 C 
ATOM     16  O   UNL     1       5.020   2.174  20.059  0.00  0.00    +0.000 OA
BRANCH  15  17
ATOM     17  C   UNL     1       3.757   3.392  18.381  0.00  0.00    +0.000 C 
BRANCH  17  18
ATOM     18  C   UNL     1       5.035   3.676  17.598  0.00  0.00    +0.000 C 
ATOM     19  C   UNL     1       5.955   4.722  18.239  0.00  0.00    +0.000 C 
ATOM     20  C   UNL     1       7.331   4.635  17.576  0.00  0.00    +0.000 C 
ATOM     21  C   UNL     1       7.267   4.770  16.052  0.00  0.00    +0.000 C 
ATOM     22  C   UNL     1       6.140   3.971  15.389  0.00  0.00    +0.000 C 
ATOM     23  C   UNL     1       4.810   4.078  16.137  0.00  0.00    +0.000 C 
ENDBRANCH  17  18
ENDBRANCH  15  17
ENDBRANCH  14  15
ENDBRANCH  13  14
ENDBRANCH   2  13
TORSDOF 6
ENDMDL
MODEL 2
REMARK VINA RESULT:      -7.4      1.365      1.854
REMARK  Name = 
REMARK  7 active torsions:
REMARK  status: ('A' for Active; 'I' for Inactive)
REMARK    1  A    between atoms: C_1  and  C_2
REMARK    2  A    between atoms: C_8  and  N_9
REMARK    3  A    between atoms: C_10  and  C_12
REMARK    4  A    between atoms: C_12  and  O_13
REMARK    5  A    between atoms: O_13  and  C_14
REMARK    6  A    between atoms: C_14  and  C_16
REMARK    7  A    between atoms: C_16  and  C_17
REMARK                            x       y       z     vdW  Elec       q    Type
REMARK                         _______ _______ _______ _____ _____    ______ ____
ROOT
ATOM      1  N   UNL     1       2.640   6.200  20.140  0.00  0.00    +0.000 N 
ATOM      2  C   UNL     1       2.086   4.936  20.291  0.00  0.00    +0.000 C 
ATOM      3  O   UNL     1       0.883   4.676  20.369  0.00  0.00    +0.000 OA
ATOM      4  H   UNL     1       3.648   6.245  20.007  0.00  0.00    +0.000 HD
ENDROOT
BRANCH   1  12
ATOM      5  C   UNL     1       2.727   7.932  17.753  0.00  0.00    +0.000 C 
ATOM      6  C   UNL     1       1.959   8.266  19.007  0.00  0.00    +0.000 A 
ATOM      7  C   UNL     1       1.227   9.471  19.022  0.00  0.00    +0.000 A 
ATOM      8  C   UNL     1       0.487   9.845  20.142  0.00  0.00    +0.000 A 
ATOM      9  C   UNL     1       0.489   9.032  21.264  0.00  0.00    +0.000 A 
ATOM     10 CL   UNL     1      -0.391   9.506  22.666  0.00  0.00    +0.000 Cl
ATOM     11  C   UNL     1       1.204   7.838  21.266  0.00  0.00    +0.000 A 
ATOM     12  C   UNL     1       1.931   7.428  20.141  0.00  0.00    +0.000 A 
ENDBRANCH   1  12
BRANCH   2  13
ATOM     13  C   UNL     1       3.105   3.803  20.338  0.00  0.00    +0.000 C 
BRANCH  13  14
ATOM     14  O   UNL     1       4.154   4.030  19.405  0.00  0.00    +0.000 OA
BRANCH  14  15
ATOM     15  C   UNL     1       4.097   3.260  18.287  0.00  0.00    +0.000 C 
ATOM     16  O   UNL     1       3.550   2.166  18.220  0.00  0.00    +0.000 OA
BRANCH  15  17
ATOM     17  C   UNL     1       4.798   3.953  17.151  0.00  0.00    +0.000 C 
BRANCH  17  18
ATOM     18  C   UNL     1       5.696   5.113  17.566  0.00  0.00    +0.000 C 
ATOM     19  C   UNL     1       5.792   6.244  16.535  0.00  0.00    +0.000 C 
ATOM     20  C   UNL     1       6.396   7.475  17.213  0.00  0.00    +0.000 C 
ATOM     21  C   UNL     1       7.741   7.183  17.886  0.00  0.00    +0.000 C 
ATOM     22  C   UNL     1       7.783   5.876  18.685  0.00  0.00    +0.000 C 
ATOM     23  C   UNL     1       7.122   4.707  17.953  0.00  0.00    +0.000 C 
ENDBRANCH  17  18
ENDBRANCH  15  17
ENDBRANCH  14  15
ENDBRANCH  13  14
ENDBRANCH   2  13
TORSDOF 6
ENDMDL
MODEL 3
REMARK VINA RESULT:      -7.3      1.124      1.735
REMARK  Name = 
REMARK  7 active torsions:
REMARK  status: ('A' for Active; 'I' for Inactive)
REMARK    1  A    between atoms: C_1  and  C_2
REMARK    2  A    between atoms: C_8  and  N_9
REMARK    3  A    between atoms: C_10  and  C_12
REMARK    4  A    between atoms: C_12  and  O_13
REMARK    5  A    between atoms: O_13  and  C_14
REMARK    6  A    between atoms: C_14  and  C_16
REMARK    7  A    between atoms: C_16  and  C_17
REMARK                            x       y       z     vdW  Elec       q    Type
REMARK                         _______ _______ _______ _____ _____    ______ ____
ROOT
ATOM      1  N   UNL     1       2.537   6.010  20.135  0.00  0.00    +0.000 N 
ATOM      2  C   UNL     1       1.856   4.813  20.310  0.00  0.00    +0.000 C 
ATOM      3  O   UNL     1       0.630   4.678  20.365  0.00  0.00    +0.000 OA
ATOM      4  H   UNL     1       3.547   5.949  20.026  0.00  0.00    +0.000 HD
ENDROOT
BRANCH   1  12
ATOM      5  C   UNL     1       2.816   7.629  17.683  0.00  0.00    +0.000 C 
ATOM      6  C   UNL     1       2.077   8.088  18.915  0.00  0.00    +0.000 A 
ATOM      7  C   UNL     1       1.470   9.359  18.875  0.00  0.00    +0.000 A 
ATOM      8  C   UNL     1       0.763   9.850  19.970  0.00  0.00    +0.000 A 
ATOM      9  C   UNL     1       0.674   9.086  21.123  0.00  0.00    +0.000 A 
ATOM     10 CL   UNL     1      -0.165   9.701  22.495  0.00  0.00    +0.000 Cl
ATOM     11  C   UNL     1       1.265   7.827  21.180  0.00  0.00    +0.000 A 
ATOM     12  C   UNL     1       1.956   7.302  20.080  0.00  0.00    +0.000 A 
ENDBRANCH   1  12
BRANCH   2  13
ATOM     13  C   UNL     1       2.753   3.586  20.418  0.00  0.00    +0.000 C 
BRANCH  13  14
ATOM     14  O   UNL     1       2.372   2.598  19.467  0.00  0.00    +0.000 OA
BRANCH  14  15
ATOM     15  C   UNL     1       2.594   2.943  18.172  0.00  0.00    +0.000 C 
ATOM     16  O   UNL     1       1.722   3.272  17.377  0.00  0.00    +0.000 OA
BRANCH  15  17
ATOM     17  C   UNL     1       4.065   2.864  17.866  0.00  0.00    +0.000 C 
BRANCH  17  18
ATOM     18  C   UNL     1       4.712   4.192  17.486  0.00  0.00    +0.000 C 
ATOM     19  C   UNL     1       5.091   4.315  16.006  0.00  0.00    +0.000 C 
ATOM     20  C   UNL     1       5.369   5.786  15.692  0.00  0.00    +0.000 C 
ATOM     21  C   UNL     1       6.422   6.404  16.618  0.00  0.00    +0.000 C 
ATOM     22  C   UNL     1       6.259   6.042  18.098  0.00  0.00    +0.000 C 
ATOM     23  C   UNL     1       5.943   4.562  18.321  0.00  0.00    +0.000 C 
ENDBRANCH  17  18
ENDBRANCH  15  17
ENDBRANCH  14  15
ENDBRANCH  13  14
ENDBRANCH   2  13
TORSDOF 6
ENDMDL
MODEL 4
REMARK VINA RESULT:      -7.0      6.479      8.299
REMARK  Name = 
REMARK  7 active torsions:
REMARK  status: ('A' for Active; 'I' for Inactive)
REMARK    1  A    between atoms: C_1  and  C_2
REMARK    2  A    between atoms: C_8  and  N_9
REMARK    3  A    between atoms: C_10  and  C_12
REMARK    4  A    between atoms: C_12  and  O_13
REMARK    5  A    between atoms: O_13  and  C_14
REMARK    6  A    between atoms: C_14  and  C_16
REMARK    7  A    between atoms: C_16  and  C_17
REMARK                            x       y       z     vdW  Elec       q    Type
REMARK                         _______ _______ _______ _____ _____    ______ ____
ROOT
ATOM      1  N   UNL     1       6.405   7.334  17.058  0.00  0.00    +0.000 N 
ATOM      2  C   UNL     1       7.505   7.484  17.892  0.00  0.00    +0.000 C 
ATOM      3  O   UNL     1       7.972   6.619  18.638  0.00  0.00    +0.000 OA
ATOM      4  H   UNL     1       6.191   8.113  16.439  0.00  0.00    +0.000 HD
ENDROOT
BRANCH   1  12
ATOM      5  C   UNL     1       7.123   5.118  15.245  0.00  0.00    +0.000 C 
ATOM      6  C   UNL     1       5.895   5.125  16.121  0.00  0.00    +0.000 A 
ATOM      7  C   UNL     1       5.057   3.992  16.078  0.00  0.00    +0.000 A 
ATOM      8  C   UNL     1       3.908   3.921  16.862  0.00  0.00    +0.000 A 
ATOM      9  C   UNL     1       3.573   4.988  17.680  0.00  0.00    +0.000 A 
ATOM     10 CL   UNL     1       2.135   4.925  18.624  0.00  0.00    +0.000 Cl
ATOM     11  C   UNL     1       4.389   6.114  17.737  0.00  0.00    +0.000 A 
ATOM     12  C   UNL     1       5.565   6.195  16.979  0.00  0.00    +0.000 A 
ENDBRANCH   1  12
BRANCH   2  13
ATOM     13  C   UNL     1       8.167   8.855  17.823  0.00  0.00    +0.000 C 
BRANCH  13  14
ATOM     14  O   UNL     1       9.007   9.065  18.952  0.00  0.00    +0.000 OA
BRANCH  14  15
ATOM     15  C   UNL     1       9.303  10.367  19.204  0.00  0.00    +0.000 C 
ATOM     16  O   UNL     1       9.142  10.923  20.283  0.00  0.00    +0.000 OA
BRANCH  15  17
ATOM     17  C   UNL     1       9.861  11.014  17.967  0.00  0.00    +0.000 C 
BRANCH  17  18
ATOM     18  C   UNL     1      10.020  12.529  18.052  0.00  0.00    +0.000 C 
ATOM     19  C   UNL     1       8.709  13.314  17.929  0.00  0.00    +0.000 C 
ATOM     20  C   UNL     1       8.952  14.749  18.399  0.00  0.00    +0.000 C 
ATOM     21  C   UNL     1      10.111  15.428  17.662  0.00  0.00    +0.000 C 
ATOM     22  C   UNL     1      11.354  14.550  17.485  0.00  0.00    +0.000 C 
ATOM     23  C   UNL     1      11.020  13.121  17.054  0.00  0.00    +0.000 C 
ENDBRANCH  17  18
ENDBRANCH  15  17
ENDBRANCH  14  15
ENDBRANCH  13  14
ENDBRANCH   2  13
TORSDOF 6
ENDMDL
MODEL 5
REMARK VINA RESULT:      -7.0      3.363      5.094
REMARK  Name = 
REMARK  7 active torsions:
REMARK  status: ('A' for Active; 'I' for Inactive)
REMARK    1  A    between atoms: C_1  and  C_2
REMARK    2  A    between atoms: C_8  and  N_9
REMARK    3  A    between atoms: C_10  and  C_12
REMARK    4  A    between atoms: C_12  and  O_13
REMARK    5  A    between atoms: O_13  and  C_14
REMARK    6  A    between atoms: C_14  and  C_16
REMARK    7  A    between atoms: C_16  and  C_17
REMARK                            x       y       z     vdW  Elec       q    Type
REMARK                         _______ _______ _______ _____ _____    ______ ____
ROOT
ATOM      1  N   UNL     1       5.455   3.997  18.636  0.00  0.00    +0.000 N 
ATOM      2  C   UNL     1       6.564   4.780  18.924  0.00  0.00    +0.000 C 
ATOM      3  O   UNL     1       6.621   5.670  19.775  0.00  0.00    +0.000 OA
ATOM      4  H   UNL     1       5.588   3.244  17.963  0.00  0.00    +0.000 HD
ENDROOT
BRANCH   1  12
ATOM      5  C   UNL     1       3.764   6.285  17.850  0.00  0.00    +0.000 C 
ATOM      6  C   UNL     1       3.340   5.224  18.834  0.00  0.00    +0.000 A 
ATOM      7  C   UNL     1       2.049   5.330  19.391  0.00  0.00    +0.000 A 
ATOM      8  C   UNL     1       1.582   4.385  20.302  0.00  0.00    +0.000 A 
ATOM      9  C   UNL     1       2.407   3.338  20.682  0.00  0.00    +0.000 A 
ATOM     10 CL   UNL     1       1.853   2.187  21.836  0.00  0.00    +0.000 Cl
ATOM     11  C   UNL     1       3.684   3.216  20.141  0.00  0.00    +0.000 A 
ATOM     12  C   UNL     1       4.162   4.138  19.201  0.00  0.00    +0.000 A 
ENDBRANCH   1  12
BRANCH   2  13
ATOM     13  C   UNL     1       7.801   4.451  18.095  0.00  0.00    +0.000 C 
BRANCH  13  14
ATOM     14  O   UNL     1       7.502   4.499  16.705  0.00  0.00    +0.000 OA
BRANCH  14  15
ATOM     15  C   UNL     1       7.135   5.724  16.245  0.00  0.00    +0.000 C 
ATOM     16  O   UNL     1       7.734   6.766  16.479  0.00  0.00    +0.000 OA
BRANCH  15  17
ATOM     17  C   UNL     1       5.891   5.604  15.407  0.00  0.00    +0.000 C 
BRANCH  17  18
ATOM     18  C   UNL     1       6.112   5.024  14.014  0.00  0.00    +0.000 C 
ATOM     19  C   UNL     1       5.695   3.557  13.862  0.00  0.00    +0.000 C 
ATOM     20  C   UNL     1       5.614   3.222  12.372  0.00  0.00    +0.000 C 
ATOM     21  C   UNL     1       6.909   3.542  11.619  0.00  0.00    +0.000 C 
ATOM     22  C   UNL     1       7.540   4.891  11.981  0.00  0.00    +0.000 C 
ATOM     23  C   UNL     1       7.544   5.164  13.486  0.00  0.00    +0.000 C 
ENDBRANCH  17  18
ENDBRANCH  15  17
ENDBRANCH  14  15
ENDBRANCH  13  14
ENDBRANCH   2  13
TORSDOF 6
ENDMDL
MODEL 6
REMARK VINA RESULT:      -6.9      6.064      7.537
REMARK  Name = 
REMARK  7 active torsions:
REMARK  status: ('A' for Active; 'I' for Inactive)
REMARK    1  A    between atoms: C_1  and  C_2
REMARK    2  A    between atoms: C_8  and  N_9
REMARK    3  A    between atoms: C_10  and  C_12
REMARK    4  A    between atoms: C_12  and  O_13
REMARK    5  A    between atoms: O_13  and  C_14
REMARK    6  A    between atoms: C_14  and  C_16
REMARK    7  A    between atoms: C_16  and  C_17
REMARK                            x       y       z     vdW  Elec       q    Type
REMARK                         _______ _______ _______ _____ _____    ______ ____
ROOT
ATOM      1  N   UNL     1       5.606   6.186  18.059  0.00  0.00    +0.000 N 
ATOM      2  C   UNL     1       6.412   6.488  16.970  0.00  0.00    +0.000 C 
ATOM      3  O   UNL     1       6.164   6.224  15.790  0.00  0.00    +0.000 OA
ATOM      4  H   UNL     1       5.907   6.543  18.964  0.00  0.00    +0.000 HD
ENDROOT
BRANCH   1  12
ATOM      5  C   UNL     1       3.019   7.604  18.006  0.00  0.00    +0.000 C 
ATOM      6  C   UNL     1       3.155   6.102  17.997  0.00  0.00    +0.000 A 
ATOM      7  C   UNL     1       1.971   5.340  17.939  0.00  0.00    +0.000 A 
ATOM      8  C   UNL     1       2.015   3.948  17.921  0.00  0.00    +0.000 A 
ATOM      9  C   UNL     1       3.240   3.304  17.982  0.00  0.00    +0.000 A 
ATOM     10 CL   UNL     1       3.302   1.583  17.997  0.00  0.00    +0.000 Cl
ATOM     11  C   UNL     1       4.420   4.040  18.036  0.00  0.00    +0.000 A 
ATOM     12  C   UNL     1       4.400   5.441  18.026  0.00  0.00    +0.000 A 
ENDBRANCH   1  12
BRANCH   2  13
ATOM     13  C   UNL     1       7.696   7.230  17.321  0.00  0.00    +0.000 C 
BRANCH  13  14
ATOM     14  O   UNL     1       7.469   8.634  17.365  0.00  0.00    +0.000 OA
BRANCH  14  15
ATOM     15  C   UNL     1       8.332   9.323  18.157  0.00  0.00    +0.000 C 
ATOM     16  O   UNL     1       8.985   8.834  19.070  0.00  0.00    +0.000 OA
BRANCH  15  17
ATOM     17  C   UNL     1       8.366  10.768  17.739  0.00  0.00    +0.000 C 
BRANCH  17  18
ATOM     18  C   UNL     1       9.432  11.609  18.434  0.00  0.00    +0.000 C 
ATOM     19  C   UNL     1       9.053  13.083  18.627  0.00  0.00    +0.000 C 
ATOM     20  C   UNL     1      10.014  13.706  19.642  0.00  0.00    +0.000 C 
ATOM     21  C   UNL     1      11.485  13.527  19.256  0.00  0.00    +0.000 C 
ATOM     22  C   UNL     1      11.845  12.126  18.749  0.00  0.00    +0.000 C 
ATOM     23  C   UNL     1      10.813  11.561  17.772  0.00  0.00    +0.000 C 
ENDBRANCH  17  18
ENDBRANCH  15  17
ENDBRANCH  14  15
ENDBRANCH  13  14
ENDBRANCH   2  13
TORSDOF 6
ENDMDL
MODEL 7
REMARK VINA RESULT:      -6.9      1.250      1.387
REMARK  Name = 
REMARK  7 active torsions:
REMARK  status: ('A' for Active; 'I' for Inactive)
REMARK    1  A    between atoms: C_1  and  C_2
REMARK    2  A    between atoms: C_8  and  N_9
REMARK    3  A    between atoms: C_10  and  C_12
REMARK    4  A    between atoms: C_12  and  O_13
REMARK    5  A    between atoms: O_13  and  C_14
REMARK    6  A    between atoms: C_14  and  C_16
REMARK    7  A    between atoms: C_16  and  C_17
REMARK                            x       y       z     vdW  Elec       q    Type
REMARK                         _______ _______ _______ _____ _____    ______ ____
ROOT
ATOM      1  N   UNL     1       2.562   6.960  19.993  0.00  0.00    +0.000 N 
ATOM      2  C   UNL     1       2.243   5.619  20.155  0.00  0.00    +0.000 C 
ATOM      3  O   UNL     1       1.134   5.169  20.458  0.00  0.00    +0.000 OA
ATOM      4  H   UNL     1       3.501   7.170  19.659  0.00  0.00    +0.000 HD
ENDROOT
BRANCH   1  12
ATOM      5  C   UNL     1       1.827   8.751  17.765  0.00  0.00    +0.000 C 
ATOM      6  C   UNL     1       1.336   8.923  19.180  0.00  0.00    +0.000 A 
ATOM      7  C   UNL     1       0.458   9.996  19.439  0.00  0.00    +0.000 A 
ATOM      8  C   UNL     1      -0.044  10.216  20.720  0.00  0.00    +0.000 A 
ATOM      9  C   UNL     1       0.342   9.383  21.757  0.00  0.00    +0.000 A 
ATOM     10 CL   UNL     1      -0.244   9.671  23.350  0.00  0.00    +0.000 Cl
ATOM     11  C   UNL     1       1.206   8.318  21.519  0.00  0.00    +0.000 A 
ATOM     12  C   UNL     1       1.700   8.060  20.234  0.00  0.00    +0.000 A 
ENDBRANCH   1  12
BRANCH   2  13
ATOM     13  C   UNL     1       3.400   4.660  19.905  0.00  0.00    +0.000 C 
BRANCH  13  14
ATOM     14  O   UNL     1       2.917   3.365  19.564  0.00  0.00    +0.000 OA
BRANCH  14  15
ATOM     15  C   UNL     1       3.367   2.886  18.376  0.00  0.00    +0.000 C 
ATOM     16  O   UNL     1       3.593   1.706  18.140  0.00  0.00    +0.000 OA
BRANCH  15  17
ATOM     17  C   UNL     1       3.537   4.017  17.399  0.00  0.00    +0.000 C 
BRANCH  17  18
ATOM     18  C   UNL     1       4.909   4.089  16.736  0.00  0.00    +0.000 C 
ATOM     19  C   UNL     1       5.846   5.150  17.326  0.00  0.00    +0.000 C 
ATOM     20  C   UNL     1       7.270   4.868  16.845  0.00  0.00    +0.000 C 
ATOM     21  C   UNL     1       7.376   4.779  15.319  0.00  0.00    +0.000 C 
ATOM     22  C   UNL     1       6.258   3.972  14.649  0.00  0.00    +0.000 C 
ATOM     23  C   UNL     1       4.873   4.285  15.217  0.00  0.00    +0.000 C 
ENDBRANCH  17  18
ENDBRANCH  15  17
ENDBRANCH  14  15
ENDBRANCH  13  14
ENDBRANCH   2  13
TORSDOF 6
ENDMDL
MODEL 8
REMARK VINA RESULT:      -6.9      2.958      6.260
REMARK  Name = 
REMARK  7 active torsions:
REMARK  status: ('A' for Active; 'I' for Inactive)
REMARK    1  A    between atoms: C_1  and  C_2
REMARK    2  A    between atoms: C_8  and  N_9
REMARK    3  A    between atoms: C_10  and  C_12
REMARK    4  A    between atoms: C_12  and  O_13
REMARK    5  A    between atoms: O_13  and  C_14
REMARK    6  A    between atoms: C_14  and  C_16
REMARK    7  A    between atoms: C_16  and  C_17
REMARK                            x       y       z     vdW  Elec       q    Type
REMARK                         _______ _______ _______ _____ _____    ______ ____
ROOT
ATOM      1  N   UNL     1       3.804   3.797  17.674  0.00  0.00    +0.000 N 
ATOM      2  C   UNL     1       3.430   2.529  18.098  0.00  0.00    +0.000 C 
ATOM      3  O   UNL     1       4.085   1.494  17.951  0.00  0.00    +0.000 OA
ATOM      4  H   UNL     1       3.195   4.568  17.942  0.00  0.00    +0.000 HD
ENDROOT
BRANCH   1  12
ATOM      5  C   UNL     1       6.084   5.132  18.990  0.00  0.00    +0.000 C 
ATOM      6  C   UNL     1       6.059   4.753  17.530  0.00  0.00    +0.000 A 
ATOM      7  C   UNL     1       7.206   5.041  16.762  0.00  0.00    +0.000 A 
ATOM      8  C   UNL     1       7.261   4.715  15.409  0.00  0.00    +0.000 A 
ATOM      9  C   UNL     1       6.165   4.120  14.805  0.00  0.00    +0.000 A 
ATOM     10 CL   UNL     1       6.212   3.748  13.124  0.00  0.00    +0.000 Cl
ATOM     11  C   UNL     1       5.026   3.826  15.548  0.00  0.00    +0.000 A 
ATOM     12  C   UNL     1       4.959   4.119  16.916  0.00  0.00    +0.000 A 
ENDBRANCH   1  12
BRANCH   2  13
ATOM     13  C   UNL     1       2.090   2.476  18.821  0.00  0.00    +0.000 C 
BRANCH  13  14
ATOM     14  O   UNL     1       2.205   3.013  20.134  0.00  0.00    +0.000 OA
BRANCH  14  15
ATOM     15  C   UNL     1       1.556   4.191  20.324  0.00  0.00    +0.000 C 
ATOM     16  O   UNL     1       0.345   4.307  20.464  0.00  0.00    +0.000 OA
BRANCH  15  17
ATOM     17  C   UNL     1       2.546   5.323  20.343  0.00  0.00    +0.000 C 
BRANCH  17  18
ATOM     18  C   UNL     1       2.055   6.614  19.695  0.00  0.00    +0.000 C 
ATOM     19  C   UNL     1       2.949   7.139  18.566  0.00  0.00    +0.000 C 
ATOM     20  C   UNL     1       2.170   8.191  17.774  0.00  0.00    +0.000 C 
ATOM     21  C   UNL     1       1.622   9.316  18.657  0.00  0.00    +0.000 C 
ATOM     22  C   UNL     1       0.988   8.844  19.970  0.00  0.00    +0.000 C 
ATOM     23  C   UNL     1       1.810   7.765  20.677  0.00  0.00    +0.000 C 
ENDBRANCH  17  18
ENDBRANCH  15  17
ENDBRANCH  14  15
ENDBRANCH  13  14
ENDBRANCH   2  13
TORSDOF 6
ENDMDL
MODEL 9
REMARK VINA RESULT:      -6.8      5.952      7.457
REMARK  Name = 
REMARK  7 active torsions:
REMARK  status: ('A' for Active; 'I' for Inactive)
REMARK    1  A    between atoms: C_1  and  C_2
REMARK    2  A    between atoms: C_8  and  N_9
REMARK    3  A    between atoms: C_10  and  C_12
REMARK    4  A    between atoms: C_12  and  O_13
REMARK    5  A    between atoms: O_13  and  C_14
REMARK    6  A    between atoms: C_14  and  C_16
REMARK    7  A    between atoms: C_16  and  C_17
REMARK                            x       y       z     vdW  Elec       q    Type
REMARK                         _______ _______ _______ _____ _____    ______ ____
ROOT
ATOM      1  N   UNL     1       5.600   6.062  17.390  0.00  0.00    +0.000 N 
ATOM      2  C   UNL     1       6.779   6.113  18.121  0.00  0.00    +0.000 C 
ATOM      3  O   UNL     1       7.031   5.459  19.136  0.00  0.00    +0.000 OA
ATOM      4  H   UNL     1       5.573   6.600  16.526  0.00  0.00    +0.000 HD
ENDROOT
BRANCH   1  12
ATOM      5  C   UNL     1       3.060   7.480  17.889  0.00  0.00    +0.000 C 
ATOM      6  C   UNL     1       3.216   5.982  17.965  0.00  0.00    +0.000 A 
ATOM      7  C   UNL     1       2.070   5.222  18.274  0.00  0.00    +0.000 A 
ATOM      8  C   UNL     1       2.132   3.833  18.356  0.00  0.00    +0.000 A 
ATOM      9  C   UNL     1       3.343   3.191  18.152  0.00  0.00    +0.000 A 
ATOM     10 CL   UNL     1       3.438   1.478  18.288  0.00  0.00    +0.000 Cl
ATOM     11  C   UNL     1       4.485   3.925  17.843  0.00  0.00    +0.000 A 
ATOM     12  C   UNL     1       4.439   5.321  17.727  0.00  0.00    +0.000 A 
ENDBRANCH   1  12
BRANCH   2  13
ATOM     13  C   UNL     1       7.828   7.065  17.560  0.00  0.00    +0.000 C 
BRANCH  13  14
ATOM     14  O   UNL     1       8.367   7.884  18.591  0.00  0.00    +0.000 OA
BRANCH  14  15
ATOM     15  C   UNL     1       8.352   9.216  18.324  0.00  0.00    +0.000 C 
ATOM     16  O   UNL     1       7.680   9.745  17.448  0.00  0.00    +0.000 OA
BRANCH  15  17
ATOM     17  C   UNL     1       9.276   9.937  19.266  0.00  0.00    +0.000 C 
BRANCH  17  18
ATOM     18  C   UNL     1       9.993  11.141  18.664  0.00  0.00    +0.000 C 
ATOM     19  C   UNL     1      11.310  11.510  19.357  0.00  0.00    +0.000 C 
ATOM     20  C   UNL     1      12.091  12.462  18.449  0.00  0.00    +0.000 C 
ATOM     21  C   UNL     1      11.280  13.696  18.043  0.00  0.00    +0.000 C 
ATOM     22  C   UNL     1       9.832  13.400  17.635  0.00  0.00    +0.000 C 
ATOM     23  C   UNL     1       9.138  12.410  18.571  0.00  0.00    +0.000 C 
ENDBRANCH  17  18
ENDBRANCH  15  17
ENDBRANCH  14  15
ENDBRANCH  13  14
ENDBRANCH   2  13
TORSDOF 6
ENDMDL
