MODEL 1
REMARK VINA RESULT:      -6.9      0.000      0.000
REMARK  Name = 
REMARK  9 active torsions:
REMARK  status: ('A' for Active; 'I' for Inactive)
REMARK    1  A    between atoms: C_1  and  C_2
REMARK    2  A    between atoms: C_2  and  N_3
REMARK    3  A    between atoms: N_3  and  C_4
REMARK    4  A    between atoms: N_3  and  C_6
REMARK    5  A    between atoms: C_4  and  C_5
REMARK    6  A    between atoms: C_9  and  C_10
REMARK    7  A    between atoms: C_11  and  C_12
REMARK    8  A    between atoms: C_11  and  C_14
REMARK    9  A    between atoms: C_23  and  O_24
REMARK                            x       y       z     vdW  Elec       q    Type
REMARK                         _______ _______ _______ _____ _____    ______ ____
ROOT
ATOM      1  C   UNL     1       9.215  11.241  17.607  0.00  0.00    +0.000 C 
ATOM      2  C   UNL     1       9.001  10.342  18.595  0.00  0.00    +0.000 C 
ENDROOT
BRANCH   2   3
ATOM      3  C   UNL     1       8.411   9.072  18.263  0.00  0.00    +0.000 A 
ATOM      4  N   UNL     1       7.580   8.727  17.292  0.00  0.00    +0.000 NA
ATOM      5  C   UNL     1       7.293   7.389  17.476  0.00  0.00    +0.000 A 
ATOM      6  C   UNL     1       6.444   6.532  16.759  0.00  0.00    +0.000 A 
ATOM      7  C   UNL     1       6.301   5.201  17.184  0.00  0.00    +0.000 A 
ATOM      8  C   UNL     1       7.001   4.729  18.297  0.00  0.00    +0.000 A 
ATOM      9  C   UNL     1       7.864   5.561  19.020  0.00  0.00    +0.000 A 
ATOM     10  C   UNL     1       7.977   6.886  18.576  0.00  0.00    +0.000 A 
ATOM     11  N   UNL     1       8.701   7.958  19.037  0.00  0.00    +0.000 N 
ATOM     12  H   UNL     1       9.321   7.930  19.835  0.00  0.00    +0.000 HD
ENDBRANCH   2   3
BRANCH   1  16
ATOM     13  C   UNL     1      10.979  15.185  17.999  0.00  0.00    +0.000 A 
ATOM     14  C   UNL     1       9.600  14.958  18.131  0.00  0.00    +0.000 A 
ATOM     15  C   UNL     1       9.038  13.675  18.016  0.00  0.00    +0.000 A 
ATOM     16  C   UNL     1       9.852  12.562  17.797  0.00  0.00    +0.000 A 
ATOM     17  C   UNL     1      11.234  12.770  17.730  0.00  0.00    +0.000 A 
ATOM     18  C   UNL     1      11.787  14.056  17.799  0.00  0.00    +0.000 A 
BRANCH  17  19
ATOM     19  O   UNL     1      12.112  11.726  17.618  0.00  0.00    +0.000 OA
ATOM     20  H   UNL     1      11.572  10.920  17.542  0.00  0.00    +0.000 HD
ENDBRANCH  17  19
BRANCH  13  21
ATOM     21  N   UNL     1      11.543  16.472  18.056  0.00  0.00    +0.000 N 
BRANCH  21  23
ATOM     22  C   UNL     1      10.363  18.618  18.534  0.00  0.00    +0.000 C 
ATOM     23  C   UNL     1      10.751  17.581  17.491  0.00  0.00    +0.000 C 
ENDBRANCH  21  23
BRANCH  21  24
ATOM     24  C   UNL     1      12.333  16.753  19.272  0.00  0.00    +0.000 C 
ATOM     25  C   UNL     1      11.723  16.138  20.528  0.00  0.00    +0.000 C 
ENDBRANCH  21  24
ENDBRANCH  13  21
ENDBRANCH   1  16
BRANCH   2  26
ATOM     26  C   UNL     1       9.358  10.630  19.952  0.00  0.00    +0.000 C 
ATOM     27  N   UNL     1       9.595  10.964  21.038  0.00  0.00    +0.000 NA
ENDBRANCH   2  26
TORSDOF 7
ENDMDL
MODEL 2
REMARK VINA RESULT:      -6.8      0.934      1.189
REMARK  Name = 
REMARK  9 active torsions:
REMARK  status: ('A' for Active; 'I' for Inactive)
REMARK    1  A    between atoms: C_1  and  C_2
REMARK    2  A    between atoms: C_2  and  N_3
REMARK    3  A    between atoms: N_3  and  C_4
REMARK    4  A    between atoms: N_3  and  C_6
REMARK    5  A    between atoms: C_4  and  C_5
REMARK    6  A    between atoms: C_9  and  C_10
REMARK    7  A    between atoms: C_11  and  C_12
REMARK    8  A    between atoms: C_11  and  C_14
REMARK    9  A    between atoms: C_23  and  O_24
REMARK                            x       y       z     vdW  Elec       q    Type
REMARK                         _______ _______ _______ _____ _____    ______ ____
ROOT
ATOM      1  C   UNL     1       8.654  11.364  17.606  0.00  0.00    +0.000 C 
ATOM      2  C   UNL     1       8.767  10.392  18.540  0.00  0.00    +0.000 C 
ENDROOT
BRANCH   2   3
ATOM      3  C   UNL     1       8.353   9.055  18.206  0.00  0.00    +0.000 A 
ATOM      4  N   UNL     1       7.729   8.579  17.139  0.00  0.00    +0.000 NA
ATOM      5  C   UNL     1       7.531   7.231  17.367  0.00  0.00    +0.000 A 
ATOM      6  C   UNL     1       6.891   6.259  16.582  0.00  0.00    +0.000 A 
ATOM      7  C   UNL     1       6.795   4.946  17.069  0.00  0.00    +0.000 A 
ATOM      8  C   UNL     1       7.337   4.604  18.311  0.00  0.00    +0.000 A 
ATOM      9  C   UNL     1       7.992   5.553  19.105  0.00  0.00    +0.000 A 
ATOM     10  C   UNL     1       8.063   6.857  18.595  0.00  0.00    +0.000 A 
ATOM     11  N   UNL     1       8.604   8.017  19.091  0.00  0.00    +0.000 N 
ATOM     12  H   UNL     1       9.082   8.092  19.979  0.00  0.00    +0.000 HD
ENDBRANCH   2   3
BRANCH   1  16
ATOM     13  C   UNL     1       9.761  15.536  18.032  0.00  0.00    +0.000 A 
ATOM     14  C   UNL     1       8.498  15.049  18.401  0.00  0.00    +0.000 A 
ATOM     15  C   UNL     1       8.152  13.693  18.272  0.00  0.00    +0.000 A 
ATOM     16  C   UNL     1       9.082  12.766  17.797  0.00  0.00    +0.000 A 
ATOM     17  C   UNL     1      10.365  13.232  17.489  0.00  0.00    +0.000 A 
ATOM     18  C   UNL     1      10.692  14.592  17.575  0.00  0.00    +0.000 A 
BRANCH  17  19
ATOM     19  O   UNL     1      11.366  12.379  17.112  0.00  0.00    +0.000 OA
ATOM     20  H   UNL     1      10.948  11.685  16.573  0.00  0.00    +0.000 HD
ENDBRANCH  17  19
BRANCH  13  21
ATOM     21  N   UNL     1      10.097  16.900  18.104  0.00  0.00    +0.000 N 
BRANCH  21  23
ATOM     22  C   UNL     1       8.936  18.630  19.476  0.00  0.00    +0.000 C 
ATOM     23  C   UNL     1      10.005  17.548  19.426  0.00  0.00    +0.000 C 
ENDBRANCH  21  23
BRANCH  21  24
ATOM     24  C   UNL     1      11.205  17.317  17.220  0.00  0.00    +0.000 C 
ATOM     25  C   UNL     1      12.326  18.026  17.973  0.00  0.00    +0.000 C 
ENDBRANCH  21  24
ENDBRANCH  13  21
ENDBRANCH   1  16
BRANCH   2  26
ATOM     26  C   UNL     1       9.297  10.670  19.841  0.00  0.00    +0.000 C 
ATOM     27  N   UNL     1       9.650  10.982  20.902  0.00  0.00    +0.000 NA
ENDBRANCH   2  26
TORSDOF 7
ENDMDL
MODEL 3
REMARK VINA RESULT:      -6.5      3.300     10.089
REMARK  Name = 
REMARK  9 active torsions:
REMARK  status: ('A' for Active; 'I' for Inactive)
REMARK    1  A    between atoms: C_1  and  C_2
REMARK    2  A    between atoms: C_2  and  N_3
REMARK    3  A    between atoms: N_3  and  C_4
REMARK    4  A    between atoms: N_3  and  C_6
REMARK    5  A    between atoms: C_4  and  C_5
REMARK    6  A    between atoms: C_9  and  C_10
REMARK    7  A    between atoms: C_11  and  C_12
REMARK    8  A    between atoms: C_11  and  C_14
REMARK    9  A    between atoms: C_23  and  O_24
REMARK                            x       y       z     vdW  Elec       q    Type
REMARK                         _______ _______ _______ _____ _____    ______ ____
ROOT
ATOM      1  C   UNL     1       6.331   7.776  17.481  0.00  0.00    +0.000 C 
ATOM      2  C   UNL     1       7.501   7.763  18.161  0.00  0.00    +0.000 C 
ENDROOT
BRANCH   2   3
ATOM      3  C   UNL     1       8.269   8.977  18.246  0.00  0.00    +0.000 A 
ATOM      4  N   UNL     1       8.439   9.962  17.377  0.00  0.00    +0.000 NA
ATOM      5  C   UNL     1       9.322  10.851  17.956  0.00  0.00    +0.000 A 
ATOM      6  C   UNL     1       9.871  12.044  17.460  0.00  0.00    +0.000 A 
ATOM      7  C   UNL     1      10.788  12.753  18.252  0.00  0.00    +0.000 A 
ATOM      8  C   UNL     1      11.145  12.288  19.520  0.00  0.00    +0.000 A 
ATOM      9  C   UNL     1      10.600  11.108  20.042  0.00  0.00    +0.000 A 
ATOM     10  C   UNL     1       9.695  10.419  19.223  0.00  0.00    +0.000 A 
ATOM     11  N   UNL     1       8.993   9.252  19.397  0.00  0.00    +0.000 N 
ATOM     12  H   UNL     1       9.032   8.678  20.229  0.00  0.00    +0.000 HD
ENDBRANCH   2   3
BRANCH   1  16
ATOM     13  C   UNL     1       3.695   4.337  17.302  0.00  0.00    +0.000 A 
ATOM     14  C   UNL     1       3.429   5.450  18.114  0.00  0.00    +0.000 A 
ATOM     15  C   UNL     1       4.282   6.566  18.156  0.00  0.00    +0.000 A 
ATOM     16  C   UNL     1       5.422   6.618  17.351  0.00  0.00    +0.000 A 
ATOM     17  C   UNL     1       5.659   5.541  16.490  0.00  0.00    +0.000 A 
ATOM     18  C   UNL     1       4.832   4.410  16.484  0.00  0.00    +0.000 A 
BRANCH  17  19
ATOM     19  O   UNL     1       6.696   5.553  15.597  0.00  0.00    +0.000 OA
ATOM     20  H   UNL     1       6.310   5.776  14.732  0.00  0.00    +0.000 HD
ENDBRANCH  17  19
BRANCH  13  21
ATOM     21  N   UNL     1       2.878   3.191  17.296  0.00  0.00    +0.000 N 
BRANCH  21  23
ATOM     22  C   UNL     1       4.102   2.165  19.213  0.00  0.00    +0.000 C 
ATOM     23  C   UNL     1       3.451   1.952  17.854  0.00  0.00    +0.000 C 
ENDBRANCH  21  23
BRANCH  21  24
ATOM     24  C   UNL     1       1.444   3.447  17.543  0.00  0.00    +0.000 C 
ATOM     25  C   UNL     1       0.886   2.614  18.693  0.00  0.00    +0.000 C 
ENDBRANCH  21  24
ENDBRANCH  13  21
ENDBRANCH   1  16
BRANCH   2  26
ATOM     26  C   UNL     1       7.975   6.572  18.799  0.00  0.00    +0.000 C 
ATOM     27  N   UNL     1       8.273   5.619  19.389  0.00  0.00    +0.000 NA
ENDBRANCH   2  26
TORSDOF 7
ENDMDL
MODEL 4
REMARK VINA RESULT:      -6.5      0.497      1.256
REMARK  Name = 
REMARK  9 active torsions:
REMARK  status: ('A' for Active; 'I' for Inactive)
REMARK    1  A    between atoms: C_1  and  C_2
REMARK    2  A    between atoms: C_2  and  N_3
REMARK    3  A    between atoms: N_3  and  C_4
REMARK    4  A    between atoms: N_3  and  C_6
REMARK    5  A    between atoms: C_4  and  C_5
REMARK    6  A    between atoms: C_9  and  C_10
REMARK    7  A    between atoms: C_11  and  C_12
REMARK    8  A    between atoms: C_11  and  C_14
REMARK    9  A    between atoms: C_23  and  O_24
REMARK                            x       y       z     vdW  Elec       q    Type
REMARK                         _______ _______ _______ _____ _____    ______ ____
ROOT
ATOM      1  C   UNL     1       9.170  10.972  17.676  0.00  0.00    +0.000 C 
ATOM      2  C   UNL     1       8.892  10.138  18.704  0.00  0.00    +0.000 C 
ENDROOT
BRANCH   2   3
ATOM      3  C   UNL     1       8.349   8.837  18.416  0.00  0.00    +0.000 A 
ATOM      4  N   UNL     1       8.595   7.653  18.956  0.00  0.00    +0.000 NA
ATOM      5  C   UNL     1       7.833   6.736  18.258  0.00  0.00    +0.000 A 
ATOM      6  C   UNL     1       7.739   5.342  18.391  0.00  0.00    +0.000 A 
ATOM      7  C   UNL     1       6.902   4.630  17.516  0.00  0.00    +0.000 A 
ATOM      8  C   UNL     1       6.163   5.296  16.535  0.00  0.00    +0.000 A 
ATOM      9  C   UNL     1       6.230   6.688  16.393  0.00  0.00    +0.000 A 
ATOM     10  C   UNL     1       7.082   7.368  17.275  0.00  0.00    +0.000 A 
ATOM     11  N   UNL     1       7.400   8.696  17.415  0.00  0.00    +0.000 N 
ATOM     12  H   UNL     1       7.014   9.440  16.848  0.00  0.00    +0.000 HD
ENDBRANCH   2   3
BRANCH   1  16
ATOM     13  C   UNL     1      10.808  14.979  17.956  0.00  0.00    +0.000 A 
ATOM     14  C   UNL     1       9.461  14.694  18.227  0.00  0.00    +0.000 A 
ATOM     15  C   UNL     1       8.942  13.390  18.147  0.00  0.00    +0.000 A 
ATOM     16  C   UNL     1       9.771  12.315  17.823  0.00  0.00    +0.000 A 
ATOM     17  C   UNL     1      11.129  12.581  17.615  0.00  0.00    +0.000 A 
ATOM     18  C   UNL     1      11.634  13.888  17.651  0.00  0.00    +0.000 A 
BRANCH  17  19
ATOM     19  O   UNL     1      12.031  11.576  17.392  0.00  0.00    +0.000 OA
ATOM     20  H   UNL     1      12.185  11.149  18.253  0.00  0.00    +0.000 HD
ENDBRANCH  17  19
BRANCH  13  21
ATOM     21  N   UNL     1      11.324  16.288  17.978  0.00  0.00    +0.000 N 
BRANCH  21  23
ATOM     22  C   UNL     1      10.238  18.466  17.429  0.00  0.00    +0.000 C 
ATOM     23  C   UNL     1      10.896  17.199  16.900  0.00  0.00    +0.000 C 
ENDBRANCH  21  23
BRANCH  21  24
ATOM     24  C   UNL     1      11.501  16.866  19.326  0.00  0.00    +0.000 C 
ATOM     25  C   UNL     1      12.333  15.976  20.245  0.00  0.00    +0.000 C 
ENDBRANCH  21  24
ENDBRANCH  13  21
ENDBRANCH   1  16
BRANCH   2  26
ATOM     26  C   UNL     1       9.138  10.524  20.061  0.00  0.00    +0.000 C 
ATOM     27  N   UNL     1       9.355  10.726  21.183  0.00  0.00    +0.000 NA
ENDBRANCH   2  26
TORSDOF 7
ENDMDL
MODEL 5
REMARK VINA RESULT:      -6.5      8.298      9.955
REMARK  Name = 
REMARK  9 active torsions:
REMARK  status: ('A' for Active; 'I' for Inactive)
REMARK    1  A    between atoms: C_1  and  C_2
REMARK    2  A    between atoms: C_2  and  N_3
REMARK    3  A    between atoms: N_3  and  C_4
REMARK    4  A    between atoms: N_3  and  C_6
REMARK    5  A    between atoms: C_4  and  C_5
REMARK    6  A    between atoms: C_9  and  C_10
REMARK    7  A    between atoms: C_11  and  C_12
REMARK    8  A    between atoms: C_11  and  C_14
REMARK    9  A    between atoms: C_23  and  O_24
REMARK                            x       y       z     vdW  Elec       q    Type
REMARK                         _______ _______ _______ _____ _____    ______ ____
ROOT
ATOM      1  C   UNL     1       1.555   9.274  18.113  0.00  0.00    +0.000 C 
ATOM      2  C   UNL     1       2.035   8.181  18.749  0.00  0.00    +0.000 C 
ENDROOT
BRANCH   2   3
ATOM      3  C   UNL     1       2.979   7.337  18.065  0.00  0.00    +0.000 A 
ATOM      4  N   UNL     1       3.987   7.635  17.260  0.00  0.00    +0.000 NA
ATOM      5  C   UNL     1       4.526   6.434  16.842  0.00  0.00    +0.000 A 
ATOM      6  C   UNL     1       5.584   6.168  15.959  0.00  0.00    +0.000 A 
ATOM      7  C   UNL     1       5.913   4.833  15.673  0.00  0.00    +0.000 A 
ATOM      8  C   UNL     1       5.209   3.782  16.265  0.00  0.00    +0.000 A 
ATOM      9  C   UNL     1       4.159   4.022  17.160  0.00  0.00    +0.000 A 
ATOM     10  C   UNL     1       3.849   5.365  17.417  0.00  0.00    +0.000 A 
ATOM     11  N   UNL     1       2.898   5.960  18.210  0.00  0.00    +0.000 N 
ATOM     12  H   UNL     1       2.232   5.457  18.780  0.00  0.00    +0.000 HD
ENDBRANCH   2   3
BRANCH   1  16
ATOM     13  C   UNL     1      -1.170  12.040  20.047  0.00  0.00    +0.000 A 
ATOM     14  C   UNL     1       0.178  11.925  20.419  0.00  0.00    +0.000 A 
ATOM     15  C   UNL     1       1.058  11.036  19.778  0.00  0.00    +0.000 A 
ATOM     16  C   UNL     1       0.619  10.250  18.711  0.00  0.00    +0.000 A 
ATOM     17  C   UNL     1      -0.707  10.406  18.291  0.00  0.00    +0.000 A 
ATOM     18  C   UNL     1      -1.593  11.259  18.961  0.00  0.00    +0.000 A 
BRANCH  17  19
ATOM     19  O   UNL     1      -1.193   9.751  17.192  0.00  0.00    +0.000 OA
ATOM     20  H   UNL     1      -0.517   9.841  16.497  0.00  0.00    +0.000 HD
ENDBRANCH  17  19
BRANCH  13  21
ATOM     21  N   UNL     1      -2.072  12.885  20.720  0.00  0.00    +0.000 N 
BRANCH  21  23
ATOM     22  C   UNL     1      -4.294  14.019  20.739  0.00  0.00    +0.000 C 
ATOM     23  C   UNL     1      -3.495  12.785  20.347  0.00  0.00    +0.000 C 
ENDBRANCH  21  23
BRANCH  21  24
ATOM     24  C   UNL     1      -1.758  13.124  22.143  0.00  0.00    +0.000 C 
ATOM     25  C   UNL     1      -2.287  12.023  23.058  0.00  0.00    +0.000 C 
ENDBRANCH  21  24
ENDBRANCH  13  21
ENDBRANCH   1  16
BRANCH   2  26
ATOM     26  C   UNL     1       1.628   7.860  20.084  0.00  0.00    +0.000 C 
ATOM     27  N   UNL     1       1.277   7.712  21.181  0.00  0.00    +0.000 NA
ENDBRANCH   2  26
TORSDOF 7
ENDMDL
MODEL 6
REMARK VINA RESULT:      -6.3      8.291      9.748
REMARK  Name = 
REMARK  9 active torsions:
REMARK  status: ('A' for Active; 'I' for Inactive)
REMARK    1  A    between atoms: C_1  and  C_2
REMARK    2  A    between atoms: C_2  and  N_3
REMARK    3  A    between atoms: N_3  and  C_4
REMARK    4  A    between atoms: N_3  and  C_6
REMARK    5  A    between atoms: C_4  and  C_5
REMARK    6  A    between atoms: C_9  and  C_10
REMARK    7  A    between atoms: C_11  and  C_12
REMARK    8  A    between atoms: C_11  and  C_14
REMARK    9  A    between atoms: C_23  and  O_24
REMARK                            x       y       z     vdW  Elec       q    Type
REMARK                         _______ _______ _______ _____ _____    ______ ____
ROOT
ATOM      1  C   UNL     1       1.471   9.450  18.092  0.00  0.00    +0.000 C 
ATOM      2  C   UNL     1       1.925   8.384  18.790  0.00  0.00    +0.000 C 
ENDROOT
BRANCH   2   3
ATOM      3  C   UNL     1       2.833   7.470  18.151  0.00  0.00    +0.000 A 
ATOM      4  N   UNL     1       3.873   7.688  17.360  0.00  0.00    +0.000 NA
ATOM      5  C   UNL     1       4.352   6.447  16.988  0.00  0.00    +0.000 A 
ATOM      6  C   UNL     1       5.411   6.098  16.136  0.00  0.00    +0.000 A 
ATOM      7  C   UNL     1       5.670   4.739  15.894  0.00  0.00    +0.000 A 
ATOM      8  C   UNL     1       4.896   3.746  16.498  0.00  0.00    +0.000 A 
ATOM      9  C   UNL     1       3.843   4.070  17.363  0.00  0.00    +0.000 A 
ATOM     10  C   UNL     1       3.604   5.435  17.576  0.00  0.00    +0.000 A 
ATOM     11  N   UNL     1       2.672   6.105  18.331  0.00  0.00    +0.000 N 
ATOM     12  H   UNL     1       1.967   5.656  18.900  0.00  0.00    +0.000 HD
ENDBRANCH   2   3
BRANCH   1  16
ATOM     13  C   UNL     1      -1.143  12.416  19.877  0.00  0.00    +0.000 A 
ATOM     14  C   UNL     1       0.207  12.285  20.238  0.00  0.00    +0.000 A 
ATOM     15  C   UNL     1       1.050  11.330  19.645  0.00  0.00    +0.000 A 
ATOM     16  C   UNL     1       0.572  10.491  18.637  0.00  0.00    +0.000 A 
ATOM     17  C   UNL     1      -0.754  10.659  18.225  0.00  0.00    +0.000 A 
ATOM     18  C   UNL     1      -1.605  11.581  18.850  0.00  0.00    +0.000 A 
BRANCH  17  19
ATOM     19  O   UNL     1      -1.275   9.950  17.177  0.00  0.00    +0.000 OA
ATOM     20  H   UNL     1      -0.938   9.041  17.266  0.00  0.00    +0.000 HD
ENDBRANCH  17  19
BRANCH  13  21
ATOM     21  N   UNL     1      -2.009  13.330  20.505  0.00  0.00    +0.000 N 
BRANCH  21  23
ATOM     22  C   UNL     1      -2.828  12.472  22.701  0.00  0.00    +0.000 C 
ATOM     23  C   UNL     1      -3.156  12.771  21.245  0.00  0.00    +0.000 C 
ENDBRANCH  21  23
BRANCH  21  24
ATOM     24  C   UNL     1      -1.350  14.523  21.075  0.00  0.00    +0.000 C 
ATOM     25  C   UNL     1      -1.125  15.623  20.041  0.00  0.00    +0.000 C 
ENDBRANCH  21  24
ENDBRANCH  13  21
ENDBRANCH   1  16
BRANCH   2  26
ATOM     26  C   UNL     1       1.525   8.161  20.147  0.00  0.00    +0.000 C 
ATOM     27  N   UNL     1       1.310   7.992  21.276  0.00  0.00    +0.000 NA
ENDBRANCH   2  26
TORSDOF 7
ENDMDL
MODEL 7
REMARK VINA RESULT:      -6.3      8.737     10.427
REMARK  Name = 
REMARK  9 active torsions:
REMARK  status: ('A' for Active; 'I' for Inactive)
REMARK    1  A    between atoms: C_1  and  C_2
REMARK    2  A    between atoms: C_2  and  N_3
REMARK    3  A    between atoms: N_3  and  C_4
REMARK    4  A    between atoms: N_3  and  C_6
REMARK    5  A    between atoms: C_4  and  C_5
REMARK    6  A    between atoms: C_9  and  C_10
REMARK    7  A    between atoms: C_11  and  C_12
REMARK    8  A    between atoms: C_11  and  C_14
REMARK    9  A    between atoms: C_23  and  O_24
REMARK                            x       y       z     vdW  Elec       q    Type
REMARK                         _______ _______ _______ _____ _____    ______ ____
ROOT
ATOM      1  C   UNL     1       1.353   9.230  21.023  0.00  0.00    +0.000 C 
ATOM      2  C   UNL     1       1.303   8.920  19.707  0.00  0.00    +0.000 C 
ENDROOT
BRANCH   2   3
ATOM      3  C   UNL     1       2.166   7.884  19.204  0.00  0.00    +0.000 A 
ATOM      4  N   UNL     1       2.789   7.760  18.042  0.00  0.00    +0.000 NA
ATOM      5  C   UNL     1       3.439   6.543  18.072  0.00  0.00    +0.000 A 
ATOM      6  C   UNL     1       4.215   5.900  17.094  0.00  0.00    +0.000 A 
ATOM      7  C   UNL     1       4.741   4.628  17.371  0.00  0.00    +0.000 A 
ATOM      8  C   UNL     1       4.510   4.012  18.603  0.00  0.00    +0.000 A 
ATOM      9  C   UNL     1       3.751   4.640  19.599  0.00  0.00    +0.000 A 
ATOM     10  C   UNL     1       3.231   5.904  19.288  0.00  0.00    +0.000 A 
ATOM     11  N   UNL     1       2.452   6.784  19.998  0.00  0.00    +0.000 N 
ATOM     12  H   UNL     1       2.122   6.626  20.940  0.00  0.00    +0.000 HD
ENDBRANCH   2   3
BRANCH   1  16
ATOM     13  C   UNL     1      -1.331  12.088  22.879  0.00  0.00    +0.000 A 
ATOM     14  C   UNL     1      -1.339  10.724  23.206  0.00  0.00    +0.000 A 
ATOM     15  C   UNL     1      -0.456   9.807  22.609  0.00  0.00    +0.000 A 
ATOM     16  C   UNL     1       0.494  10.238  21.682  0.00  0.00    +0.000 A 
ATOM     17  C   UNL     1       0.553  11.607  21.399  0.00  0.00    +0.000 A 
ATOM     18  C   UNL     1      -0.358  12.511  21.961  0.00  0.00    +0.000 A 
BRANCH  17  19
ATOM     19  O   UNL     1       1.516  12.130  20.581  0.00  0.00    +0.000 OA
ATOM     20  H   UNL     1       2.147  11.410  20.404  0.00  0.00    +0.000 HD
ENDBRANCH  17  19
BRANCH  13  21
ATOM     21  N   UNL     1      -2.248  13.004  23.427  0.00  0.00    +0.000 N 
BRANCH  21  23
ATOM     22  C   UNL     1      -1.526  15.028  24.695  0.00  0.00    +0.000 C 
ATOM     23  C   UNL     1      -1.902  14.435  23.345  0.00  0.00    +0.000 C 
ENDBRANCH  21  23
BRANCH  21  24
ATOM     24  C   UNL     1      -3.669  12.638  23.261  0.00  0.00    +0.000 C 
ATOM     25  C   UNL     1      -4.398  12.483  24.593  0.00  0.00    +0.000 C 
ENDBRANCH  21  24
ENDBRANCH  13  21
ENDBRANCH   1  16
BRANCH   2  26
ATOM     26  C   UNL     1       0.405   9.595  18.819  0.00  0.00    +0.000 C 
ATOM     27  N   UNL     1      -0.407  10.079  18.145  0.00  0.00    +0.000 NA
ENDBRANCH   2  26
TORSDOF 7
ENDMDL
MODEL 8
REMARK VINA RESULT:      -6.3      8.337      9.940
REMARK  Name = 
REMARK  9 active torsions:
REMARK  status: ('A' for Active; 'I' for Inactive)
REMARK    1  A    between atoms: C_1  and  C_2
REMARK    2  A    between atoms: C_2  and  N_3
REMARK    3  A    between atoms: N_3  and  C_4
REMARK    4  A    between atoms: N_3  and  C_6
REMARK    5  A    between atoms: C_4  and  C_5
REMARK    6  A    between atoms: C_9  and  C_10
REMARK    7  A    between atoms: C_11  and  C_12
REMARK    8  A    between atoms: C_11  and  C_14
REMARK    9  A    between atoms: C_23  and  O_24
REMARK                            x       y       z     vdW  Elec       q    Type
REMARK                         _______ _______ _______ _____ _____    ______ ____
ROOT
ATOM      1  C   UNL     1       1.378   9.399  18.090  0.00  0.00    +0.000 C 
ATOM      2  C   UNL     1       1.890   8.364  18.796  0.00  0.00    +0.000 C 
ENDROOT
BRANCH   2   3
ATOM      3  C   UNL     1       2.813   7.470  18.147  0.00  0.00    +0.000 A 
ATOM      4  N   UNL     1       3.848   7.712  17.357  0.00  0.00    +0.000 NA
ATOM      5  C   UNL     1       4.347   6.483  16.975  0.00  0.00    +0.000 A 
ATOM      6  C   UNL     1       5.411   6.158  16.118  0.00  0.00    +0.000 A 
ATOM      7  C   UNL     1       5.693   4.806  15.865  0.00  0.00    +0.000 A 
ATOM      8  C   UNL     1       4.937   3.795  16.463  0.00  0.00    +0.000 A 
ATOM      9  C   UNL     1       3.880   4.094  17.332  0.00  0.00    +0.000 A 
ATOM     10  C   UNL     1       3.617   5.453  17.556  0.00  0.00    +0.000 A 
ATOM     11  N   UNL     1       2.676   6.101  18.317  0.00  0.00    +0.000 N 
ATOM     12  H   UNL     1       1.979   5.636  18.884  0.00  0.00    +0.000 HD
ENDBRANCH   2   3
BRANCH   1  16
ATOM     13  C   UNL     1      -1.300  12.297  19.891  0.00  0.00    +0.000 A 
ATOM     14  C   UNL     1       0.048  12.183  20.263  0.00  0.00    +0.000 A 
ATOM     15  C   UNL     1       0.913  11.250  19.664  0.00  0.00    +0.000 A 
ATOM     16  C   UNL     1       0.458  10.417  18.641  0.00  0.00    +0.000 A 
ATOM     17  C   UNL     1      -0.867  10.569  18.219  0.00  0.00    +0.000 A 
ATOM     18  C   UNL     1      -1.739  11.468  18.848  0.00  0.00    +0.000 A 
BRANCH  17  19
ATOM     19  O   UNL     1      -1.368   9.866  17.157  0.00  0.00    +0.000 OA
ATOM     20  H   UNL     1      -1.437  10.496  16.419  0.00  0.00    +0.000 HD
ENDBRANCH  17  19
BRANCH  13  21
ATOM     21  N   UNL     1      -2.187  13.188  20.524  0.00  0.00    +0.000 N 
BRANCH  21  23
ATOM     22  C   UNL     1      -1.477  15.080  21.987  0.00  0.00    +0.000 C 
ATOM     23  C   UNL     1      -1.793  14.608  20.575  0.00  0.00    +0.000 C 
ENDBRANCH  21  23
BRANCH  21  24
ATOM     24  C   UNL     1      -3.619  12.887  20.325  0.00  0.00    +0.000 C 
ATOM     25  C   UNL     1      -4.390  12.791  21.638  0.00  0.00    +0.000 C 
ENDBRANCH  21  24
ENDBRANCH  13  21
ENDBRANCH   1  16
BRANCH   2  26
ATOM     26  C   UNL     1       1.536   8.153  20.167  0.00  0.00    +0.000 C 
ATOM     27  N   UNL     1       1.286   7.874  21.266  0.00  0.00    +0.000 NA
ENDBRANCH   2  26
TORSDOF 7
ENDMDL
MODEL 9
REMARK VINA RESULT:      -6.3      8.129      9.586
REMARK  Name = 
REMARK  9 active torsions:
REMARK  status: ('A' for Active; 'I' for Inactive)
REMARK    1  A    between atoms: C_1  and  C_2
REMARK    2  A    between atoms: C_2  and  N_3
REMARK    3  A    between atoms: N_3  and  C_4
REMARK    4  A    between atoms: N_3  and  C_6
REMARK    5  A    between atoms: C_4  and  C_5
REMARK    6  A    between atoms: C_9  and  C_10
REMARK    7  A    between atoms: C_11  and  C_12
REMARK    8  A    between atoms: C_11  and  C_14
REMARK    9  A    between atoms: C_23  and  O_24
REMARK                            x       y       z     vdW  Elec       q    Type
REMARK                         _______ _______ _______ _____ _____    ______ ____
ROOT
ATOM      1  C   UNL     1       1.427   9.285  18.007  0.00  0.00    +0.000 C 
ATOM      2  C   UNL     1       1.870   8.270  18.784  0.00  0.00    +0.000 C 
ENDROOT
BRANCH   2   3
ATOM      3  C   UNL     1       2.670   7.235  18.185  0.00  0.00    +0.000 A 
ATOM      4  N   UNL     1       2.539   5.917  18.198  0.00  0.00    +0.000 NA
ATOM      5  C   UNL     1       3.620   5.407  17.507  0.00  0.00    +0.000 A 
ATOM      6  C   UNL     1       3.993   4.078  17.251  0.00  0.00    +0.000 A 
ATOM      7  C   UNL     1       5.179   3.827  16.542  0.00  0.00    +0.000 A 
ATOM      8  C   UNL     1       5.974   4.882  16.087  0.00  0.00    +0.000 A 
ATOM      9  C   UNL     1       5.616   6.216  16.319  0.00  0.00    +0.000 A 
ATOM     10  C   UNL     1       4.432   6.432  17.037  0.00  0.00    +0.000 A 
ATOM     11  N   UNL     1       3.795   7.576  17.449  0.00  0.00    +0.000 N 
ATOM     12  H   UNL     1       4.124   8.514  17.261  0.00  0.00    +0.000 HD
ENDBRANCH   2   3
BRANCH   1  16
ATOM     13  C   UNL     1      -0.837  12.606  19.639  0.00  0.00    +0.000 A 
ATOM     14  C   UNL     1       0.554  12.495  19.788  0.00  0.00    +0.000 A 
ATOM     15  C   UNL     1       1.282  11.423  19.244  0.00  0.00    +0.000 A 
ATOM     16  C   UNL     1       0.637  10.435  18.497  0.00  0.00    +0.000 A 
ATOM     17  C   UNL     1      -0.739  10.572  18.288  0.00  0.00    +0.000 A 
ATOM     18  C   UNL     1      -1.469  11.618  18.870  0.00  0.00    +0.000 A 
BRANCH  17  19
ATOM     19  O   UNL     1      -1.433   9.707  17.487  0.00  0.00    +0.000 OA
ATOM     20  H   UNL     1      -0.785   9.061  17.155  0.00  0.00    +0.000 HD
ENDBRANCH  17  19
BRANCH  13  21
ATOM     21  N   UNL     1      -1.582  13.644  20.227  0.00  0.00    +0.000 N 
BRANCH  21  23
ATOM     22  C   UNL     1      -2.327  12.673  22.401  0.00  0.00    +0.000 C 
ATOM     23  C   UNL     1      -2.738  13.258  21.058  0.00  0.00    +0.000 C 
ENDBRANCH  21  23
BRANCH  21  24
ATOM     24  C   UNL     1      -0.787  14.808  20.670  0.00  0.00    +0.000 C 
ATOM     25  C   UNL     1      -1.173  16.096  19.949  0.00  0.00    +0.000 C 
ENDBRANCH  21  24
ENDBRANCH  13  21
ENDBRANCH   1  16
BRANCH   2  26
ATOM     26  C   UNL     1       1.565   8.217  20.182  0.00  0.00    +0.000 C 
ATOM     27  N   UNL     1       1.238   8.254  21.295  0.00  0.00    +0.000 NA
ENDBRANCH   2  26
TORSDOF 7
ENDMDL
