MODEL 1
REMARK VINA RESULT:      -7.2      0.000      0.000
REMARK  Name = 
REMARK  10 active torsions:
REMARK  status: ('A' for Active; 'I' for Inactive)
REMARK    1  A    between atoms: C_1  and  O_2
REMARK    2  A    between atoms: O_2  and  C_3
REMARK    3  A    between atoms: C_6  and  C_7
REMARK    4  A    between atoms: C_7  and  C_8
REMARK    5  A    between atoms: C_7  and  C_17
REMARK    6  A    between atoms: C_8  and  C_9
REMARK    7  A    between atoms: C_18  and  O_19
REMARK    8  A    between atoms: O_19  and  C_20
REMARK    9  A    between atoms: C_22  and  O_23
REMARK   10  A    between atoms: O_23  and  C_24
REMARK                            x       y       z     vdW  Elec       q    Type
REMARK                         _______ _______ _______ _____ _____    ______ ____
ROOT
ATOM      1  C   UNL     1      -0.629  10.679  20.203  0.00  0.00    +0.000 C 
ENDROOT
BRANCH   1   2
ATOM      2  C   UNL     1      -0.351  12.014  20.960  0.00  0.00    +0.000 A 
ATOM      3  C   UNL     1      -1.030  12.358  22.151  0.00  0.00    +0.000 A 
ATOM      4  C   UNL     1      -0.745  13.555  22.841  0.00  0.00    +0.000 A 
ATOM      5  C   UNL     1       0.167  14.504  22.363  0.00  0.00    +0.000 A 
ATOM      6  C   UNL     1       0.830  14.228  21.171  0.00  0.00    +0.000 A 
ATOM      7  C   UNL     1       1.790  15.121  20.485  0.00  0.00    +0.000 A 
ATOM      8  C   UNL     1       1.847  14.971  19.148  0.00  0.00    +0.000 A 
ATOM      9  C   UNL     1       2.312  13.588  18.860  0.00  0.00    +0.000 A 
ATOM     10  O   UNL     1       3.242  13.335  18.107  0.00  0.00    +0.000 OA
ATOM     11  O   UNL     1       1.535  12.630  19.503  0.00  0.00    +0.000 OA
ATOM     12  C   UNL     1       0.610  12.969  20.543  0.00  0.00    +0.000 A 
BRANCH   3  13
ATOM     13  O   UNL     1      -1.833  11.506  22.868  0.00  0.00    +0.000 OA
ATOM     14  C   UNL     1      -2.969  12.086  23.501  0.00  0.00    +0.000 C 
ENDBRANCH   3  13
BRANCH   5  15
ATOM     15  O   UNL     1       0.250  15.620  23.147  0.00  0.00    +0.000 OA
ATOM     16  C   UNL     1      -0.674  16.678  22.928  0.00  0.00    +0.000 C 
ENDBRANCH   5  15
ENDBRANCH   1   2
BRANCH   1  20
ATOM     17  C   UNL     1      -3.208  10.779  16.692  0.00  0.00    +0.000 A 
ATOM     18  C   UNL     1      -2.056   9.992  16.707  0.00  0.00    +0.000 A 
ATOM     19  C   UNL     1      -1.200  10.000  17.815  0.00  0.00    +0.000 A 
ATOM     20  C   UNL     1      -1.481  10.810  18.933  0.00  0.00    +0.000 A 
ATOM     21  C   UNL     1      -2.618  11.636  18.876  0.00  0.00    +0.000 A 
ATOM     22  C   UNL     1      -3.474  11.616  17.771  0.00  0.00    +0.000 A 
BRANCH  17  24
ATOM     23  C   UNL     1      -3.331  10.156  14.419  0.00  0.00    +0.000 C 
ATOM     24  O   UNL     1      -3.988  10.672  15.573  0.00  0.00    +0.000 OA
ENDBRANCH  17  24
ENDBRANCH   1  20
BRANCH   1  25
ATOM     25  C   UNL     1       0.699   9.937  19.973  0.00  0.00    +0.000 C 
BRANCH  25  26
ATOM     26  C   UNL     1       0.973   8.694  20.809  0.00  0.00    +0.000 C 
ATOM     27  O   UNL     1       0.622   8.591  21.979  0.00  0.00    +0.000 OA
ATOM     28  N   UNL     1       1.695   7.702  20.133  0.00  0.00    +0.000 N 
ATOM     29  C   UNL     1       2.378   7.913  18.850  0.00  0.00    +0.000 C 
ATOM     30  C   UNL     1       2.136   6.747  17.908  0.00  0.00    +0.000 C 
ATOM     31  C   UNL     1       2.561   5.436  18.557  0.00  0.00    +0.000 C 
ATOM     32  C   UNL     1       1.874   5.250  19.910  0.00  0.00    +0.000 C 
ATOM     33  C   UNL     1       2.063   6.465  20.823  0.00  0.00    +0.000 C 
ENDBRANCH  25  26
ENDBRANCH   1  25
TORSDOF 7
ENDMDL
MODEL 2
REMARK VINA RESULT:      -7.1      2.432      6.560
REMARK  Name = 
REMARK  10 active torsions:
REMARK  status: ('A' for Active; 'I' for Inactive)
REMARK    1  A    between atoms: C_1  and  O_2
REMARK    2  A    between atoms: O_2  and  C_3
REMARK    3  A    between atoms: C_6  and  C_7
REMARK    4  A    between atoms: C_7  and  C_8
REMARK    5  A    between atoms: C_7  and  C_17
REMARK    6  A    between atoms: C_8  and  C_9
REMARK    7  A    between atoms: C_18  and  O_19
REMARK    8  A    between atoms: O_19  and  C_20
REMARK    9  A    between atoms: C_22  and  O_23
REMARK   10  A    between atoms: O_23  and  C_24
REMARK                            x       y       z     vdW  Elec       q    Type
REMARK                         _______ _______ _______ _____ _____    ______ ____
ROOT
ATOM      1  C   UNL     1       0.265  12.078  19.619  0.00  0.00    +0.000 C 
ENDROOT
BRANCH   1   2
ATOM      2  C   UNL     1      -1.265  12.284  19.841  0.00  0.00    +0.000 A 
ATOM      3  C   UNL     1      -1.779  12.892  21.010  0.00  0.00    +0.000 A 
ATOM      4  C   UNL     1      -3.164  13.101  21.182  0.00  0.00    +0.000 A 
ATOM      5  C   UNL     1      -4.115  12.663  20.253  0.00  0.00    +0.000 A 
ATOM      6  C   UNL     1      -3.658  12.021  19.106  0.00  0.00    +0.000 A 
ATOM      7  C   UNL     1      -4.506  11.450  18.036  0.00  0.00    +0.000 A 
ATOM      8  C   UNL     1      -3.961  10.410  17.376  0.00  0.00    +0.000 A 
ATOM      9  C   UNL     1      -2.729  10.892  16.695  0.00  0.00    +0.000 A 
ATOM     10  O   UNL     1      -2.502  10.709  15.508  0.00  0.00    +0.000 OA
ATOM     11  O   UNL     1      -1.857  11.522  17.577  0.00  0.00    +0.000 OA
ATOM     12  C   UNL     1      -2.254  11.914  18.896  0.00  0.00    +0.000 A 
BRANCH   3  13
ATOM     13  O   UNL     1      -1.019  13.533  21.957  0.00  0.00    +0.000 OA
ATOM     14  C   UNL     1      -1.416  13.357  23.313  0.00  0.00    +0.000 C 
ENDBRANCH   3  13
BRANCH   5  15
ATOM     15  O   UNL     1      -5.403  12.908  20.639  0.00  0.00    +0.000 OA
ATOM     16  C   UNL     1      -6.080  14.029  20.086  0.00  0.00    +0.000 C 
ENDBRANCH   5  15
ENDBRANCH   1   2
BRANCH   1  20
ATOM     17  C   UNL     1       1.882   8.033  19.489  0.00  0.00    +0.000 A 
ATOM     18  C   UNL     1       1.899   8.843  18.353  0.00  0.00    +0.000 A 
ATOM     19  C   UNL     1       1.333  10.124  18.382  0.00  0.00    +0.000 A 
ATOM     20  C   UNL     1       0.727  10.615  19.554  0.00  0.00    +0.000 A 
ATOM     21  C   UNL     1       0.672   9.762  20.671  0.00  0.00    +0.000 A 
ATOM     22  C   UNL     1       1.248   8.489  20.640  0.00  0.00    +0.000 A 
BRANCH  17  24
ATOM     23  C   UNL     1       2.048   5.813  20.273  0.00  0.00    +0.000 C 
ATOM     24  O   UNL     1       2.490   6.814  19.359  0.00  0.00    +0.000 OA
ENDBRANCH  17  24
ENDBRANCH   1  20
BRANCH   1  25
ATOM     25  C   UNL     1       0.724  12.916  18.413  0.00  0.00    +0.000 C 
BRANCH  25  26
ATOM     26  C   UNL     1       1.827  13.940  18.638  0.00  0.00    +0.000 C 
ATOM     27  O   UNL     1       3.011  13.632  18.723  0.00  0.00    +0.000 OA
ATOM     28  N   UNL     1       1.363  15.254  18.778  0.00  0.00    +0.000 N 
ATOM     29  C   UNL     1      -0.048  15.611  18.977  0.00  0.00    +0.000 C 
ATOM     30  C   UNL     1      -0.435  16.798  18.114  0.00  0.00    +0.000 C 
ATOM     31  C   UNL     1       0.483  17.982  18.388  0.00  0.00    +0.000 C 
ATOM     32  C   UNL     1       1.950  17.586  18.217  0.00  0.00    +0.000 C 
ATOM     33  C   UNL     1       2.308  16.342  19.035  0.00  0.00    +0.000 C 
ENDBRANCH  25  26
ENDBRANCH   1  25
TORSDOF 7
ENDMDL
MODEL 3
REMARK VINA RESULT:      -7.0      2.434      6.991
REMARK  Name = 
REMARK  10 active torsions:
REMARK  status: ('A' for Active; 'I' for Inactive)
REMARK    1  A    between atoms: C_1  and  O_2
REMARK    2  A    between atoms: O_2  and  C_3
REMARK    3  A    between atoms: C_6  and  C_7
REMARK    4  A    between atoms: C_7  and  C_8
REMARK    5  A    between atoms: C_7  and  C_17
REMARK    6  A    between atoms: C_8  and  C_9
REMARK    7  A    between atoms: C_18  and  O_19
REMARK    8  A    between atoms: O_19  and  C_20
REMARK    9  A    between atoms: C_22  and  O_23
REMARK   10  A    between atoms: O_23  and  C_24
REMARK                            x       y       z     vdW  Elec       q    Type
REMARK                         _______ _______ _______ _____ _____    ______ ____
ROOT
ATOM      1  C   UNL     1      -0.411  12.011  19.378  0.00  0.00    +0.000 C 
ENDROOT
BRANCH   1   2
ATOM      2  C   UNL     1      -1.963  12.016  19.211  0.00  0.00    +0.000 A 
ATOM      3  C   UNL     1      -2.590  11.608  18.011  0.00  0.00    +0.000 A 
ATOM      4  C   UNL     1      -3.995  11.587  17.886  0.00  0.00    +0.000 A 
ATOM      5  C   UNL     1      -4.850  12.029  18.903  0.00  0.00    +0.000 A 
ATOM      6  C   UNL     1      -4.276  12.480  20.087  0.00  0.00    +0.000 A 
ATOM      7  C   UNL     1      -5.007  13.025  21.253  0.00  0.00    +0.000 A 
ATOM      8  C   UNL     1      -4.314  13.913  21.991  0.00  0.00    +0.000 A 
ATOM      9  C   UNL     1      -3.128  13.213  22.555  0.00  0.00    +0.000 A 
ATOM     10  O   UNL     1      -2.837  13.234  23.743  0.00  0.00    +0.000 OA
ATOM     11  O   UNL     1      -2.373  12.586  21.569  0.00  0.00    +0.000 OA
ATOM     12  C   UNL     1      -2.863  12.394  20.238  0.00  0.00    +0.000 A 
BRANCH   3  13
ATOM     13  O   UNL     1      -1.951  10.990  16.964  0.00  0.00    +0.000 OA
ATOM     14  C   UNL     1      -2.771  10.244  16.072  0.00  0.00    +0.000 C 
ENDBRANCH   3  13
BRANCH   5  15
ATOM     15  O   UNL     1      -6.172  11.985  18.557  0.00  0.00    +0.000 OA
ATOM     16  C   UNL     1      -6.590  12.652  17.373  0.00  0.00    +0.000 C 
ENDBRANCH   5  15
ENDBRANCH   1   2
BRANCH   1  20
ATOM     17  C   UNL     1       1.719   8.218  19.620  0.00  0.00    +0.000 A 
ATOM     18  C   UNL     1       1.623   8.904  18.409  0.00  0.00    +0.000 A 
ATOM     19  C   UNL     1       0.894  10.097  18.321  0.00  0.00    +0.000 A 
ATOM     20  C   UNL     1       0.237  10.621  19.450  0.00  0.00    +0.000 A 
ATOM     21  C   UNL     1       0.301   9.886  20.647  0.00  0.00    +0.000 A 
ATOM     22  C   UNL     1       1.038   8.703  20.732  0.00  0.00    +0.000 A 
BRANCH  17  24
ATOM     23  C   UNL     1       3.138   6.808  18.366  0.00  0.00    +0.000 C 
ATOM     24  O   UNL     1       2.480   7.081  19.601  0.00  0.00    +0.000 OA
ENDBRANCH  17  24
ENDBRANCH   1  20
BRANCH   1  25
ATOM     25  C   UNL     1       0.219  12.924  18.311  0.00  0.00    +0.000 C 
BRANCH  25  26
ATOM     26  C   UNL     1       1.383  13.810  18.732  0.00  0.00    +0.000 C 
ATOM     27  O   UNL     1       2.507  13.372  18.946  0.00  0.00    +0.000 OA
ATOM     28  N   UNL     1       1.040  15.160  18.891  0.00  0.00    +0.000 N 
ATOM     29  C   UNL     1      -0.341  15.658  18.934  0.00  0.00    +0.000 C 
ATOM     30  C   UNL     1      -0.490  16.918  18.101  0.00  0.00    +0.000 C 
ATOM     31  C   UNL     1       0.500  17.982  18.557  0.00  0.00    +0.000 C 
ATOM     32  C   UNL     1       1.929  17.437  18.547  0.00  0.00    +0.000 C 
ATOM     33  C   UNL     1       2.049  16.126  19.329  0.00  0.00    +0.000 C 
ENDBRANCH  25  26
ENDBRANCH   1  25
TORSDOF 7
ENDMDL
MODEL 4
REMARK VINA RESULT:      -7.0      0.846      3.124
REMARK  Name = 
REMARK  10 active torsions:
REMARK  status: ('A' for Active; 'I' for Inactive)
REMARK    1  A    between atoms: C_1  and  O_2
REMARK    2  A    between atoms: O_2  and  C_3
REMARK    3  A    between atoms: C_6  and  C_7
REMARK    4  A    between atoms: C_7  and  C_8
REMARK    5  A    between atoms: C_7  and  C_17
REMARK    6  A    between atoms: C_8  and  C_9
REMARK    7  A    between atoms: C_18  and  O_19
REMARK    8  A    between atoms: O_19  and  C_20
REMARK    9  A    between atoms: C_22  and  O_23
REMARK   10  A    between atoms: O_23  and  C_24
REMARK                            x       y       z     vdW  Elec       q    Type
REMARK                         _______ _______ _______ _____ _____    ______ ____
ROOT
ATOM      1  C   UNL     1      -0.491  10.540  19.814  0.00  0.00    +0.000 C 
ENDROOT
BRANCH   1   2
ATOM      2  C   UNL     1      -0.060  11.889  20.468  0.00  0.00    +0.000 A 
ATOM      3  C   UNL     1       1.100  12.586  20.057  0.00  0.00    +0.000 A 
ATOM      4  C   UNL     1       1.459  13.821  20.636  0.00  0.00    +0.000 A 
ATOM      5  C   UNL     1       0.742  14.398  21.691  0.00  0.00    +0.000 A 
ATOM      6  C   UNL     1      -0.384  13.726  22.158  0.00  0.00    +0.000 A 
ATOM      7  C   UNL     1      -1.241  14.151  23.287  0.00  0.00    +0.000 A 
ATOM      8  C   UNL     1      -1.858  13.146  23.938  0.00  0.00    +0.000 A 
ATOM      9  C   UNL     1      -2.769  12.468  22.978  0.00  0.00    +0.000 A 
ATOM     10  O   UNL     1      -3.950  12.252  23.211  0.00  0.00    +0.000 OA
ATOM     11  O   UNL     1      -2.107  12.070  21.821  0.00  0.00    +0.000 OA
ATOM     12  C   UNL     1      -0.794  12.537  21.493  0.00  0.00    +0.000 A 
BRANCH   3  13
ATOM     13  O   UNL     1       1.843  12.281  18.943  0.00  0.00    +0.000 OA
ATOM     14  C   UNL     1       2.541  13.361  18.333  0.00  0.00    +0.000 C 
ENDBRANCH   3  13
BRANCH   5  15
ATOM     15  O   UNL     1       1.293  15.562  22.149  0.00  0.00    +0.000 OA
ATOM     16  C   UNL     1       0.805  16.795  21.637  0.00  0.00    +0.000 C 
ENDBRANCH   5  15
ENDBRANCH   1   2
BRANCH   1  20
ATOM     17  C   UNL     1      -3.204  10.645  16.405  0.00  0.00    +0.000 A 
ATOM     18  C   UNL     1      -2.089   9.807  16.402  0.00  0.00    +0.000 A 
ATOM     19  C   UNL     1      -1.189   9.812  17.475  0.00  0.00    +0.000 A 
ATOM     20  C   UNL     1      -1.387  10.669  18.574  0.00  0.00    +0.000 A 
ATOM     21  C   UNL     1      -2.487  11.545  18.534  0.00  0.00    +0.000 A 
ATOM     22  C   UNL     1      -3.388  11.528  17.465  0.00  0.00    +0.000 A 
BRANCH  17  24
ATOM     23  C   UNL     1      -3.415  10.074  14.125  0.00  0.00    +0.000 C 
ATOM     24  O   UNL     1      -4.033  10.538  15.322  0.00  0.00    +0.000 OA
ENDBRANCH  17  24
ENDBRANCH   1  20
BRANCH   1  25
ATOM     25  C   UNL     1       0.754   9.666  19.578  0.00  0.00    +0.000 C 
BRANCH  25  26
ATOM     26  C   UNL     1       1.009   8.518  20.544  0.00  0.00    +0.000 C 
ATOM     27  O   UNL     1       0.622   8.531  21.707  0.00  0.00    +0.000 OA
ATOM     28  N   UNL     1       1.758   7.469  19.995  0.00  0.00    +0.000 N 
ATOM     29  C   UNL     1       2.480   7.555  18.719  0.00  0.00    +0.000 C 
ATOM     30  C   UNL     1       2.276   6.298  17.893  0.00  0.00    +0.000 C 
ATOM     31  C   UNL     1       2.689   5.064  18.685  0.00  0.00    +0.000 C 
ATOM     32  C   UNL     1       1.960   5.009  20.028  0.00  0.00    +0.000 C 
ATOM     33  C   UNL     1       2.112   6.312  20.817  0.00  0.00    +0.000 C 
ENDBRANCH  25  26
ENDBRANCH   1  25
TORSDOF 7
ENDMDL
MODEL 5
REMARK VINA RESULT:      -6.9      2.511      7.153
REMARK  Name = 
REMARK  10 active torsions:
REMARK  status: ('A' for Active; 'I' for Inactive)
REMARK    1  A    between atoms: C_1  and  O_2
REMARK    2  A    between atoms: O_2  and  C_3
REMARK    3  A    between atoms: C_6  and  C_7
REMARK    4  A    between atoms: C_7  and  C_8
REMARK    5  A    between atoms: C_7  and  C_17
REMARK    6  A    between atoms: C_8  and  C_9
REMARK    7  A    between atoms: C_18  and  O_19
REMARK    8  A    between atoms: O_19  and  C_20
REMARK    9  A    between atoms: C_22  and  O_23
REMARK   10  A    between atoms: O_23  and  C_24
REMARK                            x       y       z     vdW  Elec       q    Type
REMARK                         _______ _______ _______ _____ _____    ______ ____
ROOT
ATOM      1  C   UNL     1      -0.501  12.321  19.554  0.00  0.00    +0.000 C 
ENDROOT
BRANCH   1   2
ATOM      2  C   UNL     1      -2.042  12.192  19.347  0.00  0.00    +0.000 A 
ATOM      3  C   UNL     1      -2.600  11.723  18.135  0.00  0.00    +0.000 A 
ATOM      4  C   UNL     1      -3.995  11.582  17.974  0.00  0.00    +0.000 A 
ATOM      5  C   UNL     1      -4.911  11.958  18.964  0.00  0.00    +0.000 A 
ATOM      6  C   UNL     1      -4.409  12.464  20.158  0.00  0.00    +0.000 A 
ATOM      7  C   UNL     1      -5.215  12.955  21.299  0.00  0.00    +0.000 A 
ATOM      8  C   UNL     1      -4.619  13.904  22.046  0.00  0.00    +0.000 A 
ATOM      9  C   UNL     1      -3.394  13.312  22.648  0.00  0.00    +0.000 A 
ATOM     10  O   UNL     1      -3.138  13.367  23.842  0.00  0.00    +0.000 OA
ATOM     11  O   UNL     1      -2.563  12.743  21.688  0.00  0.00    +0.000 OA
ATOM     12  C   UNL     1      -2.999  12.501  20.346  0.00  0.00    +0.000 A 
BRANCH   3  13
ATOM     13  O   UNL     1      -1.883  11.154  17.112  0.00  0.00    +0.000 OA
ATOM     14  C   UNL     1      -2.182   9.796  16.807  0.00  0.00    +0.000 C 
ENDBRANCH   3  13
BRANCH   5  15
ATOM     15  O   UNL     1      -6.215  11.799  18.584  0.00  0.00    +0.000 OA
ATOM     16  C   UNL     1      -6.854  10.555  18.841  0.00  0.00    +0.000 C 
ENDBRANCH   5  15
ENDBRANCH   1   2
BRANCH   1  20
ATOM     17  C   UNL     1       1.315   8.416  20.216  0.00  0.00    +0.000 A 
ATOM     18  C   UNL     1       0.624   9.062  21.241  0.00  0.00    +0.000 A 
ATOM     19  C   UNL     1       0.086  10.340  21.043  0.00  0.00    +0.000 A 
ATOM     20  C   UNL     1       0.239  11.000  19.809  0.00  0.00    +0.000 A 
ATOM     21  C   UNL     1       0.985  10.354  18.807  0.00  0.00    +0.000 A 
ATOM     22  C   UNL     1       1.511   9.075  19.006  0.00  0.00    +0.000 A 
BRANCH  17  24
ATOM     23  C   UNL     1       2.553   6.544  19.485  0.00  0.00    +0.000 C 
ATOM     24  O   UNL     1       1.773   7.160  20.506  0.00  0.00    +0.000 OA
ENDBRANCH  17  24
ENDBRANCH   1  20
BRANCH   1  25
ATOM     25  C   UNL     1       0.101  13.145  18.402  0.00  0.00    +0.000 C 
BRANCH  25  26
ATOM     26  C   UNL     1       1.283  14.051  18.720  0.00  0.00    +0.000 C 
ATOM     27  O   UNL     1       2.418  13.624  18.899  0.00  0.00    +0.000 OA
ATOM     28  N   UNL     1       0.946  15.407  18.828  0.00  0.00    +0.000 N 
ATOM     29  C   UNL     1      -0.433  15.907  18.915  0.00  0.00    +0.000 C 
ATOM     30  C   UNL     1      -0.626  17.124  18.029  0.00  0.00    +0.000 C 
ATOM     31  C   UNL     1       0.384  18.209  18.382  0.00  0.00    +0.000 C 
ATOM     32  C   UNL     1       1.811  17.664  18.327  0.00  0.00    +0.000 C 
ATOM     33  C   UNL     1       1.973  16.393  19.166  0.00  0.00    +0.000 C 
ENDBRANCH  25  26
ENDBRANCH   1  25
TORSDOF 7
ENDMDL
MODEL 6
REMARK VINA RESULT:      -6.9      1.544      3.599
REMARK  Name = 
REMARK  10 active torsions:
REMARK  status: ('A' for Active; 'I' for Inactive)
REMARK    1  A    between atoms: C_1  and  O_2
REMARK    2  A    between atoms: O_2  and  C_3
REMARK    3  A    between atoms: C_6  and  C_7
REMARK    4  A    between atoms: C_7  and  C_8
REMARK    5  A    between atoms: C_7  and  C_17
REMARK    6  A    between atoms: C_8  and  C_9
REMARK    7  A    between atoms: C_18  and  O_19
REMARK    8  A    between atoms: O_19  and  C_20
REMARK    9  A    between atoms: C_22  and  O_23
REMARK   10  A    between atoms: O_23  and  C_24
REMARK                            x       y       z     vdW  Elec       q    Type
REMARK                         _______ _______ _______ _____ _____    ______ ____
ROOT
ATOM      1  C   UNL     1      -1.359  11.301  19.904  0.00  0.00    +0.000 C 
ENDROOT
BRANCH   1   2
ATOM      2  C   UNL     1      -1.437  12.797  20.339  0.00  0.00    +0.000 A 
ATOM      3  C   UNL     1      -0.790  13.825  19.615  0.00  0.00    +0.000 A 
ATOM      4  C   UNL     1      -0.897  15.177  20.002  0.00  0.00    +0.000 A 
ATOM      5  C   UNL     1      -1.582  15.581  21.154  0.00  0.00    +0.000 A 
ATOM      6  C   UNL     1      -2.200  14.599  21.923  0.00  0.00    +0.000 A 
ATOM      7  C   UNL     1      -2.929  14.822  23.191  0.00  0.00    +0.000 A 
ATOM      8  C   UNL     1      -2.919  13.777  24.041  0.00  0.00    +0.000 A 
ATOM      9  C   UNL     1      -3.611  12.639  23.377  0.00  0.00    +0.000 A 
ATOM     10  O   UNL     1      -4.517  12.006  23.900  0.00  0.00    +0.000 OA
ATOM     11  O   UNL     1      -3.070  12.357  22.126  0.00  0.00    +0.000 OA
ATOM     12  C   UNL     1      -2.174  13.253  21.461  0.00  0.00    +0.000 A 
BRANCH   3  13
ATOM     13  O   UNL     1      -0.211  13.666  18.380  0.00  0.00    +0.000 OA
ATOM     14  C   UNL     1       1.203  13.814  18.319  0.00  0.00    +0.000 C 
ENDBRANCH   3  13
BRANCH   5  15
ATOM     15  O   UNL     1      -1.512  16.927  21.383  0.00  0.00    +0.000 OA
ATOM     16  C   UNL     1      -0.323  17.461  21.952  0.00  0.00    +0.000 C 
ENDBRANCH   5  15
ENDBRANCH   1   2
BRANCH   1  20
ATOM     17  C   UNL     1      -3.432  10.591  16.138  0.00  0.00    +0.000 A 
ATOM     18  C   UNL     1      -4.025  11.355  17.144  0.00  0.00    +0.000 A 
ATOM     19  C   UNL     1      -3.380  11.540  18.373  0.00  0.00    +0.000 A 
ATOM     20  C   UNL     1      -2.126  10.950  18.622  0.00  0.00    +0.000 A 
ATOM     21  C   UNL     1      -1.571  10.139  17.616  0.00  0.00    +0.000 A 
ATOM     22  C   UNL     1      -2.213   9.967  16.387  0.00  0.00    +0.000 A 
BRANCH  17  24
ATOM     23  C   UNL     1      -3.408   9.972  13.861  0.00  0.00    +0.000 C 
ATOM     24  O   UNL     1      -4.134  10.501  14.967  0.00  0.00    +0.000 OA
ENDBRANCH  17  24
ENDBRANCH   1  20
BRANCH   1  25
ATOM     25  C   UNL     1       0.114  10.855  19.876  0.00  0.00    +0.000 C 
BRANCH  25  26
ATOM     26  C   UNL     1       0.487   9.589  20.635  0.00  0.00    +0.000 C 
ATOM     27  O   UNL     1       0.061   9.337  21.756  0.00  0.00    +0.000 OA
ATOM     28  N   UNL     1       1.389   8.762  19.952  0.00  0.00    +0.000 N 
ATOM     29  C   UNL     1       2.138   9.173  18.757  0.00  0.00    +0.000 C 
ATOM     30  C   UNL     1       2.134   8.075  17.709  0.00  0.00    +0.000 C 
ATOM     31  C   UNL     1       2.680   6.778  18.291  0.00  0.00    +0.000 C 
ATOM     32  C   UNL     1       1.919   6.384  19.557  0.00  0.00    +0.000 C 
ATOM     33  C   UNL     1       1.867   7.527  20.574  0.00  0.00    +0.000 C 
ENDBRANCH  25  26
ENDBRANCH   1  25
TORSDOF 7
ENDMDL
MODEL 7
REMARK VINA RESULT:      -6.9      2.250      6.481
REMARK  Name = 
REMARK  10 active torsions:
REMARK  status: ('A' for Active; 'I' for Inactive)
REMARK    1  A    between atoms: C_1  and  O_2
REMARK    2  A    between atoms: O_2  and  C_3
REMARK    3  A    between atoms: C_6  and  C_7
REMARK    4  A    between atoms: C_7  and  C_8
REMARK    5  A    between atoms: C_7  and  C_17
REMARK    6  A    between atoms: C_8  and  C_9
REMARK    7  A    between atoms: C_18  and  O_19
REMARK    8  A    between atoms: O_19  and  C_20
REMARK    9  A    between atoms: C_22  and  O_23
REMARK   10  A    between atoms: O_23  and  C_24
REMARK                            x       y       z     vdW  Elec       q    Type
REMARK                         _______ _______ _______ _____ _____    ______ ____
ROOT
ATOM      1  C   UNL     1      -0.020  11.360  18.356  0.00  0.00    +0.000 C 
ENDROOT
BRANCH   1   2
ATOM      2  C   UNL     1       0.501  10.193  19.251  0.00  0.00    +0.000 A 
ATOM      3  C   UNL     1       1.253   9.120  18.722  0.00  0.00    +0.000 A 
ATOM      4  C   UNL     1       1.745   8.088  19.550  0.00  0.00    +0.000 A 
ATOM      5  C   UNL     1       1.465   8.021  20.920  0.00  0.00    +0.000 A 
ATOM      6  C   UNL     1       0.691   9.034  21.477  0.00  0.00    +0.000 A 
ATOM      7  C   UNL     1       0.254   9.115  22.889  0.00  0.00    +0.000 A 
ATOM      8  C   UNL     1      -0.905   9.773  23.086  0.00  0.00    +0.000 A 
ATOM      9  C   UNL     1      -0.713  11.181  22.647  0.00  0.00    +0.000 A 
ATOM     10  O   UNL     1      -0.993  12.146  23.343  0.00  0.00    +0.000 OA
ATOM     11  O   UNL     1      -0.231  11.261  21.344  0.00  0.00    +0.000 OA
ATOM     12  C   UNL     1       0.293  10.123  20.651  0.00  0.00    +0.000 A 
BRANCH   3  13
ATOM     13  O   UNL     1       1.771   9.078  17.451  0.00  0.00    +0.000 OA
ATOM     14  C   UNL     1       2.870   8.197  17.243  0.00  0.00    +0.000 C 
ENDBRANCH   3  13
BRANCH   5  15
ATOM     15  O   UNL     1       1.982   6.910  21.525  0.00  0.00    +0.000 OA
ATOM     16  C   UNL     1       1.907   5.665  20.843  0.00  0.00    +0.000 C 
ENDBRANCH   5  15
ENDBRANCH   1   2
BRANCH   1  20
ATOM     17  C   UNL     1      -4.339  11.112  17.833  0.00  0.00    +0.000 A 
ATOM     18  C   UNL     1      -3.478  10.429  16.974  0.00  0.00    +0.000 A 
ATOM     19  C   UNL     1      -2.090  10.551  17.110  0.00  0.00    +0.000 A 
ATOM     20  C   UNL     1      -1.536  11.372  18.111  0.00  0.00    +0.000 A 
ATOM     21  C   UNL     1      -2.421  12.094  18.932  0.00  0.00    +0.000 A 
ATOM     22  C   UNL     1      -3.806  11.960  18.798  0.00  0.00    +0.000 A 
BRANCH  17  24
ATOM     23  C   UNL     1      -6.441  10.662  18.809  0.00  0.00    +0.000 C 
ATOM     24  O   UNL     1      -5.676  10.898  17.630  0.00  0.00    +0.000 OA
ENDBRANCH  17  24
ENDBRANCH   1  20
BRANCH   1  25
ATOM     25  C   UNL     1       0.521  12.697  18.894  0.00  0.00    +0.000 C 
BRANCH  25  26
ATOM     26  C   UNL     1       1.867  13.180  18.371  0.00  0.00    +0.000 C 
ATOM     27  O   UNL     1       2.726  12.416  17.944  0.00  0.00    +0.000 OA
ATOM     28  N   UNL     1       2.046  14.566  18.459  0.00  0.00    +0.000 N 
ATOM     29  C   UNL     1       1.172  15.461  19.229  0.00  0.00    +0.000 C 
ATOM     30  C   UNL     1       0.855  16.720  18.442  0.00  0.00    +0.000 C 
ATOM     31  C   UNL     1       2.138  17.423  18.018  0.00  0.00    +0.000 C 
ATOM     32  C   UNL     1       3.056  16.469  17.254  0.00  0.00    +0.000 C 
ATOM     33  C   UNL     1       3.307  15.172  18.027  0.00  0.00    +0.000 C 
ENDBRANCH  25  26
ENDBRANCH   1  25
TORSDOF 7
ENDMDL
MODEL 8
REMARK VINA RESULT:      -6.9      2.466      6.347
REMARK  Name = 
REMARK  10 active torsions:
REMARK  status: ('A' for Active; 'I' for Inactive)
REMARK    1  A    between atoms: C_1  and  O_2
REMARK    2  A    between atoms: O_2  and  C_3
REMARK    3  A    between atoms: C_6  and  C_7
REMARK    4  A    between atoms: C_7  and  C_8
REMARK    5  A    between atoms: C_7  and  C_17
REMARK    6  A    between atoms: C_8  and  C_9
REMARK    7  A    between atoms: C_18  and  O_19
REMARK    8  A    between atoms: O_19  and  C_20
REMARK    9  A    between atoms: C_22  and  O_23
REMARK   10  A    between atoms: O_23  and  C_24
REMARK                            x       y       z     vdW  Elec       q    Type
REMARK                         _______ _______ _______ _____ _____    ______ ____
ROOT
ATOM      1  C   UNL     1      -0.102  12.166  19.694  0.00  0.00    +0.000 C 
ENDROOT
BRANCH   1   2
ATOM      2  C   UNL     1      -1.656  12.277  19.783  0.00  0.00    +0.000 A 
ATOM      3  C   UNL     1      -2.307  12.809  20.920  0.00  0.00    +0.000 A 
ATOM      4  C   UNL     1      -3.712  12.933  20.973  0.00  0.00    +0.000 A 
ATOM      5  C   UNL     1      -4.549  12.478  19.947  0.00  0.00    +0.000 A 
ATOM      6  C   UNL     1      -3.954  11.908  18.825  0.00  0.00    +0.000 A 
ATOM      7  C   UNL     1      -4.668  11.331  17.664  0.00  0.00    +0.000 A 
ATOM      8  C   UNL     1      -4.005  10.350  17.022  0.00  0.00    +0.000 A 
ATOM      9  C   UNL     1      -2.749  10.927  16.473  0.00  0.00    +0.000 A 
ATOM     10  O   UNL     1      -2.407  10.803  15.305  0.00  0.00    +0.000 OA
ATOM     11  O   UNL     1      -1.998  11.571  17.451  0.00  0.00    +0.000 OA
ATOM     12  C   UNL     1      -2.534  11.888  18.741  0.00  0.00    +0.000 A 
BRANCH   3  13
ATOM     13  O   UNL     1      -1.675  13.455  21.954  0.00  0.00    +0.000 OA
ATOM     14  C   UNL     1      -1.380  12.671  23.105  0.00  0.00    +0.000 C 
ENDBRANCH   3  13
BRANCH   5  15
ATOM     15  O   UNL     1      -5.879  12.634  20.222  0.00  0.00    +0.000 OA
ATOM     16  C   UNL     1      -6.467  13.915  20.040  0.00  0.00    +0.000 C 
ENDBRANCH   5  15
ENDBRANCH   1   2
BRANCH   1  20
ATOM     17  C   UNL     1       1.769   8.232  19.640  0.00  0.00    +0.000 A 
ATOM     18  C   UNL     1       1.747   9.025  18.493  0.00  0.00    +0.000 A 
ATOM     19  C   UNL     1       1.101  10.267  18.497  0.00  0.00    +0.000 A 
ATOM     20  C   UNL     1       0.451  10.735  19.655  0.00  0.00    +0.000 A 
ATOM     21  C   UNL     1       0.438   9.896  20.784  0.00  0.00    +0.000 A 
ATOM     22  C   UNL     1       1.095   8.663  20.778  0.00  0.00    +0.000 A 
BRANCH  17  24
ATOM     23  C   UNL     1       2.657   6.581  18.205  0.00  0.00    +0.000 C 
ATOM     24  O   UNL     1       2.454   7.052  19.534  0.00  0.00    +0.000 OA
ENDBRANCH  17  24
ENDBRANCH   1  20
BRANCH   1  25
ATOM     25  C   UNL     1       0.407  13.049  18.541  0.00  0.00    +0.000 C 
BRANCH  25  26
ATOM     26  C   UNL     1       0.452  14.554  18.766  0.00  0.00    +0.000 C 
ATOM     27  O   UNL     1      -0.551  15.222  18.993  0.00  0.00    +0.000 OA
ATOM     28  N   UNL     1       1.734  15.108  18.649  0.00  0.00    +0.000 N 
ATOM     29  C   UNL     1       2.890  14.394  18.090  0.00  0.00    +0.000 C 
ATOM     30  C   UNL     1       4.130  14.625  18.934  0.00  0.00    +0.000 C 
ATOM     31  C   UNL     1       4.411  16.116  19.076  0.00  0.00    +0.000 C 
ATOM     32  C   UNL     1       3.186  16.852  19.619  0.00  0.00    +0.000 C 
ATOM     33  C   UNL     1       1.926  16.550  18.803  0.00  0.00    +0.000 C 
ENDBRANCH  25  26
ENDBRANCH   1  25
TORSDOF 7
ENDMDL
MODEL 9
REMARK VINA RESULT:      -6.8      2.409      6.695
REMARK  Name = 
REMARK  10 active torsions:
REMARK  status: ('A' for Active; 'I' for Inactive)
REMARK    1  A    between atoms: C_1  and  O_2
REMARK    2  A    between atoms: O_2  and  C_3
REMARK    3  A    between atoms: C_6  and  C_7
REMARK    4  A    between atoms: C_7  and  C_8
REMARK    5  A    between atoms: C_7  and  C_17
REMARK    6  A    between atoms: C_8  and  C_9
REMARK    7  A    between atoms: C_18  and  O_19
REMARK    8  A    between atoms: O_19  and  C_20
REMARK    9  A    between atoms: C_22  and  O_23
REMARK   10  A    between atoms: O_23  and  C_24
REMARK                            x       y       z     vdW  Elec       q    Type
REMARK                         _______ _______ _______ _____ _____    ______ ____
ROOT
ATOM      1  C   UNL     1       0.488  11.777  19.249  0.00  0.00    +0.000 C 
ENDROOT
BRANCH   1   2
ATOM      2  C   UNL     1      -1.060  11.923  19.382  0.00  0.00    +0.000 A 
ATOM      3  C   UNL     1      -1.946  11.461  18.383  0.00  0.00    +0.000 A 
ATOM      4  C   UNL     1      -3.345  11.572  18.532  0.00  0.00    +0.000 A 
ATOM      5  C   UNL     1      -3.939  12.202  19.633  0.00  0.00    +0.000 A 
ATOM      6  C   UNL     1      -3.104  12.710  20.622  0.00  0.00    +0.000 A 
ATOM      7  C   UNL     1      -3.539  13.444  21.832  0.00  0.00    +0.000 A 
ATOM      8  C   UNL     1      -2.642  14.327  22.311  0.00  0.00    +0.000 A 
ATOM      9  C   UNL     1      -1.427  13.571  22.718  0.00  0.00    +0.000 A 
ATOM     10  O   UNL     1      -0.902  13.683  23.817  0.00  0.00    +0.000 OA
ATOM     11  O   UNL     1      -0.939  12.771  21.689  0.00  0.00    +0.000 OA
ATOM     12  C   UNL     1      -1.701  12.496  20.509  0.00  0.00    +0.000 A 
BRANCH   3  13
ATOM     13  O   UNL     1      -1.583  10.678  17.316  0.00  0.00    +0.000 OA
ATOM     14  C   UNL     1      -2.633   9.979  16.656  0.00  0.00    +0.000 C 
ENDBRANCH   3  13
BRANCH   5  15
ATOM     15  O   UNL     1      -5.303  12.259  19.553  0.00  0.00    +0.000 OA
ATOM     16  C   UNL     1      -5.974  11.351  18.689  0.00  0.00    +0.000 C 
ENDBRANCH   5  15
ENDBRANCH   1   2
BRANCH   1  20
ATOM     17  C   UNL     1       2.237   7.806  18.851  0.00  0.00    +0.000 A 
ATOM     18  C   UNL     1       2.296   8.718  17.798  0.00  0.00    +0.000 A 
ATOM     19  C   UNL     1       1.689   9.975  17.908  0.00  0.00    +0.000 A 
ATOM     20  C   UNL     1       0.998  10.339  19.080  0.00  0.00    +0.000 A 
ATOM     21  C   UNL     1       0.904   9.385  20.109  0.00  0.00    +0.000 A 
ATOM     22  C   UNL     1       1.521   8.136  19.998  0.00  0.00    +0.000 A 
BRANCH  17  24
ATOM     23  C   UNL     1       2.945   5.755  19.781  0.00  0.00    +0.000 C 
ATOM     24  O   UNL     1       2.890   6.620  18.650  0.00  0.00    +0.000 OA
ENDBRANCH  17  24
ENDBRANCH   1  20
BRANCH   1  25
ATOM     25  C   UNL     1       0.999  12.738  18.161  0.00  0.00    +0.000 C 
BRANCH  25  26
ATOM     26  C   UNL     1       2.020  13.792  18.567  0.00  0.00    +0.000 C 
ATOM     27  O   UNL     1       3.215  13.548  18.686  0.00  0.00    +0.000 OA
ATOM     28  N   UNL     1       1.463  15.050  18.831  0.00  0.00    +0.000 N 
ATOM     29  C   UNL     1       0.023  15.295  18.987  0.00  0.00    +0.000 C 
ATOM     30  C   UNL     1      -0.398  16.551  18.245  0.00  0.00    +0.000 C 
ATOM     31  C   UNL     1       0.424  17.747  18.708  0.00  0.00    +0.000 C 
ATOM     32  C   UNL     1       1.921  17.463  18.579  0.00  0.00    +0.000 C 
ATOM     33  C   UNL     1       2.318  16.154  19.267  0.00  0.00    +0.000 C 
ENDBRANCH  25  26
ENDBRANCH   1  25
TORSDOF 7
ENDMDL
