MODEL 1
REMARK VINA RESULT:      -7.9      0.000      0.000
REMARK  Name = 
REMARK  6 active torsions:
REMARK  status: ('A' for Active; 'I' for Inactive)
REMARK    1  A    between atoms: C_1  and  C_2
REMARK    2  A    between atoms: C_4  and  C_5
REMARK    3  A    between atoms: C_8  and  S_9
REMARK    4  A    between atoms: S_9  and  N_12
REMARK    5  A    between atoms: C_15  and  C_16
REMARK    6  A    between atoms: C_22  and  C_23
REMARK                            x       y       z     vdW  Elec       q    Type
REMARK                         _______ _______ _______ _____ _____    ______ ____
ROOT
ATOM      1  S   UNL     1       7.174   5.589  16.487  0.00  0.00    +0.000 S 
ATOM      2  O   UNL     1       7.645   5.913  15.153  0.00  0.00    +0.000 OA
ATOM      3  O   UNL     1       7.601   4.392  17.175  0.00  0.00    +0.000 OA
ENDROOT
BRANCH   1   4
ATOM      4  N   UNL     1       5.448   5.647  16.480  0.00  0.00    +0.000 NA
ATOM      5  C   UNL     1       4.827   4.338  16.802  0.00  0.00    +0.000 C 
ATOM      6  C   UNL     1       3.307   4.414  16.783  0.00  0.00    +0.000 C 
ATOM      7  C   UNL     1       2.772   5.505  17.706  0.00  0.00    +0.000 C 
ATOM      8  C   UNL     1       3.381   6.836  17.260  0.00  0.00    +0.000 C 
ATOM      9  C   UNL     1       4.906   6.825  17.211  0.00  0.00    +0.000 C 
BRANCH   7  10
ATOM     10  C   UNL     1       3.021   5.276  19.210  0.00  0.00    +0.000 C 
ATOM     11  O   UNL     1       4.038   5.698  19.748  0.00  0.00    +0.000 OA
ATOM     12  N   UNL     1       2.032   4.634  19.944  0.00  0.00    +0.000 N 
ATOM     13  C   UNL     1       2.083   4.707  21.408  0.00  0.00    +0.000 C 
ATOM     14  C   UNL     1       2.299   3.329  22.017  0.00  0.00    +0.000 C 
ATOM     15  C   UNL     1       1.240   2.350  21.510  0.00  0.00    +0.000 C 
ATOM     16  C   UNL     1       1.179   2.308  19.976  0.00  0.00    +0.000 C 
ATOM     17  C   UNL     1       2.407   1.597  19.391  0.00  0.00    +0.000 C 
ATOM     18  C   UNL     1       1.027   3.725  19.394  0.00  0.00    +0.000 C 
ENDBRANCH   7  10
ENDBRANCH   1   4
BRANCH   1  22
ATOM     19  C   UNL     1       8.405   9.032  18.006  0.00  0.00    +0.000 A 
ATOM     20  C   UNL     1       8.648   8.258  19.121  0.00  0.00    +0.000 A 
ATOM     21  C   UNL     1       8.235   6.951  18.815  0.00  0.00    +0.000 A 
ATOM     22  C   UNL     1       7.762   6.953  17.511  0.00  0.00    +0.000 A 
ATOM     23  O   UNL     1       7.843   8.250  17.032  0.00  0.00    +0.000 OA
BRANCH  19  27
ATOM     24  C   UNL     1      10.403  13.640  18.093  0.00  0.00    +0.000 C 
ATOM     25  C   UNL     1       9.520  12.468  17.890  0.00  0.00    +0.000 A 
ATOM     26  C   UNL     1       9.823  11.121  18.159  0.00  0.00    +0.000 A 
ATOM     27  C   UNL     1       8.676  10.421  17.865  0.00  0.00    +0.000 A 
ATOM     28  N   UNL     1       7.789  11.350  17.402  0.00  0.00    +0.000 N 
ATOM     29  N   UNL     1       8.273  12.611  17.417  0.00  0.00    +0.000 NA
ATOM     30  H   UNL     1       6.840  11.196  17.085  0.00  0.00    +0.000 HD
ENDBRANCH  19  27
ENDBRANCH   1  22
TORSDOF 4
ENDMDL
MODEL 2
REMARK VINA RESULT:      -7.4      7.758      9.921
REMARK  Name = 
REMARK  6 active torsions:
REMARK  status: ('A' for Active; 'I' for Inactive)
REMARK    1  A    between atoms: C_1  and  C_2
REMARK    2  A    between atoms: C_4  and  C_5
REMARK    3  A    between atoms: C_8  and  S_9
REMARK    4  A    between atoms: S_9  and  N_12
REMARK    5  A    between atoms: C_15  and  C_16
REMARK    6  A    between atoms: C_22  and  C_23
REMARK                            x       y       z     vdW  Elec       q    Type
REMARK                         _______ _______ _______ _____ _____    ______ ____
ROOT
ATOM      1  S   UNL     1       0.345   9.884  21.415  0.00  0.00    +0.000 S 
ATOM      2  O   UNL     1      -0.757   8.963  21.630  0.00  0.00    +0.000 OA
ATOM      3  O   UNL     1       1.431  10.004  22.361  0.00  0.00    +0.000 OA
ENDROOT
BRANCH   1   4
ATOM      4  N   UNL     1      -0.311  11.452  21.112  0.00  0.00    +0.000 NA
ATOM      5  C   UNL     1      -1.387  11.438  20.090  0.00  0.00    +0.000 C 
ATOM      6  C   UNL     1      -1.944  12.832  19.837  0.00  0.00    +0.000 C 
ATOM      7  C   UNL     1      -2.430  13.501  21.120  0.00  0.00    +0.000 C 
ATOM      8  C   UNL     1      -1.248  13.564  22.092  0.00  0.00    +0.000 C 
ATOM      9  C   UNL     1      -0.606  12.206  22.362  0.00  0.00    +0.000 C 
BRANCH   7  10
ATOM     10  C   UNL     1      -3.644  12.832  21.793  0.00  0.00    +0.000 C 
ATOM     11  O   UNL     1      -3.495  12.065  22.737  0.00  0.00    +0.000 OA
ATOM     12  N   UNL     1      -4.911  13.174  21.337  0.00  0.00    +0.000 N 
ATOM     13  C   UNL     1      -6.073  12.830  22.164  0.00  0.00    +0.000 C 
ATOM     14  C   UNL     1      -6.971  11.827  21.454  0.00  0.00    +0.000 C 
ATOM     15  C   UNL     1      -7.362  12.346  20.071  0.00  0.00    +0.000 C 
ATOM     16  C   UNL     1      -6.136  12.730  19.230  0.00  0.00    +0.000 C 
ATOM     17  C   UNL     1      -5.369  11.484  18.767  0.00  0.00    +0.000 C 
ATOM     18  C   UNL     1      -5.219  13.694  20.005  0.00  0.00    +0.000 C 
ENDBRANCH   7  10
ENDBRANCH   1   4
BRANCH   1  22
ATOM     19  C   UNL     1       2.276   7.957  18.546  0.00  0.00    +0.000 A 
ATOM     20  C   UNL     1       2.016   9.108  17.833  0.00  0.00    +0.000 A 
ATOM     21  C   UNL     1       1.277   9.957  18.672  0.00  0.00    +0.000 A 
ATOM     22  C   UNL     1       1.114   9.309  19.888  0.00  0.00    +0.000 A 
ATOM     23  O   UNL     1       1.709   8.062  19.788  0.00  0.00    +0.000 OA
BRANCH  19  27
ATOM     24  C   UNL     1       3.853   3.349  17.314  0.00  0.00    +0.000 C 
ATOM     25  C   UNL     1       3.739   4.809  17.538  0.00  0.00    +0.000 A 
ATOM     26  C   UNL     1       2.604   5.513  17.981  0.00  0.00    +0.000 A 
ATOM     27  C   UNL     1       3.005   6.824  18.088  0.00  0.00    +0.000 A 
ATOM     28  N   UNL     1       4.304   6.846  17.668  0.00  0.00    +0.000 N 
ATOM     29  N   UNL     1       4.783   5.627  17.336  0.00  0.00    +0.000 NA
ATOM     30  H   UNL     1       4.922   7.646  17.606  0.00  0.00    +0.000 HD
ENDBRANCH  19  27
ENDBRANCH   1  22
TORSDOF 4
ENDMDL
MODEL 3
REMARK VINA RESULT:      -7.4      7.220      9.381
REMARK  Name = 
REMARK  6 active torsions:
REMARK  status: ('A' for Active; 'I' for Inactive)
REMARK    1  A    between atoms: C_1  and  C_2
REMARK    2  A    between atoms: C_4  and  C_5
REMARK    3  A    between atoms: C_8  and  S_9
REMARK    4  A    between atoms: S_9  and  N_12
REMARK    5  A    between atoms: C_15  and  C_16
REMARK    6  A    between atoms: C_22  and  C_23
REMARK                            x       y       z     vdW  Elec       q    Type
REMARK                         _______ _______ _______ _____ _____    ______ ____
ROOT
ATOM      1  S   UNL     1       1.029  10.171  18.641  0.00  0.00    +0.000 S 
ATOM      2  O   UNL     1       2.010  10.997  17.961  0.00  0.00    +0.000 OA
ATOM      3  O   UNL     1      -0.242   9.845  18.036  0.00  0.00    +0.000 OA
ENDROOT
BRANCH   1   4
ATOM      4  N   UNL     1       0.749  10.843  20.207  0.00  0.00    +0.000 NA
ATOM      5  C   UNL     1       0.726  12.327  20.201  0.00  0.00    +0.000 C 
ATOM      6  C   UNL     1       0.484  12.894  21.592  0.00  0.00    +0.000 C 
ATOM      7  C   UNL     1      -0.788  12.340  22.228  0.00  0.00    +0.000 C 
ATOM      8  C   UNL     1      -0.656  10.816  22.286  0.00  0.00    +0.000 C 
ATOM      9  C   UNL     1      -0.367  10.175  20.931  0.00  0.00    +0.000 C 
BRANCH   7  10
ATOM     10  C   UNL     1      -2.102  12.740  21.531  0.00  0.00    +0.000 C 
ATOM     11  O   UNL     1      -2.098  13.173  20.384  0.00  0.00    +0.000 OA
ATOM     12  N   UNL     1      -3.292  12.537  22.219  0.00  0.00    +0.000 N 
ATOM     13  C   UNL     1      -4.553  12.581  21.471  0.00  0.00    +0.000 C 
ATOM     14  C   UNL     1      -5.423  13.741  21.935  0.00  0.00    +0.000 C 
ATOM     15  C   UNL     1      -5.634  13.677  23.448  0.00  0.00    +0.000 C 
ATOM     16  C   UNL     1      -4.305  13.600  24.214  0.00  0.00    +0.000 C 
ATOM     17  C   UNL     1      -3.562  14.942  24.171  0.00  0.00    +0.000 C 
ATOM     18  C   UNL     1      -3.425  12.458  23.673  0.00  0.00    +0.000 C 
ENDBRANCH   7  10
ENDBRANCH   1   4
BRANCH   1  22
ATOM     19  C   UNL     1       3.029   6.771  18.303  0.00  0.00    +0.000 A 
ATOM     20  C   UNL     1       2.599   6.587  19.600  0.00  0.00    +0.000 A 
ATOM     21  C   UNL     1       1.871   7.732  19.961  0.00  0.00    +0.000 A 
ATOM     22  C   UNL     1       1.860   8.586  18.868  0.00  0.00    +0.000 A 
ATOM     23  O   UNL     1       2.605   7.995  17.860  0.00  0.00    +0.000 OA
BRANCH  19  27
ATOM     24  C   UNL     1       6.194   4.578  15.076  0.00  0.00    +0.000 C 
ATOM     25  C   UNL     1       5.174   4.853  16.115  0.00  0.00    +0.000 A 
ATOM     26  C   UNL     1       4.822   6.108  16.646  0.00  0.00    +0.000 A 
ATOM     27  C   UNL     1       3.797   5.857  17.529  0.00  0.00    +0.000 A 
ATOM     28  N   UNL     1       3.628   4.503  17.519  0.00  0.00    +0.000 N 
ATOM     29  N   UNL     1       4.448   3.864  16.655  0.00  0.00    +0.000 NA
ATOM     30  H   UNL     1       2.962   3.957  18.053  0.00  0.00    +0.000 HD
ENDBRANCH  19  27
ENDBRANCH   1  22
TORSDOF 4
ENDMDL
MODEL 4
REMARK VINA RESULT:      -7.4      7.493     10.019
REMARK  Name = 
REMARK  6 active torsions:
REMARK  status: ('A' for Active; 'I' for Inactive)
REMARK    1  A    between atoms: C_1  and  C_2
REMARK    2  A    between atoms: C_4  and  C_5
REMARK    3  A    between atoms: C_8  and  S_9
REMARK    4  A    between atoms: S_9  and  N_12
REMARK    5  A    between atoms: C_15  and  C_16
REMARK    6  A    between atoms: C_22  and  C_23
REMARK                            x       y       z     vdW  Elec       q    Type
REMARK                         _______ _______ _______ _____ _____    ______ ____
ROOT
ATOM      1  S   UNL     1       0.660   9.420  21.310  0.00  0.00    +0.000 S 
ATOM      2  O   UNL     1      -0.479   8.609  21.703  0.00  0.00    +0.000 OA
ATOM      3  O   UNL     1       1.713   9.753  22.242  0.00  0.00    +0.000 OA
ENDROOT
BRANCH   1   4
ATOM      4  N   UNL     1       0.067  10.873  20.590  0.00  0.00    +0.000 NA
ATOM      5  C   UNL     1      -1.232  11.309  21.159  0.00  0.00    +0.000 C 
ATOM      6  C   UNL     1      -1.735  12.587  20.504  0.00  0.00    +0.000 C 
ATOM      7  C   UNL     1      -0.710  13.715  20.577  0.00  0.00    +0.000 C 
ATOM      8  C   UNL     1       0.570  13.230  19.891  0.00  0.00    +0.000 C 
ATOM      9  C   UNL     1       1.113  11.925  20.466  0.00  0.00    +0.000 C 
BRANCH   7  10
ATOM     10  C   UNL     1      -0.398  14.233  21.994  0.00  0.00    +0.000 C 
ATOM     11  O   UNL     1       0.702  14.050  22.501  0.00  0.00    +0.000 OA
ATOM     12  N   UNL     1      -1.381  14.963  22.652  0.00  0.00    +0.000 N 
ATOM     13  C   UNL     1      -1.002  15.747  23.832  0.00  0.00    +0.000 C 
ATOM     14  C   UNL     1      -1.695  15.222  25.082  0.00  0.00    +0.000 C 
ATOM     15  C   UNL     1      -3.208  15.164  24.869  0.00  0.00    +0.000 C 
ATOM     16  C   UNL     1      -3.585  14.366  23.613  0.00  0.00    +0.000 C 
ATOM     17  C   UNL     1      -3.354  12.863  23.821  0.00  0.00    +0.000 C 
ATOM     18  C   UNL     1      -2.816  14.883  22.383  0.00  0.00    +0.000 C 
ENDBRANCH   7  10
ENDBRANCH   1   4
BRANCH   1  22
ATOM     19  C   UNL     1       2.539   6.731  19.093  0.00  0.00    +0.000 A 
ATOM     20  C   UNL     1       2.498   7.733  18.147  0.00  0.00    +0.000 A 
ATOM     21  C   UNL     1       1.815   8.816  18.722  0.00  0.00    +0.000 A 
ATOM     22  C   UNL     1       1.466   8.457  20.016  0.00  0.00    +0.000 A 
ATOM     23  O   UNL     1       1.892   7.156  20.223  0.00  0.00    +0.000 OA
BRANCH  19  27
ATOM     24  C   UNL     1       3.539   1.888  18.207  0.00  0.00    +0.000 C 
ATOM     25  C   UNL     1       3.621   3.321  18.574  0.00  0.00    +0.000 A 
ATOM     26  C   UNL     1       2.621   4.298  18.406  0.00  0.00    +0.000 A 
ATOM     27  C   UNL     1       3.142   5.451  18.945  0.00  0.00    +0.000 A 
ATOM     28  N   UNL     1       4.406   5.129  19.349  0.00  0.00    +0.000 N 
ATOM     29  N   UNL     1       4.722   3.832  19.145  0.00  0.00    +0.000 NA
ATOM     30  H   UNL     1       5.090   5.734  19.788  0.00  0.00    +0.000 HD
ENDBRANCH  19  27
ENDBRANCH   1  22
TORSDOF 4
ENDMDL
MODEL 5
REMARK VINA RESULT:      -7.3      4.801      7.276
REMARK  Name = 
REMARK  6 active torsions:
REMARK  status: ('A' for Active; 'I' for Inactive)
REMARK    1  A    between atoms: C_1  and  C_2
REMARK    2  A    between atoms: C_4  and  C_5
REMARK    3  A    between atoms: C_8  and  S_9
REMARK    4  A    between atoms: S_9  and  N_12
REMARK    5  A    between atoms: C_15  and  C_16
REMARK    6  A    between atoms: C_22  and  C_23
REMARK                            x       y       z     vdW  Elec       q    Type
REMARK                         _______ _______ _______ _____ _____    ______ ____
ROOT
ATOM      1  S   UNL     1       2.502   5.569  18.945  0.00  0.00    +0.000 S 
ATOM      2  O   UNL     1       1.571   5.307  17.862  0.00  0.00    +0.000 OA
ATOM      3  O   UNL     1       2.442   4.842  20.192  0.00  0.00    +0.000 OA
ENDROOT
BRANCH   1   4
ATOM      4  N   UNL     1       2.477   7.263  19.281  0.00  0.00    +0.000 NA
ATOM      5  C   UNL     1       2.610   8.094  18.059  0.00  0.00    +0.000 C 
ATOM      6  C   UNL     1       2.591   9.581  18.382  0.00  0.00    +0.000 C 
ATOM      7  C   UNL     1       1.352   9.984  19.176  0.00  0.00    +0.000 C 
ATOM      8  C   UNL     1       1.329   9.155  20.462  0.00  0.00    +0.000 C 
ATOM      9  C   UNL     1       1.390   7.649  20.221  0.00  0.00    +0.000 C 
BRANCH   7  10
ATOM     10  C   UNL     1       0.014   9.846  18.423  0.00  0.00    +0.000 C 
ATOM     11  O   UNL     1      -0.037   9.298  17.328  0.00  0.00    +0.000 OA
ATOM     12  N   UNL     1      -1.137  10.304  19.052  0.00  0.00    +0.000 N 
ATOM     13  C   UNL     1      -2.440   9.884  18.526  0.00  0.00    +0.000 C 
ATOM     14  C   UNL     1      -3.226  11.076  17.998  0.00  0.00    +0.000 C 
ATOM     15  C   UNL     1      -3.342  12.158  19.072  0.00  0.00    +0.000 C 
ATOM     16  C   UNL     1      -1.971  12.564  19.633  0.00  0.00    +0.000 C 
ATOM     17  C   UNL     1      -1.173  13.382  18.609  0.00  0.00    +0.000 C 
ATOM     18  C   UNL     1      -1.180  11.327  20.096  0.00  0.00    +0.000 C 
ENDBRANCH   7  10
ENDBRANCH   1   4
BRANCH   1  22
ATOM     19  C   UNL     1       5.663   4.865  16.669  0.00  0.00    +0.000 A 
ATOM     20  C   UNL     1       6.216   4.449  17.861  0.00  0.00    +0.000 A 
ATOM     21  C   UNL     1       5.249   4.650  18.858  0.00  0.00    +0.000 A 
ATOM     22  C   UNL     1       4.118   5.173  18.249  0.00  0.00    +0.000 A 
ATOM     23  O   UNL     1       4.397   5.330  16.901  0.00  0.00    +0.000 OA
BRANCH  19  27
ATOM     24  C   UNL     1       7.049   3.868  11.944  0.00  0.00    +0.000 C 
ATOM     25  C   UNL     1       6.933   4.421  13.314  0.00  0.00    +0.000 A 
ATOM     26  C   UNL     1       5.936   4.130  14.264  0.00  0.00    +0.000 A 
ATOM     27  C   UNL     1       6.288   4.836  15.391  0.00  0.00    +0.000 A 
ATOM     28  N   UNL     1       7.412   5.532  15.052  0.00  0.00    +0.000 N 
ATOM     29  N   UNL     1       7.836   5.289  13.792  0.00  0.00    +0.000 NA
ATOM     30  H   UNL     1       7.949   6.164  15.633  0.00  0.00    +0.000 HD
ENDBRANCH  19  27
ENDBRANCH   1  22
TORSDOF 4
ENDMDL
MODEL 6
REMARK VINA RESULT:      -7.2      9.112     11.390
REMARK  Name = 
REMARK  6 active torsions:
REMARK  status: ('A' for Active; 'I' for Inactive)
REMARK    1  A    between atoms: C_1  and  C_2
REMARK    2  A    between atoms: C_4  and  C_5
REMARK    3  A    between atoms: C_8  and  S_9
REMARK    4  A    between atoms: S_9  and  N_12
REMARK    5  A    between atoms: C_15  and  C_16
REMARK    6  A    between atoms: C_22  and  C_23
REMARK                            x       y       z     vdW  Elec       q    Type
REMARK                         _______ _______ _______ _____ _____    ______ ____
ROOT
ATOM      1  S   UNL     1       0.263   9.830  22.098  0.00  0.00    +0.000 S 
ATOM      2  O   UNL     1      -0.675   8.777  22.446  0.00  0.00    +0.000 OA
ATOM      3  O   UNL     1       1.665   9.740  22.434  0.00  0.00    +0.000 OA
ENDROOT
BRANCH   1   4
ATOM      4  N   UNL     1      -0.361  11.327  22.690  0.00  0.00    +0.000 NA
ATOM      5  C   UNL     1      -0.059  12.471  21.794  0.00  0.00    +0.000 C 
ATOM      6  C   UNL     1      -0.614  13.779  22.340  0.00  0.00    +0.000 C 
ATOM      7  C   UNL     1      -2.111  13.697  22.623  0.00  0.00    +0.000 C 
ATOM      8  C   UNL     1      -2.337  12.560  23.622  0.00  0.00    +0.000 C 
ATOM      9  C   UNL     1      -1.768  11.220  23.163  0.00  0.00    +0.000 C 
BRANCH   7  10
ATOM     10  C   UNL     1      -3.007  13.510  21.384  0.00  0.00    +0.000 C 
ATOM     11  O   UNL     1      -2.517  13.386  20.267  0.00  0.00    +0.000 OA
ATOM     12  N   UNL     1      -4.380  13.425  21.580  0.00  0.00    +0.000 N 
ATOM     13  C   UNL     1      -5.216  12.912  20.489  0.00  0.00    +0.000 C 
ATOM     14  C   UNL     1      -6.170  13.985  19.981  0.00  0.00    +0.000 C 
ATOM     15  C   UNL     1      -6.991  14.559  21.136  0.00  0.00    +0.000 C 
ATOM     16  C   UNL     1      -6.101  15.063  22.282  0.00  0.00    +0.000 C 
ATOM     17  C   UNL     1      -5.373  16.356  21.891  0.00  0.00    +0.000 C 
ATOM     18  C   UNL     1      -5.107  13.974  22.724  0.00  0.00    +0.000 C 
ENDBRANCH   7  10
ENDBRANCH   1   4
BRANCH   1  22
ATOM     19  C   UNL     1      -0.673  10.140  18.264  0.00  0.00    +0.000 A 
ATOM     20  C   UNL     1       0.621   9.701  18.088  0.00  0.00    +0.000 A 
ATOM     21  C   UNL     1       1.185   9.553  19.365  0.00  0.00    +0.000 A 
ATOM     22  C   UNL     1       0.215   9.892  20.296  0.00  0.00    +0.000 A 
ATOM     23  O   UNL     1      -0.919  10.282  19.603  0.00  0.00    +0.000 OA
BRANCH  19  27
ATOM     24  C   UNL     1      -3.765   9.960  14.308  0.00  0.00    +0.000 C 
ATOM     25  C   UNL     1      -2.989  10.380  15.498  0.00  0.00    +0.000 A 
ATOM     26  C   UNL     1      -2.164   9.569  16.302  0.00  0.00    +0.000 A 
ATOM     27  C   UNL     1      -1.620  10.417  17.239  0.00  0.00    +0.000 A 
ATOM     28  N   UNL     1      -2.169  11.641  16.988  0.00  0.00    +0.000 N 
ATOM     29  N   UNL     1      -3.000  11.651  15.923  0.00  0.00    +0.000 NA
ATOM     30  H   UNL     1      -2.003  12.508  17.485  0.00  0.00    +0.000 HD
ENDBRANCH  19  27
ENDBRANCH   1  22
TORSDOF 4
ENDMDL
MODEL 7
REMARK VINA RESULT:      -7.2      6.880      9.696
REMARK  Name = 
REMARK  6 active torsions:
REMARK  status: ('A' for Active; 'I' for Inactive)
REMARK    1  A    between atoms: C_1  and  C_2
REMARK    2  A    between atoms: C_4  and  C_5
REMARK    3  A    between atoms: C_8  and  S_9
REMARK    4  A    between atoms: S_9  and  N_12
REMARK    5  A    between atoms: C_15  and  C_16
REMARK    6  A    between atoms: C_22  and  C_23
REMARK                            x       y       z     vdW  Elec       q    Type
REMARK                         _______ _______ _______ _____ _____    ______ ____
ROOT
ATOM      1  S   UNL     1       0.591   9.333  21.598  0.00  0.00    +0.000 S 
ATOM      2  O   UNL     1      -0.618   8.651  22.025  0.00  0.00    +0.000 OA
ATOM      3  O   UNL     1       1.622   9.713  22.536  0.00  0.00    +0.000 OA
ENDROOT
BRANCH   1   4
ATOM      4  N   UNL     1       0.132  10.720  20.677  0.00  0.00    +0.000 NA
ATOM      5  C   UNL     1      -0.811  10.394  19.578  0.00  0.00    +0.000 C 
ATOM      6  C   UNL     1      -1.195  11.631  18.778  0.00  0.00    +0.000 C 
ATOM      7  C   UNL     1      -1.761  12.738  19.663  0.00  0.00    +0.000 C 
ATOM      8  C   UNL     1      -0.703  13.085  20.713  0.00  0.00    +0.000 C 
ATOM      9  C   UNL     1      -0.233  11.884  21.529  0.00  0.00    +0.000 C 
BRANCH   7  10
ATOM     10  C   UNL     1      -3.107  12.416  20.342  0.00  0.00    +0.000 C 
ATOM     11  O   UNL     1      -3.169  12.216  21.549  0.00  0.00    +0.000 OA
ATOM     12  N   UNL     1      -4.251  12.420  19.553  0.00  0.00    +0.000 N 
ATOM     13  C   UNL     1      -5.560  12.459  20.215  0.00  0.00    +0.000 C 
ATOM     14  C   UNL     1      -6.350  11.188  19.936  0.00  0.00    +0.000 C 
ATOM     15  C   UNL     1      -6.454  10.944  18.430  0.00  0.00    +0.000 C 
ATOM     16  C   UNL     1      -5.078  10.937  17.750  0.00  0.00    +0.000 C 
ATOM     17  C   UNL     1      -4.290   9.669  18.104  0.00  0.00    +0.000 C 
ATOM     18  C   UNL     1      -4.282  12.206  18.107  0.00  0.00    +0.000 C 
ENDBRANCH   7  10
ENDBRANCH   1   4
BRANCH   1  22
ATOM     19  C   UNL     1       2.228   6.223  19.775  0.00  0.00    +0.000 A 
ATOM     20  C   UNL     1       2.538   7.164  18.817  0.00  0.00    +0.000 A 
ATOM     21  C   UNL     1       2.001   8.387  19.250  0.00  0.00    +0.000 A 
ATOM     22  C   UNL     1       1.386   8.168  20.474  0.00  0.00    +0.000 A 
ATOM     23  O   UNL     1       1.506   6.821  20.773  0.00  0.00    +0.000 OA
BRANCH  19  27
ATOM     24  C   UNL     1       3.497   1.538  18.481  0.00  0.00    +0.000 C 
ATOM     25  C   UNL     1       3.133   2.767  19.223  0.00  0.00    +0.000 A 
ATOM     26  C   UNL     1       2.974   4.062  18.693  0.00  0.00    +0.000 A 
ATOM     27  C   UNL     1       2.580   4.845  19.753  0.00  0.00    +0.000 A 
ATOM     28  N   UNL     1       2.573   4.017  20.838  0.00  0.00    +0.000 N 
ATOM     29  N   UNL     1       2.895   2.739  20.542  0.00  0.00    +0.000 NA
ATOM     30  H   UNL     1       2.337   4.251  21.795  0.00  0.00    +0.000 HD
ENDBRANCH  19  27
ENDBRANCH   1  22
TORSDOF 4
ENDMDL
MODEL 8
REMARK VINA RESULT:      -7.2      6.863      9.648
REMARK  Name = 
REMARK  6 active torsions:
REMARK  status: ('A' for Active; 'I' for Inactive)
REMARK    1  A    between atoms: C_1  and  C_2
REMARK    2  A    between atoms: C_4  and  C_5
REMARK    3  A    between atoms: C_8  and  S_9
REMARK    4  A    between atoms: S_9  and  N_12
REMARK    5  A    between atoms: C_15  and  C_16
REMARK    6  A    between atoms: C_22  and  C_23
REMARK                            x       y       z     vdW  Elec       q    Type
REMARK                         _______ _______ _______ _____ _____    ______ ____
ROOT
ATOM      1  S   UNL     1       1.226   9.928  18.196  0.00  0.00    +0.000 S 
ATOM      2  O   UNL     1       2.154  10.856  17.574  0.00  0.00    +0.000 OA
ATOM      3  O   UNL     1      -0.051   9.613  17.597  0.00  0.00    +0.000 OA
ENDROOT
BRANCH   1   4
ATOM      4  N   UNL     1       0.972  10.430  19.828  0.00  0.00    +0.000 NA
ATOM      5  C   UNL     1       1.099  11.898  20.005  0.00  0.00    +0.000 C 
ATOM      6  C   UNL     1       0.877  12.314  21.452  0.00  0.00    +0.000 C 
ATOM      7  C   UNL     1      -0.461  11.821  21.996  0.00  0.00    +0.000 C 
ATOM      8  C   UNL     1      -0.485  10.296  21.867  0.00  0.00    +0.000 C 
ATOM      9  C   UNL     1      -0.225   9.798  20.448  0.00  0.00    +0.000 C 
BRANCH   7  10
ATOM     10  C   UNL     1      -1.709  12.436  21.333  0.00  0.00    +0.000 C 
ATOM     11  O   UNL     1      -1.652  12.909  20.204  0.00  0.00    +0.000 OA
ATOM     12  N   UNL     1      -2.909  12.382  22.031  0.00  0.00    +0.000 N 
ATOM     13  C   UNL     1      -4.157  12.640  21.304  0.00  0.00    +0.000 C 
ATOM     14  C   UNL     1      -4.843  13.896  21.825  0.00  0.00    +0.000 C 
ATOM     15  C   UNL     1      -5.047  13.804  23.337  0.00  0.00    +0.000 C 
ATOM     16  C   UNL     1      -3.737  13.503  24.079  0.00  0.00    +0.000 C 
ATOM     17  C   UNL     1      -2.805  14.722  24.076  0.00  0.00    +0.000 C 
ATOM     18  C   UNL     1      -3.039  12.267  23.483  0.00  0.00    +0.000 C 
ENDBRANCH   7  10
ENDBRANCH   1   4
BRANCH   1  22
ATOM     19  C   UNL     1       2.655   6.310  18.931  0.00  0.00    +0.000 A 
ATOM     20  C   UNL     1       3.611   6.687  18.012  0.00  0.00    +0.000 A 
ATOM     21  C   UNL     1       3.273   7.975  17.568  0.00  0.00    +0.000 A 
ATOM     22  C   UNL     1       2.122   8.363  18.239  0.00  0.00    +0.000 A 
ATOM     23  O   UNL     1       1.733   7.314  19.055  0.00  0.00    +0.000 OA
BRANCH  19  27
ATOM     24  C   UNL     1       1.475   2.471  21.949  0.00  0.00    +0.000 C 
ATOM     25  C   UNL     1       2.123   3.370  20.966  0.00  0.00    +0.000 A 
ATOM     26  C   UNL     1       1.630   4.597  20.485  0.00  0.00    +0.000 A 
ATOM     27  C   UNL     1       2.606   5.080  19.645  0.00  0.00    +0.000 A 
ATOM     28  N   UNL     1       3.579   4.123  19.626  0.00  0.00    +0.000 N 
ATOM     29  N   UNL     1       3.317   3.072  20.433  0.00  0.00    +0.000 NA
ATOM     30  H   UNL     1       4.450   4.135  19.109  0.00  0.00    +0.000 HD
ENDBRANCH  19  27
ENDBRANCH   1  22
TORSDOF 4
ENDMDL
MODEL 9
REMARK VINA RESULT:      -7.2      6.244      8.543
REMARK  Name = 
REMARK  6 active torsions:
REMARK  status: ('A' for Active; 'I' for Inactive)
REMARK    1  A    between atoms: C_1  and  C_2
REMARK    2  A    between atoms: C_4  and  C_5
REMARK    3  A    between atoms: C_8  and  S_9
REMARK    4  A    between atoms: S_9  and  N_12
REMARK    5  A    between atoms: C_15  and  C_16
REMARK    6  A    between atoms: C_22  and  C_23
REMARK                            x       y       z     vdW  Elec       q    Type
REMARK                         _______ _______ _______ _____ _____    ______ ____
ROOT
ATOM      1  S   UNL     1       0.828   8.608  21.405  0.00  0.00    +0.000 S 
ATOM      2  O   UNL     1      -0.489   8.074  21.704  0.00  0.00    +0.000 OA
ATOM      3  O   UNL     1       1.749   8.990  22.450  0.00  0.00    +0.000 OA
ENDROOT
BRANCH   1   4
ATOM      4  N   UNL     1       0.640   9.931  20.311  0.00  0.00    +0.000 NA
ATOM      5  C   UNL     1      -0.362   9.662  19.250  0.00  0.00    +0.000 C 
ATOM      6  C   UNL     1      -0.505  10.840  18.296  0.00  0.00    +0.000 C 
ATOM      7  C   UNL     1      -0.832  12.139  19.028  0.00  0.00    +0.000 C 
ATOM      8  C   UNL     1       0.287  12.400  20.040  0.00  0.00    +0.000 C 
ATOM      9  C   UNL     1       0.521  11.242  21.006  0.00  0.00    +0.000 C 
BRANCH   7  10
ATOM     10  C   UNL     1      -2.206  12.175  19.725  0.00  0.00    +0.000 C 
ATOM     11  O   UNL     1      -2.290  12.210  20.947  0.00  0.00    +0.000 OA
ATOM     12  N   UNL     1      -3.341  12.228  18.924  0.00  0.00    +0.000 N 
ATOM     13  C   UNL     1      -4.618  12.605  19.539  0.00  0.00    +0.000 C 
ATOM     14  C   UNL     1      -5.614  11.455  19.477  0.00  0.00    +0.000 C 
ATOM     15  C   UNL     1      -5.772  10.964  18.038  0.00  0.00    +0.000 C 
ATOM     16  C   UNL     1      -4.423  10.603  17.399  0.00  0.00    +0.000 C 
ATOM     17  C   UNL     1      -3.857   9.306  17.994  0.00  0.00    +0.000 C 
ATOM     18  C   UNL     1      -3.421  11.764  17.540  0.00  0.00    +0.000 C 
ENDBRANCH   7  10
ENDBRANCH   1   4
BRANCH   1  22
ATOM     19  C   UNL     1       2.910   6.319  18.936  0.00  0.00    +0.000 A 
ATOM     20  C   UNL     1       2.344   5.301  19.674  0.00  0.00    +0.000 A 
ATOM     21  C   UNL     1       1.562   5.902  20.673  0.00  0.00    +0.000 A 
ATOM     22  C   UNL     1       1.656   7.277  20.514  0.00  0.00    +0.000 A 
ATOM     23  O   UNL     1       2.516   7.522  19.456  0.00  0.00    +0.000 OA
BRANCH  19  27
ATOM     24  C   UNL     1       5.777   4.600  15.185  0.00  0.00    +0.000 C 
ATOM     25  C   UNL     1       5.053   5.453  16.156  0.00  0.00    +0.000 A 
ATOM     26  C   UNL     1       4.123   5.033  17.125  0.00  0.00    +0.000 A 
ATOM     27  C   UNL     1       3.774   6.171  17.814  0.00  0.00    +0.000 A 
ATOM     28  N   UNL     1       4.452   7.189  17.208  0.00  0.00    +0.000 N 
ATOM     29  N   UNL     1       5.250   6.779  16.199  0.00  0.00    +0.000 NA
ATOM     30  H   UNL     1       4.434   8.174  17.446  0.00  0.00    +0.000 HD
ENDBRANCH  19  27
ENDBRANCH   1  22
TORSDOF 4
ENDMDL
