MODEL 1
REMARK VINA RESULT:      -8.5      0.000      0.000
REMARK  Name = 
REMARK  5 active torsions:
REMARK  status: ('A' for Active; 'I' for Inactive)
REMARK    1  A    between atoms: N_5  and  C_6
REMARK    2  A    between atoms: C_6  and  C_7
REMARK    3  A    between atoms: C_7  and  C_8
REMARK    4  A    between atoms: N_18  and  C_19
REMARK    5  A    between atoms: C_19  and  C_20
REMARK                            x       y       z     vdW  Elec       q    Type
REMARK                         _______ _______ _______ _____ _____    ______ ____
ROOT
ATOM      1  O   UNL     1       7.894   5.134  20.097  0.00  0.00    +0.000 OA
ATOM      2  C   UNL     1       7.779   6.026  19.259  0.00  0.00    +0.000 A 
ATOM      3  N   UNL     1       8.574   7.141  19.263  0.00  0.00    +0.000 N 
ATOM      4  C   UNL     1       8.387   8.188  18.407  0.00  0.00    +0.000 A 
ATOM      5  N   UNL     1       9.149   9.307  18.622  0.00  0.00    +0.000 N 
ATOM      6  N   UNL     1       7.506   8.137  17.460  0.00  0.00    +0.000 NA
ATOM      7  C   UNL     1       6.736   7.013  17.337  0.00  0.00    +0.000 A 
ATOM      8  C   UNL     1       6.774   5.963  18.181  0.00  0.00    +0.000 A 
ATOM      9  C   UNL     1       5.853   4.781  18.072  0.00  0.00    +0.000 C 
ATOM     10  N   UNL     1       4.720   4.988  17.128  0.00  0.00    +0.000 NA
ATOM     11  C   UNL     1       5.207   5.607  15.888  0.00  0.00    +0.000 C 
ATOM     12  C   UNL     1       5.793   6.996  16.171  0.00  0.00    +0.000 C 
ATOM     13  H   UNL     1       9.208   7.239  20.037  0.00  0.00    +0.000 HD
ATOM     14  H   UNL     1      10.151   9.153  18.672  0.00  0.00    +0.000 HD
ENDROOT
BRANCH   5  15
ATOM     15  C   UNL     1       8.723  10.586  18.041  0.00  0.00    +0.000 C 
BRANCH  15  16
ATOM     16  C   UNL     1       9.045  11.781  18.943  0.00  0.00    +0.000 C 
BRANCH  16  17
ATOM     17  C   UNL     1       9.929  12.808  18.265  0.00  0.00    +0.000 A 
ATOM     18  C   UNL     1       9.725  14.175  18.494  0.00  0.00    +0.000 A 
ATOM     19  C   UNL     1      10.555  15.131  17.906  0.00  0.00    +0.000 A 
ATOM     20  C   UNL     1      11.592  14.732  17.063  0.00  0.00    +0.000 A 
ATOM     21  C   UNL     1      11.794  13.374  16.807  0.00  0.00    +0.000 A 
ATOM     22  C   UNL     1      10.964  12.418  17.400  0.00  0.00    +0.000 A 
ENDBRANCH  16  17
ENDBRANCH  15  16
ENDBRANCH   5  15
BRANCH  10  23
ATOM     23  C   UNL     1       4.025   3.714  16.875  0.00  0.00    +0.000 C 
BRANCH  23  24
ATOM     24  C   UNL     1       2.948   3.353  17.885  0.00  0.00    +0.000 A 
ATOM     25  C   UNL     1       2.158   4.353  18.478  0.00  0.00    +0.000 A 
ATOM     26  C   UNL     1       1.084   4.014  19.305  0.00  0.00    +0.000 A 
ATOM     27  C   UNL     1       0.786   2.676  19.549  0.00  0.00    +0.000 A 
ATOM     28  C   UNL     1       1.595   1.676  19.012  0.00  0.00    +0.000 A 
ATOM     29  C   UNL     1       2.679   2.013  18.198  0.00  0.00    +0.000 A 
ENDBRANCH  23  24
ENDBRANCH  10  23
TORSDOF 5
ENDMDL
MODEL 2
REMARK VINA RESULT:      -8.5      0.976      1.832
REMARK  Name = 
REMARK  5 active torsions:
REMARK  status: ('A' for Active; 'I' for Inactive)
REMARK    1  A    between atoms: N_5  and  C_6
REMARK    2  A    between atoms: C_6  and  C_7
REMARK    3  A    between atoms: C_7  and  C_8
REMARK    4  A    between atoms: N_18  and  C_19
REMARK    5  A    between atoms: C_19  and  C_20
REMARK                            x       y       z     vdW  Elec       q    Type
REMARK                         _______ _______ _______ _____ _____    ______ ____
ROOT
ATOM      1  O   UNL     1       7.678   5.104  20.064  0.00  0.00    +0.000 OA
ATOM      2  C   UNL     1       7.600   5.987  19.213  0.00  0.00    +0.000 A 
ATOM      3  N   UNL     1       8.431   7.075  19.208  0.00  0.00    +0.000 N 
ATOM      4  C   UNL     1       8.285   8.116  18.336  0.00  0.00    +0.000 A 
ATOM      5  N   UNL     1       9.083   9.212  18.542  0.00  0.00    +0.000 N 
ATOM      6  N   UNL     1       7.410   8.081  17.383  0.00  0.00    +0.000 NA
ATOM      7  C   UNL     1       6.604   6.982  17.270  0.00  0.00    +0.000 A 
ATOM      8  C   UNL     1       6.601   5.943  18.129  0.00  0.00    +0.000 A 
ATOM      9  C   UNL     1       5.641   4.791  18.028  0.00  0.00    +0.000 C 
ATOM     10  N   UNL     1       4.522   5.022  17.073  0.00  0.00    +0.000 NA
ATOM     11  C   UNL     1       5.039   5.607  15.828  0.00  0.00    +0.000 C 
ATOM     12  C   UNL     1       5.669   6.979  16.096  0.00  0.00    +0.000 C 
ATOM     13  H   UNL     1       9.063   7.163  19.986  0.00  0.00    +0.000 HD
ATOM     14  H   UNL     1      10.078   9.025  18.602  0.00  0.00    +0.000 HD
ENDROOT
BRANCH   5  15
ATOM     15  C   UNL     1       8.704  10.496  17.940  0.00  0.00    +0.000 C 
BRANCH  15  16
ATOM     16  C   UNL     1       9.855  11.506  17.930  0.00  0.00    +0.000 C 
BRANCH  16  17
ATOM     17  C   UNL     1       9.808  12.461  19.107  0.00  0.00    +0.000 A 
ATOM     18  C   UNL     1       9.611  13.832  18.894  0.00  0.00    +0.000 A 
ATOM     19  C   UNL     1       9.527  14.718  19.970  0.00  0.00    +0.000 A 
ATOM     20  C   UNL     1       9.660  14.246  21.275  0.00  0.00    +0.000 A 
ATOM     21  C   UNL     1       9.880  12.886  21.503  0.00  0.00    +0.000 A 
ATOM     22  C   UNL     1       9.960  11.999  20.424  0.00  0.00    +0.000 A 
ENDBRANCH  16  17
ENDBRANCH  15  16
ENDBRANCH   5  15
BRANCH  10  23
ATOM     23  C   UNL     1       3.787   3.768  16.832  0.00  0.00    +0.000 C 
BRANCH  23  24
ATOM     24  C   UNL     1       2.699   3.452  17.845  0.00  0.00    +0.000 A 
ATOM     25  C   UNL     1       2.381   2.121  18.163  0.00  0.00    +0.000 A 
ATOM     26  C   UNL     1       1.475   1.831  19.187  0.00  0.00    +0.000 A 
ATOM     27  C   UNL     1       0.880   2.864  19.905  0.00  0.00    +0.000 A 
ATOM     28  C   UNL     1       1.145   4.189  19.564  0.00  0.00    +0.000 A 
ATOM     29  C   UNL     1       2.037   4.482  18.530  0.00  0.00    +0.000 A 
ENDBRANCH  23  24
ENDBRANCH  10  23
TORSDOF 5
ENDMDL
MODEL 3
REMARK VINA RESULT:      -8.4      0.956      1.474
REMARK  Name = 
REMARK  5 active torsions:
REMARK  status: ('A' for Active; 'I' for Inactive)
REMARK    1  A    between atoms: N_5  and  C_6
REMARK    2  A    between atoms: C_6  and  C_7
REMARK    3  A    between atoms: C_7  and  C_8
REMARK    4  A    between atoms: N_18  and  C_19
REMARK    5  A    between atoms: C_19  and  C_20
REMARK                            x       y       z     vdW  Elec       q    Type
REMARK                         _______ _______ _______ _____ _____    ______ ____
ROOT
ATOM      1  O   UNL     1       7.998   5.220  19.976  0.00  0.00    +0.000 OA
ATOM      2  C   UNL     1       7.800   6.114  19.154  0.00  0.00    +0.000 A 
ATOM      3  N   UNL     1       8.563   7.250  19.110  0.00  0.00    +0.000 N 
ATOM      4  C   UNL     1       8.286   8.297  18.278  0.00  0.00    +0.000 A 
ATOM      5  N   UNL     1       9.031   9.435  18.447  0.00  0.00    +0.000 N 
ATOM      6  N   UNL     1       7.341   8.227  17.396  0.00  0.00    +0.000 NA
ATOM      7  C   UNL     1       6.594   7.083  17.321  0.00  0.00    +0.000 A 
ATOM      8  C   UNL     1       6.722   6.030  18.152  0.00  0.00    +0.000 A 
ATOM      9  C   UNL     1       5.827   4.824  18.099  0.00  0.00    +0.000 C 
ATOM     10  N   UNL     1       4.624   5.005  17.241  0.00  0.00    +0.000 NA
ATOM     11  C   UNL     1       5.003   5.644  15.974  0.00  0.00    +0.000 C 
ATOM     12  C   UNL     1       5.571   7.047  16.225  0.00  0.00    +0.000 C 
ATOM     13  H   UNL     1       9.248   7.361  19.838  0.00  0.00    +0.000 HD
ATOM     14  H   UNL     1      10.038   9.308  18.424  0.00  0.00    +0.000 HD
ENDROOT
BRANCH   5  15
ATOM     15  C   UNL     1       8.530  10.705  17.908  0.00  0.00    +0.000 C 
BRANCH  15  16
ATOM     16  C   UNL     1       9.585  11.815  17.935  0.00  0.00    +0.000 C 
BRANCH  16  17
ATOM     17  C   UNL     1       8.979  13.197  18.081  0.00  0.00    +0.000 A 
ATOM     18  C   UNL     1       9.669  14.199  18.777  0.00  0.00    +0.000 A 
ATOM     19  C   UNL     1       9.142  15.487  18.887  0.00  0.00    +0.000 A 
ATOM     20  C   UNL     1       7.905  15.786  18.316  0.00  0.00    +0.000 A 
ATOM     21  C   UNL     1       7.195  14.792  17.638  0.00  0.00    +0.000 A 
ATOM     22  C   UNL     1       7.727  13.504  17.526  0.00  0.00    +0.000 A 
ENDBRANCH  16  17
ENDBRANCH  15  16
ENDBRANCH   5  15
BRANCH  10  23
ATOM     23  C   UNL     1       3.947   3.714  17.029  0.00  0.00    +0.000 C 
BRANCH  23  24
ATOM     24  C   UNL     1       2.855   3.383  18.034  0.00  0.00    +0.000 A 
ATOM     25  C   UNL     1       2.319   4.383  18.863  0.00  0.00    +0.000 A 
ATOM     26  C   UNL     1       1.229   4.109  19.693  0.00  0.00    +0.000 A 
ATOM     27  C   UNL     1       0.661   2.838  19.703  0.00  0.00    +0.000 A 
ATOM     28  C   UNL     1       1.217   1.823  18.926  0.00  0.00    +0.000 A 
ATOM     29  C   UNL     1       2.318   2.090  18.108  0.00  0.00    +0.000 A 
ENDBRANCH  23  24
ENDBRANCH  10  23
TORSDOF 5
ENDMDL
MODEL 4
REMARK VINA RESULT:      -8.3      0.956      1.574
REMARK  Name = 
REMARK  5 active torsions:
REMARK  status: ('A' for Active; 'I' for Inactive)
REMARK    1  A    between atoms: N_5  and  C_6
REMARK    2  A    between atoms: C_6  and  C_7
REMARK    3  A    between atoms: C_7  and  C_8
REMARK    4  A    between atoms: N_18  and  C_19
REMARK    5  A    between atoms: C_19  and  C_20
REMARK                            x       y       z     vdW  Elec       q    Type
REMARK                         _______ _______ _______ _____ _____    ______ ____
ROOT
ATOM      1  O   UNL     1       7.759   5.141  20.035  0.00  0.00    +0.000 OA
ATOM      2  C   UNL     1       7.666   6.039  19.201  0.00  0.00    +0.000 A 
ATOM      3  N   UNL     1       8.490   7.133  19.208  0.00  0.00    +0.000 N 
ATOM      4  C   UNL     1       8.328   8.189  18.357  0.00  0.00    +0.000 A 
ATOM      5  N   UNL     1       9.120   9.287  18.575  0.00  0.00    +0.000 N 
ATOM      6  N   UNL     1       7.445   8.165  17.412  0.00  0.00    +0.000 NA
ATOM      7  C   UNL     1       6.645   7.062  17.286  0.00  0.00    +0.000 A 
ATOM      8  C   UNL     1       6.658   6.007  18.125  0.00  0.00    +0.000 A 
ATOM      9  C   UNL     1       5.706   4.850  18.012  0.00  0.00    +0.000 C 
ATOM     10  N   UNL     1       4.576   5.090  17.072  0.00  0.00    +0.000 NA
ATOM     11  C   UNL     1       5.077   5.703  15.833  0.00  0.00    +0.000 C 
ATOM     12  C   UNL     1       5.700   7.074  16.121  0.00  0.00    +0.000 C 
ATOM     13  H   UNL     1       9.128   7.212  19.982  0.00  0.00    +0.000 HD
ATOM     14  H   UNL     1      10.117   9.106  18.623  0.00  0.00    +0.000 HD
ENDROOT
BRANCH   5  15
ATOM     15  C   UNL     1       8.726  10.579  18.001  0.00  0.00    +0.000 C 
BRANCH  15  16
ATOM     16  C   UNL     1       9.899  11.556  17.886  0.00  0.00    +0.000 C 
BRANCH  16  17
ATOM     17  C   UNL     1       9.959  12.540  19.037  0.00  0.00    +0.000 A 
ATOM     18  C   UNL     1       9.830  12.088  20.358  0.00  0.00    +0.000 A 
ATOM     19  C   UNL     1       9.921  12.978  21.430  0.00  0.00    +0.000 A 
ATOM     20  C   UNL     1      10.123  14.338  21.194  0.00  0.00    +0.000 A 
ATOM     21  C   UNL     1      10.230  14.806  19.883  0.00  0.00    +0.000 A 
ATOM     22  C   UNL     1      10.143  13.913  18.811  0.00  0.00    +0.000 A 
ENDBRANCH  16  17
ENDBRANCH  15  16
ENDBRANCH   5  15
BRANCH  10  23
ATOM     23  C   UNL     1       3.848   3.836  16.815  0.00  0.00    +0.000 C 
BRANCH  23  24
ATOM     24  C   UNL     1       2.812   3.464  17.863  0.00  0.00    +0.000 A 
ATOM     25  C   UNL     1       2.253   4.447  18.698  0.00  0.00    +0.000 A 
ATOM     26  C   UNL     1       1.209   4.129  19.570  0.00  0.00    +0.000 A 
ATOM     27  C   UNL     1       0.710   2.830  19.617  0.00  0.00    +0.000 A 
ATOM     28  C   UNL     1       1.291   1.834  18.834  0.00  0.00    +0.000 A 
ATOM     29  C   UNL     1       2.346   2.146  17.973  0.00  0.00    +0.000 A 
ENDBRANCH  23  24
ENDBRANCH  10  23
TORSDOF 5
ENDMDL
MODEL 5
REMARK VINA RESULT:      -8.3      0.595      1.074
REMARK  Name = 
REMARK  5 active torsions:
REMARK  status: ('A' for Active; 'I' for Inactive)
REMARK    1  A    between atoms: N_5  and  C_6
REMARK    2  A    between atoms: C_6  and  C_7
REMARK    3  A    between atoms: C_7  and  C_8
REMARK    4  A    between atoms: N_18  and  C_19
REMARK    5  A    between atoms: C_19  and  C_20
REMARK                            x       y       z     vdW  Elec       q    Type
REMARK                         _______ _______ _______ _____ _____    ______ ____
ROOT
ATOM      1  O   UNL     1       8.245   5.337  19.793  0.00  0.00    +0.000 OA
ATOM      2  C   UNL     1       7.944   6.243  19.019  0.00  0.00    +0.000 A 
ATOM      3  N   UNL     1       8.649   7.415  18.955  0.00  0.00    +0.000 N 
ATOM      4  C   UNL     1       8.263   8.471  18.181  0.00  0.00    +0.000 A 
ATOM      5  N   UNL     1       8.967   9.639  18.330  0.00  0.00    +0.000 N 
ATOM      6  N   UNL     1       7.258   8.383  17.370  0.00  0.00    +0.000 NA
ATOM      7  C   UNL     1       6.560   7.207  17.313  0.00  0.00    +0.000 A 
ATOM      8  C   UNL     1       6.798   6.137  18.097  0.00  0.00    +0.000 A 
ATOM      9  C   UNL     1       5.957   4.892  18.073  0.00  0.00    +0.000 C 
ATOM     10  N   UNL     1       4.685   5.040  17.313  0.00  0.00    +0.000 NA
ATOM     11  C   UNL     1       4.938   5.734  16.043  0.00  0.00    +0.000 C 
ATOM     12  C   UNL     1       5.459   7.154  16.296  0.00  0.00    +0.000 C 
ATOM     13  H   UNL     1       9.382   7.538  19.633  0.00  0.00    +0.000 HD
ATOM     14  H   UNL     1       9.973   9.560  18.228  0.00  0.00    +0.000 HD
ENDROOT
BRANCH   5  15
ATOM     15  C   UNL     1       8.369  10.899  17.872  0.00  0.00    +0.000 C 
BRANCH  15  16
ATOM     16  C   UNL     1       8.724  12.083  18.775  0.00  0.00    +0.000 C 
BRANCH  16  17
ATOM     17  C   UNL     1       9.976  12.810  18.327  0.00  0.00    +0.000 A 
ATOM     18  C   UNL     1      10.647  13.667  19.209  0.00  0.00    +0.000 A 
ATOM     19  C   UNL     1      11.823  14.313  18.822  0.00  0.00    +0.000 A 
ATOM     20  C   UNL     1      12.333  14.126  17.538  0.00  0.00    +0.000 A 
ATOM     21  C   UNL     1      11.663  13.293  16.639  0.00  0.00    +0.000 A 
ATOM     22  C   UNL     1      10.488  12.643  17.030  0.00  0.00    +0.000 A 
ENDBRANCH  16  17
ENDBRANCH  15  16
ENDBRANCH   5  15
BRANCH  10  23
ATOM     23  C   UNL     1       4.053   3.725  17.110  0.00  0.00    +0.000 C 
BRANCH  23  24
ATOM     24  C   UNL     1       2.821   3.462  17.959  0.00  0.00    +0.000 A 
ATOM     25  C   UNL     1       2.184   2.210  17.930  0.00  0.00    +0.000 A 
ATOM     26  C   UNL     1       1.132   1.926  18.804  0.00  0.00    +0.000 A 
ATOM     27  C   UNL     1       0.706   2.886  19.718  0.00  0.00    +0.000 A 
ATOM     28  C   UNL     1       1.292   4.150  19.721  0.00  0.00    +0.000 A 
ATOM     29  C   UNL     1       2.332   4.442  18.835  0.00  0.00    +0.000 A 
ENDBRANCH  23  24
ENDBRANCH  10  23
TORSDOF 5
ENDMDL
MODEL 6
REMARK VINA RESULT:      -8.3      8.322     11.731
REMARK  Name = 
REMARK  5 active torsions:
REMARK  status: ('A' for Active; 'I' for Inactive)
REMARK    1  A    between atoms: N_5  and  C_6
REMARK    2  A    between atoms: C_6  and  C_7
REMARK    3  A    between atoms: C_7  and  C_8
REMARK    4  A    between atoms: N_18  and  C_19
REMARK    5  A    between atoms: C_19  and  C_20
REMARK                            x       y       z     vdW  Elec       q    Type
REMARK                         _______ _______ _______ _____ _____    ______ ____
ROOT
ATOM      1  O   UNL     1      -1.469  12.216  17.839  0.00  0.00    +0.000 OA
ATOM      2  C   UNL     1      -0.875  11.563  18.695  0.00  0.00    +0.000 A 
ATOM      3  N   UNL     1       0.151  10.711  18.386  0.00  0.00    +0.000 N 
ATOM      4  C   UNL     1       0.745   9.900  19.309  0.00  0.00    +0.000 A 
ATOM      5  N   UNL     1       1.648   8.983  18.837  0.00  0.00    +0.000 N 
ATOM      6  N   UNL     1       0.442   9.972  20.565  0.00  0.00    +0.000 NA
ATOM      7  C   UNL     1      -0.513  10.868  20.962  0.00  0.00    +0.000 A 
ATOM      8  C   UNL     1      -1.224  11.649  20.126  0.00  0.00    +0.000 A 
ATOM      9  C   UNL     1      -2.328  12.559  20.584  0.00  0.00    +0.000 C 
ATOM     10  N   UNL     1      -2.753  12.327  21.993  0.00  0.00    +0.000 NA
ATOM     11  C   UNL     1      -1.572  12.177  22.854  0.00  0.00    +0.000 C 
ATOM     12  C   UNL     1      -0.754  10.948  22.441  0.00  0.00    +0.000 C 
ATOM     13  H   UNL     1       0.347  10.579  17.408  0.00  0.00    +0.000 HD
ATOM     14  H   UNL     1       2.395   9.359  18.262  0.00  0.00    +0.000 HD
ENDROOT
BRANCH   5  15
ATOM     15  C   UNL     1       1.998   7.827  19.672  0.00  0.00    +0.000 C 
BRANCH  15  16
ATOM     16  C   UNL     1       2.687   6.713  18.880  0.00  0.00    +0.000 C 
BRANCH  16  17
ATOM     17  C   UNL     1       2.068   5.351  19.122  0.00  0.00    +0.000 A 
ATOM     18  C   UNL     1       1.864   4.469  18.051  0.00  0.00    +0.000 A 
ATOM     19  C   UNL     1       1.331   3.196  18.264  0.00  0.00    +0.000 A 
ATOM     20  C   UNL     1       0.975   2.795  19.551  0.00  0.00    +0.000 A 
ATOM     21  C   UNL     1       1.150   3.670  20.625  0.00  0.00    +0.000 A 
ATOM     22  C   UNL     1       1.688   4.943  20.410  0.00  0.00    +0.000 A 
ENDBRANCH  16  17
ENDBRANCH  15  16
ENDBRANCH   5  15
BRANCH  10  23
ATOM     23  C   UNL     1      -3.636  13.415  22.447  0.00  0.00    +0.000 C 
BRANCH  23  24
ATOM     24  C   UNL     1      -5.105  13.046  22.570  0.00  0.00    +0.000 A 
ATOM     25  C   UNL     1      -5.837  12.634  21.444  0.00  0.00    +0.000 A 
ATOM     26  C   UNL     1      -7.149  12.171  21.578  0.00  0.00    +0.000 A 
ATOM     27  C   UNL     1      -7.743  12.112  22.836  0.00  0.00    +0.000 A 
ATOM     28  C   UNL     1      -7.047  12.569  23.954  0.00  0.00    +0.000 A 
ATOM     29  C   UNL     1      -5.742  13.048  23.820  0.00  0.00    +0.000 A 
ENDBRANCH  23  24
ENDBRANCH  10  23
TORSDOF 5
ENDMDL
MODEL 7
REMARK VINA RESULT:      -8.1      7.564     10.507
REMARK  Name = 
REMARK  5 active torsions:
REMARK  status: ('A' for Active; 'I' for Inactive)
REMARK    1  A    between atoms: N_5  and  C_6
REMARK    2  A    between atoms: C_6  and  C_7
REMARK    3  A    between atoms: C_7  and  C_8
REMARK    4  A    between atoms: N_18  and  C_19
REMARK    5  A    between atoms: C_19  and  C_20
REMARK                            x       y       z     vdW  Elec       q    Type
REMARK                         _______ _______ _______ _____ _____    ______ ____
ROOT
ATOM      1  O   UNL     1       0.381   9.247  23.402  0.00  0.00    +0.000 OA
ATOM      2  C   UNL     1       0.116   9.886  22.385  0.00  0.00    +0.000 A 
ATOM      3  N   UNL     1      -0.646  11.024  22.414  0.00  0.00    +0.000 N 
ATOM      4  C   UNL     1      -1.040  11.681  21.284  0.00  0.00    +0.000 A 
ATOM      5  N   UNL     1      -1.929  12.712  21.446  0.00  0.00    +0.000 N 
ATOM      6  N   UNL     1      -0.619  11.323  20.114  0.00  0.00    +0.000 NA
ATOM      7  C   UNL     1       0.221  10.248  20.016  0.00  0.00    +0.000 A 
ATOM      8  C   UNL     1       0.597   9.474  21.054  0.00  0.00    +0.000 A 
ATOM      9  C   UNL     1       1.450   8.246  20.902  0.00  0.00    +0.000 C 
ATOM     10  N   UNL     1       1.616   7.801  19.491  0.00  0.00    +0.000 NA
ATOM     11  C   UNL     1       1.903   8.957  18.631  0.00  0.00    +0.000 C 
ATOM     12  C   UNL     1       0.727   9.941  18.638  0.00  0.00    +0.000 C 
ATOM     13  H   UNL     1      -1.051  11.273  23.301  0.00  0.00    +0.000 HD
ATOM     14  H   UNL     1      -1.656  13.426  22.113  0.00  0.00    +0.000 HD
ENDROOT
BRANCH   5  15
ATOM     15  C   UNL     1      -2.708  13.174  20.290  0.00  0.00    +0.000 C 
BRANCH  15  16
ATOM     16  C   UNL     1      -4.181  13.412  20.628  0.00  0.00    +0.000 C 
BRANCH  16  17
ATOM     17  C   UNL     1      -5.108  12.431  19.939  0.00  0.00    +0.000 A 
ATOM     18  C   UNL     1      -6.326  12.074  20.534  0.00  0.00    +0.000 A 
ATOM     19  C   UNL     1      -7.207  11.201  19.893  0.00  0.00    +0.000 A 
ATOM     20  C   UNL     1      -6.873  10.657  18.653  0.00  0.00    +0.000 A 
ATOM     21  C   UNL     1      -5.653  10.985  18.058  0.00  0.00    +0.000 A 
ATOM     22  C   UNL     1      -4.773  11.863  18.700  0.00  0.00    +0.000 A 
ENDBRANCH  16  17
ENDBRANCH  15  16
ENDBRANCH   5  15
BRANCH  10  23
ATOM     23  C   UNL     1       2.664   6.769  19.399  0.00  0.00    +0.000 C 
BRANCH  23  24
ATOM     24  C   UNL     1       2.162   5.335  19.424  0.00  0.00    +0.000 A 
ATOM     25  C   UNL     1       1.782   4.729  20.634  0.00  0.00    +0.000 A 
ATOM     26  C   UNL     1       1.199   3.459  20.642  0.00  0.00    +0.000 A 
ATOM     27  C   UNL     1       0.987   2.781  19.445  0.00  0.00    +0.000 A 
ATOM     28  C   UNL     1       1.408   3.347  18.243  0.00  0.00    +0.000 A 
ATOM     29  C   UNL     1       2.007   4.609  18.234  0.00  0.00    +0.000 A 
ENDBRANCH  23  24
ENDBRANCH  10  23
TORSDOF 5
ENDMDL
MODEL 8
REMARK VINA RESULT:      -8.1      8.108     11.550
REMARK  Name = 
REMARK  5 active torsions:
REMARK  status: ('A' for Active; 'I' for Inactive)
REMARK    1  A    between atoms: N_5  and  C_6
REMARK    2  A    between atoms: C_6  and  C_7
REMARK    3  A    between atoms: C_7  and  C_8
REMARK    4  A    between atoms: N_18  and  C_19
REMARK    5  A    between atoms: C_19  and  C_20
REMARK                            x       y       z     vdW  Elec       q    Type
REMARK                         _______ _______ _______ _____ _____    ______ ____
ROOT
ATOM      1  O   UNL     1      -0.901  12.451  17.909  0.00  0.00    +0.000 OA
ATOM      2  C   UNL     1      -0.367  11.656  18.681  0.00  0.00    +0.000 A 
ATOM      3  N   UNL     1       0.603  10.780  18.274  0.00  0.00    +0.000 N 
ATOM      4  C   UNL     1       1.125   9.820  19.093  0.00  0.00    +0.000 A 
ATOM      5  N   UNL     1       1.971   8.908  18.517  0.00  0.00    +0.000 N 
ATOM      6  N   UNL     1       0.808   9.756  20.346  0.00  0.00    +0.000 NA
ATOM      7  C   UNL     1      -0.089  10.661  20.846  0.00  0.00    +0.000 A 
ATOM      8  C   UNL     1      -0.732  11.587  20.108  0.00  0.00    +0.000 A 
ATOM      9  C   UNL     1      -1.778  12.509  20.669  0.00  0.00    +0.000 C 
ATOM     10  N   UNL     1      -2.240  12.134  22.034  0.00  0.00    +0.000 NA
ATOM     11  C   UNL     1      -1.086  11.795  22.879  0.00  0.00    +0.000 C 
ATOM     12  C   UNL     1      -0.347  10.573  22.321  0.00  0.00    +0.000 C 
ATOM     13  H   UNL     1       0.805  10.756  17.289  0.00  0.00    +0.000 HD
ATOM     14  H   UNL     1       2.751   9.299  17.999  0.00  0.00    +0.000 HD
ENDROOT
BRANCH   5  15
ATOM     15  C   UNL     1       2.227   7.636  19.203  0.00  0.00    +0.000 C 
BRANCH  15  16
ATOM     16  C   UNL     1       2.452   6.475  18.230  0.00  0.00    +0.000 C 
BRANCH  16  17
ATOM     17  C   UNL     1       1.965   5.148  18.776  0.00  0.00    +0.000 A 
ATOM     18  C   UNL     1       1.776   4.058  17.914  0.00  0.00    +0.000 A 
ATOM     19  C   UNL     1       1.365   2.819  18.408  0.00  0.00    +0.000 A 
ATOM     20  C   UNL     1       1.116   2.658  19.771  0.00  0.00    +0.000 A 
ATOM     21  C   UNL     1       1.278   3.740  20.639  0.00  0.00    +0.000 A 
ATOM     22  C   UNL     1       1.694   4.980  20.143  0.00  0.00    +0.000 A 
ENDBRANCH  16  17
ENDBRANCH  15  16
ENDBRANCH   5  15
BRANCH  10  23
ATOM     23  C   UNL     1      -3.053  13.216  22.615  0.00  0.00    +0.000 C 
BRANCH  23  24
ATOM     24  C   UNL     1      -4.539  12.917  22.729  0.00  0.00    +0.000 A 
ATOM     25  C   UNL     1      -5.165  12.867  23.986  0.00  0.00    +0.000 A 
ATOM     26  C   UNL     1      -6.552  12.722  24.086  0.00  0.00    +0.000 A 
ATOM     27  C   UNL     1      -7.327  12.629  22.933  0.00  0.00    +0.000 A 
ATOM     28  C   UNL     1      -6.714  12.623  21.682  0.00  0.00    +0.000 A 
ATOM     29  C   UNL     1      -5.326  12.750  21.581  0.00  0.00    +0.000 A 
ENDBRANCH  23  24
ENDBRANCH  10  23
TORSDOF 5
ENDMDL
MODEL 9
REMARK VINA RESULT:      -8.0      6.714      9.284
REMARK  Name = 
REMARK  5 active torsions:
REMARK  status: ('A' for Active; 'I' for Inactive)
REMARK    1  A    between atoms: N_5  and  C_6
REMARK    2  A    between atoms: C_6  and  C_7
REMARK    3  A    between atoms: C_7  and  C_8
REMARK    4  A    between atoms: N_18  and  C_19
REMARK    5  A    between atoms: C_19  and  C_20
REMARK                            x       y       z     vdW  Elec       q    Type
REMARK                         _______ _______ _______ _____ _____    ______ ____
ROOT
ATOM      1  O   UNL     1       0.838   9.304  23.219  0.00  0.00    +0.000 OA
ATOM      2  C   UNL     1       0.607   9.843  22.139  0.00  0.00    +0.000 A 
ATOM      3  N   UNL     1      -0.060  11.035  22.043  0.00  0.00    +0.000 N 
ATOM      4  C   UNL     1      -0.420  11.590  20.849  0.00  0.00    +0.000 A 
ATOM      5  N   UNL     1      -1.220  12.702  20.899  0.00  0.00    +0.000 N 
ATOM      6  N   UNL     1      -0.050  11.068  19.724  0.00  0.00    +0.000 NA
ATOM      7  C   UNL     1       0.698   9.923  19.743  0.00  0.00    +0.000 A 
ATOM      8  C   UNL     1       1.030   9.244  20.859  0.00  0.00    +0.000 A 
ATOM      9  C   UNL     1       1.777   7.941  20.842  0.00  0.00    +0.000 C 
ATOM     10  N   UNL     1       1.882   7.326  19.490  0.00  0.00    +0.000 NA
ATOM     11  C   UNL     1       2.246   8.349  18.500  0.00  0.00    +0.000 C 
ATOM     12  C   UNL     1       1.154   9.421  18.404  0.00  0.00    +0.000 C 
ATOM     13  H   UNL     1      -0.427  11.416  22.899  0.00  0.00    +0.000 HD
ATOM     14  H   UNL     1      -0.878  13.462  21.478  0.00  0.00    +0.000 HD
ENDROOT
BRANCH   5  15
ATOM     15  C   UNL     1      -1.979  13.092  19.704  0.00  0.00    +0.000 C 
BRANCH  15  16
ATOM     16  C   UNL     1      -3.262  12.276  19.528  0.00  0.00    +0.000 C 
BRANCH  16  17
ATOM     17  C   UNL     1      -3.310  11.534  18.208  0.00  0.00    +0.000 A 
ATOM     18  C   UNL     1      -4.363  11.758  17.311  0.00  0.00    +0.000 A 
ATOM     19  C   UNL     1      -4.400  11.110  16.075  0.00  0.00    +0.000 A 
ATOM     20  C   UNL     1      -3.392  10.212  15.726  0.00  0.00    +0.000 A 
ATOM     21  C   UNL     1      -2.347   9.960  16.619  0.00  0.00    +0.000 A 
ATOM     22  C   UNL     1      -2.310  10.613  17.855  0.00  0.00    +0.000 A 
ENDBRANCH  16  17
ENDBRANCH  15  16
ENDBRANCH   5  15
BRANCH  10  23
ATOM     23  C   UNL     1       2.841   6.208  19.508  0.00  0.00    +0.000 C 
BRANCH  23  24
ATOM     24  C   UNL     1       2.237   4.834  19.265  0.00  0.00    +0.000 A 
ATOM     25  C   UNL     1       2.499   4.138  18.073  0.00  0.00    +0.000 A 
ATOM     26  C   UNL     1       2.052   2.825  17.904  0.00  0.00    +0.000 A 
ATOM     27  C   UNL     1       1.343   2.192  18.921  0.00  0.00    +0.000 A 
ATOM     28  C   UNL     1       1.030   2.890  20.086  0.00  0.00    +0.000 A 
ATOM     29  C   UNL     1       1.460   4.209  20.251  0.00  0.00    +0.000 A 
ENDBRANCH  23  24
ENDBRANCH  10  23
TORSDOF 5
ENDMDL
