MODEL 1
REMARK VINA RESULT:      -7.4      0.000      0.000
REMARK  Name = 
REMARK  9 active torsions:
REMARK  status: ('A' for Active; 'I' for Inactive)
REMARK    1  A    between atoms: C_2  and  C_3
REMARK    2  A    between atoms: C_3  and  N_4
REMARK    3  A    between atoms: N_4  and  C_5
REMARK    4  A    between atoms: N_4  and  S_13
REMARK    5  A    between atoms: C_10  and  O_11
REMARK    6  A    between atoms: O_11  and  C_12
REMARK    7  A    between atoms: S_13  and  C_16
REMARK    8  A    between atoms: C_20  and  C_21
REMARK    9  A    between atoms: C_27  and  C_28
REMARK                            x       y       z     vdW  Elec       q    Type
REMARK                         _______ _______ _______ _____ _____    ______ ____
ROOT
ATOM      1  C   UNL     1       0.056  11.312  21.553  0.00  0.00    +0.000 A 
ATOM      2  C   UNL     1      -0.547  10.667  22.641  0.00  0.00    +0.000 A 
ATOM      3  C   UNL     1      -0.468   9.283  22.747  0.00  0.00    +0.000 A 
ATOM      4  C   UNL     1       0.238   8.549  21.793  0.00  0.00    +0.000 A 
ATOM      5  C   UNL     1       0.877   9.182  20.710  0.00  0.00    +0.000 A 
ATOM      6  C   UNL     1       0.780  10.578  20.595  0.00  0.00    +0.000 A 
ENDROOT
BRANCH   5   7
ATOM      7  C   UNL     1       1.622   8.303  19.743  0.00  0.00    +0.000 C 
ATOM      8  O   UNL     1       1.668   8.666  18.571  0.00  0.00    +0.000 OA
ATOM      9  N   UNL     1       2.164   7.141  20.244  0.00  0.00    +0.000 N 
ATOM     10  C   UNL     1       2.899   6.220  19.528  0.00  0.00    +0.000 A 
ATOM     11  N   UNL     1       3.213   5.040  20.019  0.00  0.00    +0.000 NA
ATOM     12  N   UNL     1       3.916   4.268  19.112  0.00  0.00    +0.000 NA
ATOM     13  C   UNL     1       4.143   4.920  17.992  0.00  0.00    +0.000 A 
ATOM     14  S   UNL     1       3.533   6.517  17.970  0.00  0.00    +0.000 S 
ATOM     15  H   UNL     1       1.930   6.810  21.168  0.00  0.00    +0.000 HD
BRANCH  13  16
ATOM     16  C   UNL     1       4.876   4.302  16.801  0.00  0.00    +0.000 C 
ATOM     17  C   UNL     1       5.437   5.218  15.730  0.00  0.00    +0.000 C 
ATOM     18  C   UNL     1       6.369   4.548  16.680  0.00  0.00    +0.000 C 
ENDBRANCH  13  16
ENDBRANCH   5   7
BRANCH   1  19
ATOM     19  S   UNL     1       0.120  13.102  21.532  0.00  0.00    +0.000 S 
ATOM     20  O   UNL     1       1.524  13.439  21.427  0.00  0.00    +0.000 OA
ATOM     21  O   UNL     1      -0.654  13.556  22.670  0.00  0.00    +0.000 OA
BRANCH  19  22
ATOM     22  N   UNL     1      -0.678  13.568  20.119  0.00  0.00    +0.000 N 
BRANCH  22  23
ATOM     23  C   UNL     1      -1.991  13.050  19.860  0.00  0.00    +0.000 A 
ATOM     24  C   UNL     1      -3.061  13.618  20.569  0.00  0.00    +0.000 A 
ATOM     25  C   UNL     1      -4.373  13.187  20.360  0.00  0.00    +0.000 A 
ATOM     26  C   UNL     1      -4.632  12.181  19.437  0.00  0.00    +0.000 A 
ATOM     27  C   UNL     1      -3.580  11.625  18.708  0.00  0.00    +0.000 A 
ATOM     28  C   UNL     1      -2.256  12.048  18.906  0.00  0.00    +0.000 A 
BRANCH  28  29
ATOM     29  O   UNL     1      -1.390  11.468  18.019  0.00  0.00    +0.000 OA
ATOM     30  C   UNL     1      -1.720  10.197  17.482  0.00  0.00    +0.000 C 
ENDBRANCH  28  29
ENDBRANCH  22  23
BRANCH  22  31
ATOM     31  C   UNL     1      -0.011  14.409  19.119  0.00  0.00    +0.000 C 
BRANCH  31  33
ATOM     32  C   UNL     1       0.387  16.886  18.983  0.00  0.00    +0.000 C 
ATOM     33  C   UNL     1      -0.409  15.846  19.273  0.00  0.00    +0.000 C 
ENDBRANCH  31  33
ENDBRANCH  22  31
ENDBRANCH  19  22
ENDBRANCH   1  19
TORSDOF 8
ENDMDL
MODEL 2
REMARK VINA RESULT:      -7.4      0.939      1.627
REMARK  Name = 
REMARK  9 active torsions:
REMARK  status: ('A' for Active; 'I' for Inactive)
REMARK    1  A    between atoms: C_2  and  C_3
REMARK    2  A    between atoms: C_3  and  N_4
REMARK    3  A    between atoms: N_4  and  C_5
REMARK    4  A    between atoms: N_4  and  S_13
REMARK    5  A    between atoms: C_10  and  O_11
REMARK    6  A    between atoms: O_11  and  C_12
REMARK    7  A    between atoms: S_13  and  C_16
REMARK    8  A    between atoms: C_20  and  C_21
REMARK    9  A    between atoms: C_27  and  C_28
REMARK                            x       y       z     vdW  Elec       q    Type
REMARK                         _______ _______ _______ _____ _____    ______ ____
ROOT
ATOM      1  C   UNL     1       0.225  11.354  21.341  0.00  0.00    +0.000 A 
ATOM      2  C   UNL     1      -0.508  10.742  22.366  0.00  0.00    +0.000 A 
ATOM      3  C   UNL     1      -0.542   9.354  22.450  0.00  0.00    +0.000 A 
ATOM      4  C   UNL     1       0.179   8.582  21.538  0.00  0.00    +0.000 A 
ATOM      5  C   UNL     1       0.947   9.180  20.521  0.00  0.00    +0.000 A 
ATOM      6  C   UNL     1       0.965  10.580  20.427  0.00  0.00    +0.000 A 
ENDROOT
BRANCH   5   7
ATOM      7  C   UNL     1       1.696   8.260  19.596  0.00  0.00    +0.000 C 
ATOM      8  O   UNL     1       1.754   8.576  18.411  0.00  0.00    +0.000 OA
ATOM      9  N   UNL     1       2.230   7.117  20.148  0.00  0.00    +0.000 N 
ATOM     10  C   UNL     1       2.967   6.166  19.476  0.00  0.00    +0.000 A 
ATOM     11  N   UNL     1       3.272   5.005  20.016  0.00  0.00    +0.000 NA
ATOM     12  N   UNL     1       3.979   4.194  19.147  0.00  0.00    +0.000 NA
ATOM     13  C   UNL     1       4.219   4.800  18.004  0.00  0.00    +0.000 A 
ATOM     14  S   UNL     1       3.615   6.398  17.913  0.00  0.00    +0.000 S 
ATOM     15  H   UNL     1       1.986   6.824  21.082  0.00  0.00    +0.000 HD
BRANCH  13  16
ATOM     16  C   UNL     1       4.960   4.133  16.844  0.00  0.00    +0.000 C 
ATOM     17  C   UNL     1       5.431   4.990  15.685  0.00  0.00    +0.000 C 
ATOM     18  C   UNL     1       6.429   4.463  16.657  0.00  0.00    +0.000 C 
ENDBRANCH  13  16
ENDBRANCH   5   7
BRANCH   1  19
ATOM     19  S   UNL     1       0.425  13.134  21.361  0.00  0.00    +0.000 S 
ATOM     20  O   UNL     1       1.851  13.366  21.257  0.00  0.00    +0.000 OA
ATOM     21  O   UNL     1      -0.307  13.619  22.513  0.00  0.00    +0.000 OA
BRANCH  19  22
ATOM     22  N   UNL     1      -0.338  13.693  19.963  0.00  0.00    +0.000 N 
BRANCH  22  23
ATOM     23  C   UNL     1      -1.479  12.979  19.463  0.00  0.00    +0.000 A 
ATOM     24  C   UNL     1      -1.303  12.217  18.297  0.00  0.00    +0.000 A 
ATOM     25  C   UNL     1      -2.355  11.475  17.756  0.00  0.00    +0.000 A 
ATOM     26  C   UNL     1      -3.599  11.484  18.377  0.00  0.00    +0.000 A 
ATOM     27  C   UNL     1      -3.779  12.217  19.550  0.00  0.00    +0.000 A 
ATOM     28  C   UNL     1      -2.731  12.967  20.106  0.00  0.00    +0.000 A 
BRANCH  28  29
ATOM     29  O   UNL     1      -3.074  13.518  21.312  0.00  0.00    +0.000 OA
ATOM     30  C   UNL     1      -3.749  12.708  22.261  0.00  0.00    +0.000 C 
ENDBRANCH  28  29
ENDBRANCH  22  23
BRANCH  22  31
ATOM     31  C   UNL     1       0.205  14.828  19.209  0.00  0.00    +0.000 C 
BRANCH  31  33
ATOM     32  C   UNL     1      -0.628  17.091  18.506  0.00  0.00    +0.000 C 
ATOM     33  C   UNL     1      -0.695  16.022  19.312  0.00  0.00    +0.000 C 
ENDBRANCH  31  33
ENDBRANCH  22  31
ENDBRANCH  19  22
ENDBRANCH   1  19
TORSDOF 8
ENDMDL
MODEL 3
REMARK VINA RESULT:      -7.4      1.371      3.518
REMARK  Name = 
REMARK  9 active torsions:
REMARK  status: ('A' for Active; 'I' for Inactive)
REMARK    1  A    between atoms: C_2  and  C_3
REMARK    2  A    between atoms: C_3  and  N_4
REMARK    3  A    between atoms: N_4  and  C_5
REMARK    4  A    between atoms: N_4  and  S_13
REMARK    5  A    between atoms: C_10  and  O_11
REMARK    6  A    between atoms: O_11  and  C_12
REMARK    7  A    between atoms: S_13  and  C_16
REMARK    8  A    between atoms: C_20  and  C_21
REMARK    9  A    between atoms: C_27  and  C_28
REMARK                            x       y       z     vdW  Elec       q    Type
REMARK                         _______ _______ _______ _____ _____    ______ ____
ROOT
ATOM      1  C   UNL     1       0.071  11.291  21.431  0.00  0.00    +0.000 A 
ATOM      2  C   UNL     1      -0.536  10.647  22.517  0.00  0.00    +0.000 A 
ATOM      3  C   UNL     1      -0.445   9.264  22.631  0.00  0.00    +0.000 A 
ATOM      4  C   UNL     1       0.278   8.531  21.688  0.00  0.00    +0.000 A 
ATOM      5  C   UNL     1       0.921   9.165  20.608  0.00  0.00    +0.000 A 
ATOM      6  C   UNL     1       0.812  10.559  20.485  0.00  0.00    +0.000 A 
ENDROOT
BRANCH   5   7
ATOM      7  C   UNL     1       1.684   8.288  19.654  0.00  0.00    +0.000 C 
ATOM      8  O   UNL     1       1.742   8.647  18.481  0.00  0.00    +0.000 OA
ATOM      9  N   UNL     1       2.227   7.131  20.165  0.00  0.00    +0.000 N 
ATOM     10  C   UNL     1       2.978   6.213  19.462  0.00  0.00    +0.000 A 
ATOM     11  N   UNL     1       3.293   5.037  19.961  0.00  0.00    +0.000 NA
ATOM     12  N   UNL     1       4.012   4.266  19.066  0.00  0.00    +0.000 NA
ATOM     13  C   UNL     1       4.250   4.916  17.946  0.00  0.00    +0.000 A 
ATOM     14  S   UNL     1       3.629   6.509  17.911  0.00  0.00    +0.000 S 
ATOM     15  H   UNL     1       1.984   6.801  21.087  0.00  0.00    +0.000 HD
BRANCH  13  16
ATOM     16  C   UNL     1       5.002   4.299  16.766  0.00  0.00    +0.000 C 
ATOM     17  C   UNL     1       5.457   5.201  15.635  0.00  0.00    +0.000 C 
ATOM     18  C   UNL     1       6.465   4.661  16.590  0.00  0.00    +0.000 C 
ENDBRANCH  13  16
ENDBRANCH   5   7
BRANCH   1  19
ATOM     19  S   UNL     1       0.117  13.081  21.400  0.00  0.00    +0.000 S 
ATOM     20  O   UNL     1       1.440  13.444  21.864  0.00  0.00    +0.000 OA
ATOM     21  O   UNL     1      -1.055  13.537  22.118  0.00  0.00    +0.000 OA
BRANCH  19  22
ATOM     22  N   UNL     1      -0.046  13.513  19.776  0.00  0.00    +0.000 N 
BRANCH  22  23
ATOM     23  C   UNL     1       1.040  14.190  19.126  0.00  0.00    +0.000 A 
ATOM     24  C   UNL     1       2.078  13.398  18.608  0.00  0.00    +0.000 A 
ATOM     25  C   UNL     1       3.160  13.976  17.942  0.00  0.00    +0.000 A 
ATOM     26  C   UNL     1       3.218  15.355  17.781  0.00  0.00    +0.000 A 
ATOM     27  C   UNL     1       2.181  16.150  18.269  0.00  0.00    +0.000 A 
ATOM     28  C   UNL     1       1.086  15.585  18.941  0.00  0.00    +0.000 A 
BRANCH  28  29
ATOM     29  O   UNL     1       0.125  16.515  19.237  0.00  0.00    +0.000 OA
ATOM     30  C   UNL     1      -0.576  17.129  18.168  0.00  0.00    +0.000 C 
ENDBRANCH  28  29
ENDBRANCH  22  23
BRANCH  22  31
ATOM     31  C   UNL     1      -1.307  13.294  19.060  0.00  0.00    +0.000 C 
BRANCH  31  33
ATOM     32  C   UNL     1      -2.025  11.072  18.135  0.00  0.00    +0.000 C 
ATOM     33  C   UNL     1      -1.200  12.129  18.124  0.00  0.00    +0.000 C 
ENDBRANCH  31  33
ENDBRANCH  22  31
ENDBRANCH  19  22
ENDBRANCH   1  19
TORSDOF 8
ENDMDL
MODEL 4
REMARK VINA RESULT:      -7.3      5.826      9.842
REMARK  Name = 
REMARK  9 active torsions:
REMARK  status: ('A' for Active; 'I' for Inactive)
REMARK    1  A    between atoms: C_2  and  C_3
REMARK    2  A    between atoms: C_3  and  N_4
REMARK    3  A    between atoms: N_4  and  C_5
REMARK    4  A    between atoms: N_4  and  S_13
REMARK    5  A    between atoms: C_10  and  O_11
REMARK    6  A    between atoms: O_11  and  C_12
REMARK    7  A    between atoms: S_13  and  C_16
REMARK    8  A    between atoms: C_20  and  C_21
REMARK    9  A    between atoms: C_27  and  C_28
REMARK                            x       y       z     vdW  Elec       q    Type
REMARK                         _______ _______ _______ _____ _____    ______ ____
ROOT
ATOM      1  C   UNL     1       6.719   6.229  17.259  0.00  0.00    +0.000 A 
ATOM      2  C   UNL     1       7.211   5.396  18.272  0.00  0.00    +0.000 A 
ATOM      3  C   UNL     1       8.108   5.906  19.204  0.00  0.00    +0.000 A 
ATOM      4  C   UNL     1       8.485   7.248  19.148  0.00  0.00    +0.000 A 
ATOM      5  C   UNL     1       7.976   8.109  18.157  0.00  0.00    +0.000 A 
ATOM      6  C   UNL     1       7.085   7.587  17.206  0.00  0.00    +0.000 A 
ENDROOT
BRANCH   5   7
ATOM      7  C   UNL     1       8.436   9.541  18.190  0.00  0.00    +0.000 C 
ATOM      8  O   UNL     1       7.982  10.299  17.337  0.00  0.00    +0.000 OA
ATOM      9  N   UNL     1       9.357   9.880  19.155  0.00  0.00    +0.000 N 
ATOM     10  C   UNL     1       9.880  11.138  19.364  0.00  0.00    +0.000 A 
ATOM     11  N   UNL     1      10.901  11.348  20.168  0.00  0.00    +0.000 NA
ATOM     12  N   UNL     1      11.282  12.677  20.191  0.00  0.00    +0.000 NA
ATOM     13  C   UNL     1      10.499  13.421  19.439  0.00  0.00    +0.000 A 
ATOM     14  S   UNL     1       9.240  12.560  18.666  0.00  0.00    +0.000 S 
ATOM     15  H   UNL     1       9.828   9.174  19.700  0.00  0.00    +0.000 HD
BRANCH  13  16
ATOM     16  C   UNL     1      10.701  14.926  19.254  0.00  0.00    +0.000 C 
ATOM     17  C   UNL     1       9.562  15.755  18.694  0.00  0.00    +0.000 C 
ATOM     18  C   UNL     1       9.902  15.863  20.140  0.00  0.00    +0.000 C 
ENDBRANCH  13  16
ENDBRANCH   5   7
BRANCH   1  19
ATOM     19  S   UNL     1       5.418   5.620  16.190  0.00  0.00    +0.000 S 
ATOM     20  O   UNL     1       5.969   4.455  15.532  0.00  0.00    +0.000 OA
ATOM     21  O   UNL     1       4.965   6.751  15.405  0.00  0.00    +0.000 OA
BRANCH  19  22
ATOM     22  N   UNL     1       4.167   5.145  17.219  0.00  0.00    +0.000 N 
BRANCH  22  23
ATOM     23  C   UNL     1       3.447   6.152  17.945  0.00  0.00    +0.000 A 
ATOM     24  C   UNL     1       3.014   7.280  17.229  0.00  0.00    +0.000 A 
ATOM     25  C   UNL     1       2.288   8.295  17.856  0.00  0.00    +0.000 A 
ATOM     26  C   UNL     1       1.982   8.195  19.208  0.00  0.00    +0.000 A 
ATOM     27  C   UNL     1       2.385   7.067  19.924  0.00  0.00    +0.000 A 
ATOM     28  C   UNL     1       3.115   6.038  19.309  0.00  0.00    +0.000 A 
BRANCH  28  29
ATOM     29  O   UNL     1       3.312   4.973  20.147  0.00  0.00    +0.000 OA
ATOM     30  C   UNL     1       2.295   4.646  21.079  0.00  0.00    +0.000 C 
ENDBRANCH  28  29
ENDBRANCH  22  23
BRANCH  22  31
ATOM     31  C   UNL     1       3.878   3.726  17.451  0.00  0.00    +0.000 C 
BRANCH  31  33
ATOM     32  C   UNL     1       1.546   2.958  17.981  0.00  0.00    +0.000 C 
ATOM     33  C   UNL     1       2.457   3.402  17.103  0.00  0.00    +0.000 C 
ENDBRANCH  31  33
ENDBRANCH  22  31
ENDBRANCH  19  22
ENDBRANCH   1  19
TORSDOF 8
ENDMDL
MODEL 5
REMARK VINA RESULT:      -7.1      1.418      1.598
REMARK  Name = 
REMARK  9 active torsions:
REMARK  status: ('A' for Active; 'I' for Inactive)
REMARK    1  A    between atoms: C_2  and  C_3
REMARK    2  A    between atoms: C_3  and  N_4
REMARK    3  A    between atoms: N_4  and  C_5
REMARK    4  A    between atoms: N_4  and  S_13
REMARK    5  A    between atoms: C_10  and  O_11
REMARK    6  A    between atoms: O_11  and  C_12
REMARK    7  A    between atoms: S_13  and  C_16
REMARK    8  A    between atoms: C_20  and  C_21
REMARK    9  A    between atoms: C_27  and  C_28
REMARK                            x       y       z     vdW  Elec       q    Type
REMARK                         _______ _______ _______ _____ _____    ______ ____
ROOT
ATOM      1  C   UNL     1       0.271  11.561  21.480  0.00  0.00    +0.000 A 
ATOM      2  C   UNL     1      -0.529  11.235  22.583  0.00  0.00    +0.000 A 
ATOM      3  C   UNL     1      -0.710   9.900  22.927  0.00  0.00    +0.000 A 
ATOM      4  C   UNL     1      -0.069   8.898  22.197  0.00  0.00    +0.000 A 
ATOM      5  C   UNL     1       0.764   9.208  21.106  0.00  0.00    +0.000 A 
ATOM      6  C   UNL     1       0.930  10.556  20.749  0.00  0.00    +0.000 A 
ENDROOT
BRANCH   5   7
ATOM      7  C   UNL     1       1.418   8.057  20.392  0.00  0.00    +0.000 C 
ATOM      8  O   UNL     1       1.870   8.271  19.271  0.00  0.00    +0.000 OA
ATOM      9  N   UNL     1       1.427   6.842  21.041  0.00  0.00    +0.000 N 
ATOM     10  C   UNL     1       1.995   5.680  20.569  0.00  0.00    +0.000 A 
ATOM     11  N   UNL     1       1.792   4.515  21.146  0.00  0.00    +0.000 NA
ATOM     12  N   UNL     1       2.425   3.483  20.478  0.00  0.00    +0.000 NA
ATOM     13  C   UNL     1       3.120   3.923  19.450  0.00  0.00    +0.000 A 
ATOM     14  S   UNL     1       3.062   5.619  19.236  0.00  0.00    +0.000 S 
ATOM     15  H   UNL     1       0.875   6.689  21.873  0.00  0.00    +0.000 HD
BRANCH  13  16
ATOM     16  C   UNL     1       3.901   3.001  18.514  0.00  0.00    +0.000 C 
ATOM     17  C   UNL     1       3.580   1.519  18.507  0.00  0.00    +0.000 C 
ATOM     18  C   UNL     1       3.155   2.365  17.357  0.00  0.00    +0.000 C 
ENDBRANCH  13  16
ENDBRANCH   5   7
BRANCH   1  19
ATOM     19  S   UNL     1       0.657  13.282  21.167  0.00  0.00    +0.000 S 
ATOM     20  O   UNL     1       2.000  13.286  20.625  0.00  0.00    +0.000 OA
ATOM     21  O   UNL     1       0.366  14.000  22.391  0.00  0.00    +0.000 OA
BRANCH  19  22
ATOM     22  N   UNL     1      -0.430  13.784  19.977  0.00  0.00    +0.000 N 
BRANCH  22  23
ATOM     23  C   UNL     1      -1.828  13.514  20.158  0.00  0.00    +0.000 A 
ATOM     24  C   UNL     1      -2.568  14.426  20.928  0.00  0.00    +0.000 A 
ATOM     25  C   UNL     1      -3.938  14.250  21.134  0.00  0.00    +0.000 A 
ATOM     26  C   UNL     1      -4.588  13.158  20.569  0.00  0.00    +0.000 A 
ATOM     27  C   UNL     1      -3.869  12.259  19.782  0.00  0.00    +0.000 A 
ATOM     28  C   UNL     1      -2.492  12.423  19.565  0.00  0.00    +0.000 A 
BRANCH  28  29
ATOM     29  O   UNL     1      -1.997  11.507  18.675  0.00  0.00    +0.000 OA
ATOM     30  C   UNL     1      -2.616  11.392  17.404  0.00  0.00    +0.000 C 
ENDBRANCH  28  29
ENDBRANCH  22  23
BRANCH  22  31
ATOM     31  C   UNL     1       0.044  14.396  18.732  0.00  0.00    +0.000 C 
BRANCH  31  33
ATOM     32  C   UNL     1       0.713  16.698  19.483  0.00  0.00    +0.000 C 
ATOM     33  C   UNL     1      -0.092  15.888  18.780  0.00  0.00    +0.000 C 
ENDBRANCH  31  33
ENDBRANCH  22  31
ENDBRANCH  19  22
ENDBRANCH   1  19
TORSDOF 8
ENDMDL
MODEL 6
REMARK VINA RESULT:      -7.1      6.033      9.893
REMARK  Name = 
REMARK  9 active torsions:
REMARK  status: ('A' for Active; 'I' for Inactive)
REMARK    1  A    between atoms: C_2  and  C_3
REMARK    2  A    between atoms: C_3  and  N_4
REMARK    3  A    between atoms: N_4  and  C_5
REMARK    4  A    between atoms: N_4  and  S_13
REMARK    5  A    between atoms: C_10  and  O_11
REMARK    6  A    between atoms: O_11  and  C_12
REMARK    7  A    between atoms: S_13  and  C_16
REMARK    8  A    between atoms: C_20  and  C_21
REMARK    9  A    between atoms: C_27  and  C_28
REMARK                            x       y       z     vdW  Elec       q    Type
REMARK                         _______ _______ _______ _____ _____    ______ ____
ROOT
ATOM      1  C   UNL     1       6.400   5.750  17.541  0.00  0.00    +0.000 A 
ATOM      2  C   UNL     1       7.011   4.946  18.511  0.00  0.00    +0.000 A 
ATOM      3  C   UNL     1       8.039   5.469  19.287  0.00  0.00    +0.000 A 
ATOM      4  C   UNL     1       8.433   6.797  19.120  0.00  0.00    +0.000 A 
ATOM      5  C   UNL     1       7.809   7.630  18.172  0.00  0.00    +0.000 A 
ATOM      6  C   UNL     1       6.784   7.094  17.377  0.00  0.00    +0.000 A 
ENDROOT
BRANCH   5   7
ATOM      7  C   UNL     1       8.299   9.049  18.079  0.00  0.00    +0.000 C 
ATOM      8  O   UNL     1       7.981   9.691  17.082  0.00  0.00    +0.000 OA
ATOM      9  N   UNL     1       9.095   9.506  19.105  0.00  0.00    +0.000 N 
ATOM     10  C   UNL     1       9.620  10.775  19.216  0.00  0.00    +0.000 A 
ATOM     11  N   UNL     1      10.532  11.081  20.113  0.00  0.00    +0.000 NA
ATOM     12  N   UNL     1      10.943  12.398  20.013  0.00  0.00    +0.000 NA
ATOM     13  C   UNL     1      10.285  13.042  19.073  0.00  0.00    +0.000 A 
ATOM     14  S   UNL     1       9.115  12.097  18.259  0.00  0.00    +0.000 S 
ATOM     15  H   UNL     1       9.472   8.874  19.796  0.00  0.00    +0.000 HD
BRANCH  13  16
ATOM     16  C   UNL     1      10.549  14.507  18.722  0.00  0.00    +0.000 C 
ATOM     17  C   UNL     1       9.392  15.370  18.257  0.00  0.00    +0.000 C 
ATOM     18  C   UNL     1       9.953  15.572  19.622  0.00  0.00    +0.000 C 
ENDBRANCH  13  16
ENDBRANCH   5   7
BRANCH   1  19
ATOM     19  S   UNL     1       4.951   5.133  16.688  0.00  0.00    +0.000 S 
ATOM     20  O   UNL     1       5.137   3.701  16.592  0.00  0.00    +0.000 OA
ATOM     21  O   UNL     1       4.808   5.930  15.486  0.00  0.00    +0.000 OA
BRANCH  19  22
ATOM     22  N   UNL     1       3.647   5.463  17.709  0.00  0.00    +0.000 N 
BRANCH  22  23
ATOM     23  C   UNL     1       2.839   4.373  18.177  0.00  0.00    +0.000 A 
ATOM     24  C   UNL     1       1.560   4.231  17.615  0.00  0.00    +0.000 A 
ATOM     25  C   UNL     1       0.718   3.184  17.998  0.00  0.00    +0.000 A 
ATOM     26  C   UNL     1       1.146   2.264  18.948  0.00  0.00    +0.000 A 
ATOM     27  C   UNL     1       2.424   2.380  19.494  0.00  0.00    +0.000 A 
ATOM     28  C   UNL     1       3.282   3.426  19.119  0.00  0.00    +0.000 A 
BRANCH  28  29
ATOM     29  O   UNL     1       4.526   3.299  19.677  0.00  0.00    +0.000 OA
ATOM     30  C   UNL     1       4.826   2.119  20.405  0.00  0.00    +0.000 C 
ENDBRANCH  28  29
ENDBRANCH  22  23
BRANCH  22  31
ATOM     31  C   UNL     1       3.277   6.844  18.038  0.00  0.00    +0.000 C 
BRANCH  31  33
ATOM     32  C   UNL     1       1.901   7.584  20.005  0.00  0.00    +0.000 C 
ATOM     33  C   UNL     1       2.993   6.990  19.502  0.00  0.00    +0.000 C 
ENDBRANCH  31  33
ENDBRANCH  22  31
ENDBRANCH  19  22
ENDBRANCH   1  19
TORSDOF 8
ENDMDL
MODEL 7
REMARK VINA RESULT:      -7.1      2.278      3.589
REMARK  Name = 
REMARK  9 active torsions:
REMARK  status: ('A' for Active; 'I' for Inactive)
REMARK    1  A    between atoms: C_2  and  C_3
REMARK    2  A    between atoms: C_3  and  N_4
REMARK    3  A    between atoms: N_4  and  C_5
REMARK    4  A    between atoms: N_4  and  S_13
REMARK    5  A    between atoms: C_10  and  O_11
REMARK    6  A    between atoms: O_11  and  C_12
REMARK    7  A    between atoms: S_13  and  C_16
REMARK    8  A    between atoms: C_20  and  C_21
REMARK    9  A    between atoms: C_27  and  C_28
REMARK                            x       y       z     vdW  Elec       q    Type
REMARK                         _______ _______ _______ _____ _____    ______ ____
ROOT
ATOM      1  C   UNL     1       1.189   9.515  19.859  0.00  0.00    +0.000 A 
ATOM      2  C   UNL     1       0.762   8.886  21.035  0.00  0.00    +0.000 A 
ATOM      3  C   UNL     1       1.070   7.546  21.246  0.00  0.00    +0.000 A 
ATOM      4  C   UNL     1       1.829   6.848  20.306  0.00  0.00    +0.000 A 
ATOM      5  C   UNL     1       2.294   7.472  19.134  0.00  0.00    +0.000 A 
ATOM      6  C   UNL     1       1.966   8.819  18.914  0.00  0.00    +0.000 A 
ENDROOT
BRANCH   5   7
ATOM      7  C   UNL     1       3.114   6.636  18.190  0.00  0.00    +0.000 C 
ATOM      8  O   UNL     1       2.636   5.567  17.823  0.00  0.00    +0.000 OA
ATOM      9  N   UNL     1       4.354   7.122  17.839  0.00  0.00    +0.000 N 
ATOM     10  C   UNL     1       5.240   6.520  16.971  0.00  0.00    +0.000 A 
ATOM     11  N   UNL     1       6.482   6.936  16.839  0.00  0.00    +0.000 NA
ATOM     12  N   UNL     1       7.200   6.159  15.947  0.00  0.00    +0.000 NA
ATOM     13  C   UNL     1       6.451   5.219  15.409  0.00  0.00    +0.000 A 
ATOM     14  S   UNL     1       4.825   5.225  15.938  0.00  0.00    +0.000 S 
ATOM     15  H   UNL     1       4.763   7.909  18.320  0.00  0.00    +0.000 HD
BRANCH  13  16
ATOM     16  C   UNL     1       6.987   4.195  14.408  0.00  0.00    +0.000 C 
ATOM     17  C   UNL     1       6.077   3.711  13.296  0.00  0.00    +0.000 C 
ATOM     18  C   UNL     1       7.192   4.645  12.974  0.00  0.00    +0.000 C 
ENDBRANCH  13  16
ENDBRANCH   5   7
BRANCH   1  19
ATOM     19  S   UNL     1       0.961  11.283  19.688  0.00  0.00    +0.000 S 
ATOM     20  O   UNL     1       1.633  11.645  18.458  0.00  0.00    +0.000 OA
ATOM     21  O   UNL     1       1.375  11.876  20.944  0.00  0.00    +0.000 OA
BRANCH  19  22
ATOM     22  N   UNL     1      -0.702  11.512  19.508  0.00  0.00    +0.000 N 
BRANCH  22  23
ATOM     23  C   UNL     1      -1.338  12.575  20.234  0.00  0.00    +0.000 A 
ATOM     24  C   UNL     1      -2.088  12.223  21.368  0.00  0.00    +0.000 A 
ATOM     25  C   UNL     1      -2.721  13.198  22.143  0.00  0.00    +0.000 A 
ATOM     26  C   UNL     1      -2.610  14.539  21.795  0.00  0.00    +0.000 A 
ATOM     27  C   UNL     1      -1.847  14.903  20.685  0.00  0.00    +0.000 A 
ATOM     28  C   UNL     1      -1.205  13.935  19.896  0.00  0.00    +0.000 A 
BRANCH  28  29
ATOM     29  O   UNL     1      -0.416  14.498  18.929  0.00  0.00    +0.000 OA
ATOM     30  C   UNL     1       0.790  15.134  19.321  0.00  0.00    +0.000 C 
ENDBRANCH  28  29
ENDBRANCH  22  23
BRANCH  22  31
ATOM     31  C   UNL     1      -1.509  10.587  18.706  0.00  0.00    +0.000 C 
BRANCH  31  33
ATOM     32  C   UNL     1      -3.132  10.905  16.816  0.00  0.00    +0.000 C 
ATOM     33  C   UNL     1      -2.007  11.251  17.458  0.00  0.00    +0.000 C 
ENDBRANCH  31  33
ENDBRANCH  22  31
ENDBRANCH  19  22
ENDBRANCH   1  19
TORSDOF 8
ENDMDL
MODEL 8
REMARK VINA RESULT:      -7.0      1.132      1.606
REMARK  Name = 
REMARK  9 active torsions:
REMARK  status: ('A' for Active; 'I' for Inactive)
REMARK    1  A    between atoms: C_2  and  C_3
REMARK    2  A    between atoms: C_3  and  N_4
REMARK    3  A    between atoms: N_4  and  C_5
REMARK    4  A    between atoms: N_4  and  S_13
REMARK    5  A    between atoms: C_10  and  O_11
REMARK    6  A    between atoms: O_11  and  C_12
REMARK    7  A    between atoms: S_13  and  C_16
REMARK    8  A    between atoms: C_20  and  C_21
REMARK    9  A    between atoms: C_27  and  C_28
REMARK                            x       y       z     vdW  Elec       q    Type
REMARK                         _______ _______ _______ _____ _____    ______ ____
ROOT
ATOM      1  C   UNL     1      -0.156  11.457  21.938  0.00  0.00    +0.000 A 
ATOM      2  C   UNL     1      -0.762  10.714  22.960  0.00  0.00    +0.000 A 
ATOM      3  C   UNL     1      -0.674   9.327  22.943  0.00  0.00    +0.000 A 
ATOM      4  C   UNL     1       0.044   8.685  21.934  0.00  0.00    +0.000 A 
ATOM      5  C   UNL     1       0.687   9.416  20.917  0.00  0.00    +0.000 A 
ATOM      6  C   UNL     1       0.581  10.815  20.925  0.00  0.00    +0.000 A 
ENDROOT
BRANCH   5   7
ATOM      7  C   UNL     1       1.445   8.630  19.882  0.00  0.00    +0.000 C 
ATOM      8  O   UNL     1       1.491   9.092  18.745  0.00  0.00    +0.000 OA
ATOM      9  N   UNL     1       2.000   7.436  20.285  0.00  0.00    +0.000 N 
ATOM     10  C   UNL     1       2.749   6.589  19.497  0.00  0.00    +0.000 A 
ATOM     11  N   UNL     1       3.075   5.375  19.888  0.00  0.00    +0.000 NA
ATOM     12  N   UNL     1       3.790   4.690  18.922  0.00  0.00    +0.000 NA
ATOM     13  C   UNL     1       4.013   5.437  17.861  0.00  0.00    +0.000 A 
ATOM     14  S   UNL     1       3.383   7.023  17.972  0.00  0.00    +0.000 S 
ATOM     15  H   UNL     1       1.767   7.026  21.177  0.00  0.00    +0.000 HD
BRANCH  13  16
ATOM     16  C   UNL     1       4.758   4.932  16.625  0.00  0.00    +0.000 C 
ATOM     17  C   UNL     1       5.327   5.942  15.648  0.00  0.00    +0.000 C 
ATOM     18  C   UNL     1       6.250   5.188  16.541  0.00  0.00    +0.000 C 
ENDBRANCH  13  16
ENDBRANCH   5   7
BRANCH   1  19
ATOM     19  S   UNL     1      -0.105  13.242  22.075  0.00  0.00    +0.000 S 
ATOM     20  O   UNL     1       1.209  13.630  21.606  0.00  0.00    +0.000 OA
ATOM     21  O   UNL     1      -0.518  13.564  23.427  0.00  0.00    +0.000 OA
BRANCH  19  22
ATOM     22  N   UNL     1      -1.277  13.815  21.004  0.00  0.00    +0.000 N 
BRANCH  22  23
ATOM     23  C   UNL     1      -1.557  13.061  19.816  0.00  0.00    +0.000 A 
ATOM     24  C   UNL     1      -2.754  12.326  19.784  0.00  0.00    +0.000 A 
ATOM     25  C   UNL     1      -3.114  11.584  18.657  0.00  0.00    +0.000 A 
ATOM     26  C   UNL     1      -2.281  11.567  17.545  0.00  0.00    +0.000 A 
ATOM     27  C   UNL     1      -1.102  12.312  17.554  0.00  0.00    +0.000 A 
ATOM     28  C   UNL     1      -0.727  13.064  18.679  0.00  0.00    +0.000 A 
BRANCH  28  29
ATOM     29  O   UNL     1       0.397  13.812  18.448  0.00  0.00    +0.000 OA
ATOM     30  C   UNL     1       1.633  13.141  18.265  0.00  0.00    +0.000 C 
ENDBRANCH  28  29
ENDBRANCH  22  23
BRANCH  22  31
ATOM     31  C   UNL     1      -1.931  15.109  21.223  0.00  0.00    +0.000 C 
BRANCH  31  33
ATOM     32  C   UNL     1      -0.362  17.071  21.194  0.00  0.00    +0.000 C 
ATOM     33  C   UNL     1      -1.172  16.215  20.554  0.00  0.00    +0.000 C 
ENDBRANCH  31  33
ENDBRANCH  22  31
ENDBRANCH  19  22
ENDBRANCH   1  19
TORSDOF 8
ENDMDL
MODEL 9
REMARK VINA RESULT:      -7.0      2.772     10.179
REMARK  Name = 
REMARK  9 active torsions:
REMARK  status: ('A' for Active; 'I' for Inactive)
REMARK    1  A    between atoms: C_2  and  C_3
REMARK    2  A    between atoms: C_3  and  N_4
REMARK    3  A    between atoms: N_4  and  C_5
REMARK    4  A    between atoms: N_4  and  S_13
REMARK    5  A    between atoms: C_10  and  O_11
REMARK    6  A    between atoms: O_11  and  C_12
REMARK    7  A    between atoms: S_13  and  C_16
REMARK    8  A    between atoms: C_20  and  C_21
REMARK    9  A    between atoms: C_27  and  C_28
REMARK                            x       y       z     vdW  Elec       q    Type
REMARK                         _______ _______ _______ _____ _____    ______ ____
ROOT
ATOM      1  C   UNL     1       2.249   7.412  19.248  0.00  0.00    +0.000 A 
ATOM      2  C   UNL     1       2.564   8.106  18.073  0.00  0.00    +0.000 A 
ATOM      3  C   UNL     1       2.003   9.358  17.844  0.00  0.00    +0.000 A 
ATOM      4  C   UNL     1       1.161   9.929  18.798  0.00  0.00    +0.000 A 
ATOM      5  C   UNL     1       0.858   9.261  20.000  0.00  0.00    +0.000 A 
ATOM      6  C   UNL     1       1.411   7.990  20.219  0.00  0.00    +0.000 A 
ENDROOT
BRANCH   5   7
ATOM      7  C   UNL     1      -0.051   9.967  20.968  0.00  0.00    +0.000 C 
ATOM      8  O   UNL     1      -0.154   9.492  22.095  0.00  0.00    +0.000 OA
ATOM      9  N   UNL     1      -0.724  11.074  20.501  0.00  0.00    +0.000 N 
ATOM     10  C   UNL     1      -1.578  11.868  21.235  0.00  0.00    +0.000 A 
ATOM     11  N   UNL     1      -2.338  12.785  20.674  0.00  0.00    +0.000 NA
ATOM     12  N   UNL     1      -3.144  13.429  21.596  0.00  0.00    +0.000 NA
ATOM     13  C   UNL     1      -2.920  13.003  22.821  0.00  0.00    +0.000 A 
ATOM     14  S   UNL     1      -1.707  11.802  22.937  0.00  0.00    +0.000 S 
ATOM     15  H   UNL     1      -0.741  11.300  19.517  0.00  0.00    +0.000 HD
BRANCH  13  16
ATOM     16  C   UNL     1      -3.685  13.520  24.039  0.00  0.00    +0.000 C 
ATOM     17  C   UNL     1      -5.176  13.770  23.916  0.00  0.00    +0.000 C 
ATOM     18  C   UNL     1      -4.693  12.593  24.691  0.00  0.00    +0.000 C 
ENDBRANCH  13  16
ENDBRANCH   5   7
BRANCH   1  19
ATOM     19  S   UNL     1       3.128   5.897  19.624  0.00  0.00    +0.000 S 
ATOM     20  O   UNL     1       2.304   5.199  20.589  0.00  0.00    +0.000 OA
ATOM     21  O   UNL     1       4.483   6.280  19.967  0.00  0.00    +0.000 OA
BRANCH  19  22
ATOM     22  N   UNL     1       3.166   5.023  18.180  0.00  0.00    +0.000 N 
BRANCH  22  23
ATOM     23  C   UNL     1       4.415   4.882  17.488  0.00  0.00    +0.000 A 
ATOM     24  C   UNL     1       4.552   5.550  16.260  0.00  0.00    +0.000 A 
ATOM     25  C   UNL     1       5.742   5.483  15.532  0.00  0.00    +0.000 A 
ATOM     26  C   UNL     1       6.814   4.748  16.025  0.00  0.00    +0.000 A 
ATOM     27  C   UNL     1       6.699   4.101  17.255  0.00  0.00    +0.000 A 
ATOM     28  C   UNL     1       5.510   4.159  17.999  0.00  0.00    +0.000 A 
BRANCH  28  29
ATOM     29  O   UNL     1       5.637   3.560  19.223  0.00  0.00    +0.000 OA
ATOM     30  C   UNL     1       4.726   2.530  19.573  0.00  0.00    +0.000 C 
ENDBRANCH  28  29
ENDBRANCH  22  23
BRANCH  22  31
ATOM     31  C   UNL     1       1.934   4.497  17.584  0.00  0.00    +0.000 C 
BRANCH  31  33
ATOM     32  C   UNL     1       0.923   2.549  18.805  0.00  0.00    +0.000 C 
ATOM     33  C   UNL     1       1.768   3.039  17.887  0.00  0.00    +0.000 C 
ENDBRANCH  31  33
ENDBRANCH  22  31
ENDBRANCH  19  22
ENDBRANCH   1  19
TORSDOF 8
ENDMDL
