MODEL 1
REMARK VINA RESULT:      -8.2      0.000      0.000
REMARK  Name = 
REMARK  5 active torsions:
REMARK  status: ('A' for Active; 'I' for Inactive)
REMARK    1  A    between atoms: C_1  and  C_2
REMARK    2  A    between atoms: C_7  and  C_8
REMARK    3  A    between atoms: N_9  and  N_10
REMARK    4  A    between atoms: C_11  and  C_13
REMARK    5  A    between atoms: C_15  and  C_16
REMARK                            x       y       z     vdW  Elec       q    Type
REMARK                         _______ _______ _______ _____ _____    ______ ____
ROOT
ATOM      1  C   UNL     1       1.951   6.363  20.129  0.00  0.00    +0.000 C 
ATOM      2  N   UNL     1       1.866   7.659  20.155  0.00  0.00    +0.000 NA
ENDROOT
BRANCH   1   9
ATOM      3  C   UNL     1       6.569   3.925  14.126  0.00  0.00    +0.000 C 
ATOM      4  C   UNL     1       5.757   4.626  15.174  0.00  0.00    +0.000 A 
ATOM      5  C   UNL     1       5.687   6.019  15.219  0.00  0.00    +0.000 A 
ATOM      6  C   UNL     1       4.910   6.646  16.191  0.00  0.00    +0.000 A 
ATOM      7  C   UNL     1       4.206   5.886  17.139  0.00  0.00    +0.000 A 
ATOM      8  C   UNL     1       3.426   6.492  18.132  0.00  0.00    +0.000 A 
ATOM      9  C   UNL     1       2.767   5.709  19.083  0.00  0.00    +0.000 A 
ATOM     10  C   UNL     1       2.919   4.337  18.988  0.00  0.00    +0.000 A 
ATOM     11 CL   UNL     1       2.222   3.224  20.101  0.00  0.00    +0.000 Cl
ATOM     12  N   UNL     1       3.641   3.714  18.023  0.00  0.00    +0.000 NA
ATOM     13  C   UNL     1       4.275   4.478  17.115  0.00  0.00    +0.000 A 
ATOM     14  C   UNL     1       5.036   3.877  16.121  0.00  0.00    +0.000 A 
ENDBRANCH   1   9
BRANCH   2  15
ATOM     15  N   UNL     1       1.083   8.224  21.113  0.00  0.00    +0.000 N 
ATOM     16  C   UNL     1       0.212   9.241  20.744  0.00  0.00    +0.000 C 
ATOM     17  O   UNL     1       0.092   9.707  19.618  0.00  0.00    +0.000 OA
ATOM     18  H   UNL     1       1.102   7.872  22.061  0.00  0.00    +0.000 HD
BRANCH  16  19
ATOM     19  C   UNL     1      -0.633   9.749  21.862  0.00  0.00    +0.000 C 
ATOM     20  C   UNL     1      -0.181   9.631  23.296  0.00  0.00    +0.000 C 
ATOM     21  C   UNL     1      -0.181  10.986  22.633  0.00  0.00    +0.000 C 
BRANCH  21  22
ATOM     22  C   UNL     1      -1.240  12.029  22.912  0.00  0.00    +0.000 A 
ATOM     23  C   UNL     1      -1.034  13.401  22.693  0.00  0.00    +0.000 A 
ATOM     24  C   UNL     1      -1.997  14.346  23.055  0.00  0.00    +0.000 A 
ATOM     25  C   UNL     1      -3.200  13.936  23.622  0.00  0.00    +0.000 A 
ATOM     26  C   UNL     1      -3.450  12.578  23.801  0.00  0.00    +0.000 A 
ATOM     27  C   UNL     1      -2.480  11.639  23.445  0.00  0.00    +0.000 A 
ENDBRANCH  21  22
ENDBRANCH  16  19
ENDBRANCH   2  15
TORSDOF 4
ENDMDL
MODEL 2
REMARK VINA RESULT:      -8.1      0.746      1.096
REMARK  Name = 
REMARK  5 active torsions:
REMARK  status: ('A' for Active; 'I' for Inactive)
REMARK    1  A    between atoms: C_1  and  C_2
REMARK    2  A    between atoms: C_7  and  C_8
REMARK    3  A    between atoms: N_9  and  N_10
REMARK    4  A    between atoms: C_11  and  C_13
REMARK    5  A    between atoms: C_15  and  C_16
REMARK                            x       y       z     vdW  Elec       q    Type
REMARK                         _______ _______ _______ _____ _____    ______ ____
ROOT
ATOM      1  C   UNL     1       1.601   6.502  20.296  0.00  0.00    +0.000 C 
ATOM      2  N   UNL     1       1.744   7.779  20.490  0.00  0.00    +0.000 NA
ENDROOT
BRANCH   1   9
ATOM      3  C   UNL     1       6.441   3.880  14.551  0.00  0.00    +0.000 C 
ATOM      4  C   UNL     1       5.588   4.613  15.544  0.00  0.00    +0.000 A 
ATOM      5  C   UNL     1       5.512   6.006  15.537  0.00  0.00    +0.000 A 
ATOM      6  C   UNL     1       4.697   6.663  16.458  0.00  0.00    +0.000 A 
ATOM      7  C   UNL     1       3.963   5.932  17.407  0.00  0.00    +0.000 A 
ATOM      8  C   UNL     1       3.146   6.568  18.350  0.00  0.00    +0.000 A 
ATOM      9  C   UNL     1       2.456   5.816  19.304  0.00  0.00    +0.000 A 
ATOM     10  C   UNL     1       2.617   4.442  19.263  0.00  0.00    +0.000 A 
ATOM     11 CL   UNL     1       1.886   3.365  20.389  0.00  0.00    +0.000 Cl
ATOM     12  N   UNL     1       3.376   3.790  18.347  0.00  0.00    +0.000 NA
ATOM     13  C   UNL     1       4.039   4.525  17.435  0.00  0.00    +0.000 A 
ATOM     14  C   UNL     1       4.838   3.894  16.490  0.00  0.00    +0.000 A 
ENDBRANCH   1   9
BRANCH   2  15
ATOM     15  N   UNL     1       0.921   8.380  21.389  0.00  0.00    +0.000 N 
ATOM     16  C   UNL     1      -0.022   9.287  20.922  0.00  0.00    +0.000 C 
ATOM     17  O   UNL     1      -0.174   9.625  19.754  0.00  0.00    +0.000 OA
ATOM     18  H   UNL     1       0.963   8.130  22.368  0.00  0.00    +0.000 HD
BRANCH  16  19
ATOM     19  C   UNL     1      -0.904   9.845  21.986  0.00  0.00    +0.000 C 
ATOM     20  C   UNL     1      -0.365  10.162  23.358  0.00  0.00    +0.000 C 
ATOM     21  C   UNL     1      -0.716  11.294  22.426  0.00  0.00    +0.000 C 
BRANCH  21  22
ATOM     22  C   UNL     1      -1.973  12.119  22.582  0.00  0.00    +0.000 A 
ATOM     23  C   UNL     1      -2.813  12.022  23.703  0.00  0.00    +0.000 A 
ATOM     24  C   UNL     1      -4.019  12.726  23.770  0.00  0.00    +0.000 A 
ATOM     25  C   UNL     1      -4.397  13.563  22.725  0.00  0.00    +0.000 A 
ATOM     26  C   UNL     1      -3.557  13.717  21.626  0.00  0.00    +0.000 A 
ATOM     27  C   UNL     1      -2.358  13.005  21.562  0.00  0.00    +0.000 A 
ENDBRANCH  21  22
ENDBRANCH  16  19
ENDBRANCH   2  15
TORSDOF 4
ENDMDL
MODEL 3
REMARK VINA RESULT:      -8.0      1.315      1.706
REMARK  Name = 
REMARK  5 active torsions:
REMARK  status: ('A' for Active; 'I' for Inactive)
REMARK    1  A    between atoms: C_1  and  C_2
REMARK    2  A    between atoms: C_7  and  C_8
REMARK    3  A    between atoms: N_9  and  N_10
REMARK    4  A    between atoms: C_11  and  C_13
REMARK    5  A    between atoms: C_15  and  C_16
REMARK                            x       y       z     vdW  Elec       q    Type
REMARK                         _______ _______ _______ _____ _____    ______ ____
ROOT
ATOM      1  C   UNL     1       1.780   7.510  20.514  0.00  0.00    +0.000 C 
ATOM      2  N   UNL     1       1.268   8.640  20.129  0.00  0.00    +0.000 NA
ENDROOT
BRANCH   1   9
ATOM      3  C   UNL     1       5.802   3.781  14.749  0.00  0.00    +0.000 C 
ATOM      4  C   UNL     1       5.155   4.702  15.742  0.00  0.00    +0.000 A 
ATOM      5  C   UNL     1       5.398   6.075  15.714  0.00  0.00    +0.000 A 
ATOM      6  C   UNL     1       4.770   6.912  16.635  0.00  0.00    +0.000 A 
ATOM      7  C   UNL     1       3.903   6.380  17.604  0.00  0.00    +0.000 A 
ATOM      8  C   UNL     1       3.268   7.197  18.547  0.00  0.00    +0.000 A 
ATOM      9  C   UNL     1       2.440   6.634  19.522  0.00  0.00    +0.000 A 
ATOM     10  C   UNL     1       2.282   5.259  19.500  0.00  0.00    +0.000 A 
ATOM     11 CL   UNL     1       1.343   4.392  20.652  0.00  0.00    +0.000 Cl
ATOM     12  N   UNL     1       2.858   4.440  18.584  0.00  0.00    +0.000 NA
ATOM     13  C   UNL     1       3.657   4.993  17.653  0.00  0.00    +0.000 A 
ATOM     14  C   UNL     1       4.275   4.184  16.708  0.00  0.00    +0.000 A 
ENDBRANCH   1   9
BRANCH   2  15
ATOM     15  N   UNL     1       0.643   9.404  21.063  0.00  0.00    +0.000 N 
ATOM     16  C   UNL     1      -0.337  10.295  20.645  0.00  0.00    +0.000 C 
ATOM     17  O   UNL     1      -0.688  10.482  19.486  0.00  0.00    +0.000 OA
ATOM     18  H   UNL     1       0.855   9.285  22.045  0.00  0.00    +0.000 HD
BRANCH  16  19
ATOM     19  C   UNL     1      -0.990  11.042  21.757  0.00  0.00    +0.000 C 
ATOM     20  C   UNL     1      -0.437  12.359  22.242  0.00  0.00    +0.000 C 
ATOM     21  C   UNL     1      -1.721  12.346  21.451  0.00  0.00    +0.000 C 
BRANCH  21  22
ATOM     22  C   UNL     1      -3.077  12.525  22.095  0.00  0.00    +0.000 A 
ATOM     23  C   UNL     1      -4.249  12.749  21.355  0.00  0.00    +0.000 A 
ATOM     24  C   UNL     1      -5.468  13.010  21.986  0.00  0.00    +0.000 A 
ATOM     25  C   UNL     1      -5.545  13.027  23.375  0.00  0.00    +0.000 A 
ATOM     26  C   UNL     1      -4.409  12.756  24.133  0.00  0.00    +0.000 A 
ATOM     27  C   UNL     1      -3.193  12.504  23.496  0.00  0.00    +0.000 A 
ENDBRANCH  21  22
ENDBRANCH  16  19
ENDBRANCH   2  15
TORSDOF 4
ENDMDL
MODEL 4
REMARK VINA RESULT:      -7.9      3.605     10.114
REMARK  Name = 
REMARK  5 active torsions:
REMARK  status: ('A' for Active; 'I' for Inactive)
REMARK    1  A    between atoms: C_1  and  C_2
REMARK    2  A    between atoms: C_7  and  C_8
REMARK    3  A    between atoms: N_9  and  N_10
REMARK    4  A    between atoms: C_11  and  C_13
REMARK    5  A    between atoms: C_15  and  C_16
REMARK                            x       y       z     vdW  Elec       q    Type
REMARK                         _______ _______ _______ _____ _____    ______ ____
ROOT
ATOM      1  C   UNL     1       1.255   9.300  18.354  0.00  0.00    +0.000 C 
ATOM      2  N   UNL     1       1.523   8.279  19.111  0.00  0.00    +0.000 NA
ENDROOT
BRANCH   1   9
ATOM      3  C   UNL     1      -5.913  12.750  18.499  0.00  0.00    +0.000 C 
ATOM      4  C   UNL     1      -4.653  11.970  18.263  0.00  0.00    +0.000 A 
ATOM      5  C   UNL     1      -4.556  11.062  17.208  0.00  0.00    +0.000 A 
ATOM      6  C   UNL     1      -3.367  10.364  16.998  0.00  0.00    +0.000 A 
ATOM      7  C   UNL     1      -2.269  10.557  17.852  0.00  0.00    +0.000 A 
ATOM      8  C   UNL     1      -1.068   9.860  17.669  0.00  0.00    +0.000 A 
ATOM      9  C   UNL     1      -0.005  10.045  18.557  0.00  0.00    +0.000 A 
ATOM     10  C   UNL     1      -0.199  10.937  19.597  0.00  0.00    +0.000 A 
ATOM     11 CL   UNL     1       0.979  11.252  20.812  0.00  0.00    +0.000 Cl
ATOM     12  N   UNL     1      -1.337  11.651  19.789  0.00  0.00    +0.000 NA
ATOM     13  C   UNL     1      -2.355  11.461  18.930  0.00  0.00    +0.000 A 
ATOM     14  C   UNL     1      -3.542  12.162  19.102  0.00  0.00    +0.000 A 
ENDBRANCH   1   9
BRANCH   2  15
ATOM     15  N   UNL     1       2.677   7.600  18.875  0.00  0.00    +0.000 N 
ATOM     16  C   UNL     1       2.820   6.327  19.412  0.00  0.00    +0.000 C 
ATOM     17  O   UNL     1       1.998   5.749  20.114  0.00  0.00    +0.000 OA
ATOM     18  H   UNL     1       3.391   7.997  18.279  0.00  0.00    +0.000 HD
BRANCH  16  19
ATOM     19  C   UNL     1       4.101   5.657  19.048  0.00  0.00    +0.000 C 
ATOM     20  C   UNL     1       4.392   4.242  19.483  0.00  0.00    +0.000 C 
ATOM     21  C   UNL     1       4.084   4.518  18.033  0.00  0.00    +0.000 C 
BRANCH  21  22
ATOM     22  C   UNL     1       5.153   4.551  16.965  0.00  0.00    +0.000 A 
ATOM     23  C   UNL     1       6.523   4.629  17.260  0.00  0.00    +0.000 A 
ATOM     24  C   UNL     1       7.479   4.759  16.249  0.00  0.00    +0.000 A 
ATOM     25  C   UNL     1       7.083   4.787  14.915  0.00  0.00    +0.000 A 
ATOM     26  C   UNL     1       5.735   4.659  14.592  0.00  0.00    +0.000 A 
ATOM     27  C   UNL     1       4.785   4.538  15.609  0.00  0.00    +0.000 A 
ENDBRANCH  21  22
ENDBRANCH  16  19
ENDBRANCH   2  15
TORSDOF 4
ENDMDL
MODEL 5
REMARK VINA RESULT:      -7.8      2.431     10.211
REMARK  Name = 
REMARK  5 active torsions:
REMARK  status: ('A' for Active; 'I' for Inactive)
REMARK    1  A    between atoms: C_1  and  C_2
REMARK    2  A    between atoms: C_7  and  C_8
REMARK    3  A    between atoms: N_9  and  N_10
REMARK    4  A    between atoms: C_11  and  C_13
REMARK    5  A    between atoms: C_15  and  C_16
REMARK                            x       y       z     vdW  Elec       q    Type
REMARK                         _______ _______ _______ _____ _____    ______ ____
ROOT
ATOM      1  C   UNL     1       0.934   9.354  19.178  0.00  0.00    +0.000 C 
ATOM      2  N   UNL     1       1.446   8.508  20.020  0.00  0.00    +0.000 NA
ENDROOT
BRANCH   1   9
ATOM      3  C   UNL     1      -3.886  14.652  22.643  0.00  0.00    +0.000 C 
ATOM      4  C   UNL     1      -2.828  13.683  22.203  0.00  0.00    +0.000 A 
ATOM      5  C   UNL     1      -1.714  13.422  23.002  0.00  0.00    +0.000 A 
ATOM      6  C   UNL     1      -0.755  12.504  22.580  0.00  0.00    +0.000 A 
ATOM      7  C   UNL     1      -0.893  11.848  21.345  0.00  0.00    +0.000 A 
ATOM      8  C   UNL     1       0.062  10.928  20.893  0.00  0.00    +0.000 A 
ATOM      9  C   UNL     1      -0.084  10.320  19.644  0.00  0.00    +0.000 A 
ATOM     10  C   UNL     1      -1.200  10.663  18.900  0.00  0.00    +0.000 A 
ATOM     11 CL   UNL     1      -1.515  10.052  17.323  0.00  0.00    +0.000 Cl
ATOM     12  N   UNL     1      -2.160  11.526  19.318  0.00  0.00    +0.000 NA
ATOM     13  C   UNL     1      -2.006  12.110  20.520  0.00  0.00    +0.000 A 
ATOM     14  C   UNL     1      -2.960  13.010  20.976  0.00  0.00    +0.000 A 
ENDBRANCH   1   9
BRANCH   2  15
ATOM     15  N   UNL     1       2.358   7.617  19.549  0.00  0.00    +0.000 N 
ATOM     16  C   UNL     1       2.286   6.300  19.986  0.00  0.00    +0.000 C 
ATOM     17  O   UNL     1       1.477   5.856  20.792  0.00  0.00    +0.000 OA
ATOM     18  H   UNL     1       3.038   7.900  18.857  0.00  0.00    +0.000 HD
BRANCH  16  19
ATOM     19  C   UNL     1       3.301   5.401  19.367  0.00  0.00    +0.000 C 
ATOM     20  C   UNL     1       3.006   3.942  19.125  0.00  0.00    +0.000 C 
ATOM     21  C   UNL     1       3.072   4.884  17.950  0.00  0.00    +0.000 C 
BRANCH  21  22
ATOM     22  C   UNL     1       4.258   4.937  17.013  0.00  0.00    +0.000 A 
ATOM     23  C   UNL     1       4.774   6.139  16.505  0.00  0.00    +0.000 A 
ATOM     24  C   UNL     1       5.808   6.145  15.564  0.00  0.00    +0.000 A 
ATOM     25  C   UNL     1       6.364   4.946  15.131  0.00  0.00    +0.000 A 
ATOM     26  C   UNL     1       5.906   3.742  15.659  0.00  0.00    +0.000 A 
ATOM     27  C   UNL     1       4.868   3.743  16.592  0.00  0.00    +0.000 A 
ENDBRANCH  21  22
ENDBRANCH  16  19
ENDBRANCH   2  15
TORSDOF 4
ENDMDL
MODEL 6
REMARK VINA RESULT:      -7.7      3.906      5.003
REMARK  Name = 
REMARK  5 active torsions:
REMARK  status: ('A' for Active; 'I' for Inactive)
REMARK    1  A    between atoms: C_1  and  C_2
REMARK    2  A    between atoms: C_7  and  C_8
REMARK    3  A    between atoms: N_9  and  N_10
REMARK    4  A    between atoms: C_11  and  C_13
REMARK    5  A    between atoms: C_15  and  C_16
REMARK                            x       y       z     vdW  Elec       q    Type
REMARK                         _______ _______ _______ _____ _____    ______ ____
ROOT
ATOM      1  C   UNL     1       2.168   9.278  18.438  0.00  0.00    +0.000 C 
ATOM      2  N   UNL     1       0.959   9.735  18.308  0.00  0.00    +0.000 NA
ENDROOT
BRANCH   1   9
ATOM      3  C   UNL     1       3.823   1.501  18.740  0.00  0.00    +0.000 C 
ATOM      4  C   UNL     1       3.635   2.961  18.452  0.00  0.00    +0.000 A 
ATOM      5  C   UNL     1       4.120   3.531  17.275  0.00  0.00    +0.000 A 
ATOM      6  C   UNL     1       3.915   4.887  17.022  0.00  0.00    +0.000 A 
ATOM      7  C   UNL     1       3.235   5.689  17.952  0.00  0.00    +0.000 A 
ATOM      8  C   UNL     1       3.026   7.056  17.727  0.00  0.00    +0.000 A 
ATOM      9  C   UNL     1       2.379   7.836  18.688  0.00  0.00    +0.000 A 
ATOM     10  C   UNL     1       1.962   7.198  19.844  0.00  0.00    +0.000 A 
ATOM     11 CL   UNL     1       1.195   8.010  21.153  0.00  0.00    +0.000 Cl
ATOM     12  N   UNL     1       2.121   5.872  20.084  0.00  0.00    +0.000 NA
ATOM     13  C   UNL     1       2.750   5.132  19.153  0.00  0.00    +0.000 A 
ATOM     14  C   UNL     1       2.945   3.774  19.369  0.00  0.00    +0.000 A 
ENDBRANCH   1   9
BRANCH   2  15
ATOM     15  N   UNL     1       0.804  11.070  18.108  0.00  0.00    +0.000 N 
ATOM     16  C   UNL     1      -0.027  11.777  18.968  0.00  0.00    +0.000 C 
ATOM     17  O   UNL     1      -0.669  11.302  19.897  0.00  0.00    +0.000 OA
ATOM     18  H   UNL     1       1.325  11.542  17.381  0.00  0.00    +0.000 HD
BRANCH  16  19
ATOM     19  C   UNL     1      -0.083  13.240  18.688  0.00  0.00    +0.000 C 
ATOM     20  C   UNL     1      -0.687  14.202  19.681  0.00  0.00    +0.000 C 
ATOM     21  C   UNL     1       0.809  14.186  19.488  0.00  0.00    +0.000 C 
BRANCH  21  22
ATOM     22  C   UNL     1       1.540  15.250  18.700  0.00  0.00    +0.000 A 
ATOM     23  C   UNL     1       1.026  16.542  18.505  0.00  0.00    +0.000 A 
ATOM     24  C   UNL     1       1.680  17.468  17.689  0.00  0.00    +0.000 A 
ATOM     25  C   UNL     1       2.880  17.129  17.070  0.00  0.00    +0.000 A 
ATOM     26  C   UNL     1       3.438  15.873  17.290  0.00  0.00    +0.000 A 
ATOM     27  C   UNL     1       2.774  14.949  18.100  0.00  0.00    +0.000 A 
ENDBRANCH  21  22
ENDBRANCH  16  19
ENDBRANCH   2  15
TORSDOF 4
ENDMDL
MODEL 7
REMARK VINA RESULT:      -7.7      1.931      2.207
REMARK  Name = 
REMARK  5 active torsions:
REMARK  status: ('A' for Active; 'I' for Inactive)
REMARK    1  A    between atoms: C_1  and  C_2
REMARK    2  A    between atoms: C_7  and  C_8
REMARK    3  A    between atoms: N_9  and  N_10
REMARK    4  A    between atoms: C_11  and  C_13
REMARK    5  A    between atoms: C_15  and  C_16
REMARK                            x       y       z     vdW  Elec       q    Type
REMARK                         _______ _______ _______ _____ _____    ______ ____
ROOT
ATOM      1  C   UNL     1       1.727   7.916  19.957  0.00  0.00    +0.000 C 
ATOM      2  N   UNL     1       1.444   9.087  19.471  0.00  0.00    +0.000 NA
ENDROOT
BRANCH   1   9
ATOM      3  C   UNL     1       6.089   3.594  14.898  0.00  0.00    +0.000 C 
ATOM      4  C   UNL     1       5.365   4.616  15.724  0.00  0.00    +0.000 A 
ATOM      5  C   UNL     1       5.517   5.980  15.476  0.00  0.00    +0.000 A 
ATOM      6  C   UNL     1       4.818   6.909  16.246  0.00  0.00    +0.000 A 
ATOM      7  C   UNL     1       3.972   6.482  17.282  0.00  0.00    +0.000 A 
ATOM      8  C   UNL     1       3.267   7.395  18.077  0.00  0.00    +0.000 A 
ATOM      9  C   UNL     1       2.462   6.940  19.124  0.00  0.00    +0.000 A 
ATOM     10  C   UNL     1       2.396   5.572  19.324  0.00  0.00    +0.000 A 
ATOM     11 CL   UNL     1       1.497   4.839  20.594  0.00  0.00    +0.000 Cl
ATOM     12  N   UNL     1       3.041   4.657  18.557  0.00  0.00    +0.000 NA
ATOM     13  C   UNL     1       3.818   5.107  17.554  0.00  0.00    +0.000 A 
ATOM     14  C   UNL     1       4.505   4.201  16.756  0.00  0.00    +0.000 A 
ENDBRANCH   1   9
BRANCH   2  15
ATOM     15  N   UNL     1       0.743   9.947  20.255  0.00  0.00    +0.000 N 
ATOM     16  C   UNL     1      -0.469  10.437  19.785  0.00  0.00    +0.000 C 
ATOM     17  O   UNL     1      -0.970  10.183  18.696  0.00  0.00    +0.000 OA
ATOM     18  H   UNL     1       1.075  10.181  21.181  0.00  0.00    +0.000 HD
BRANCH  16  19
ATOM     19  C   UNL     1      -1.176  11.329  20.747  0.00  0.00    +0.000 C 
ATOM     20  C   UNL     1      -0.683  12.728  21.021  0.00  0.00    +0.000 C 
ATOM     21  C   UNL     1      -1.945  12.536  20.218  0.00  0.00    +0.000 C 
BRANCH  21  22
ATOM     22  C   UNL     1      -3.322  12.765  20.798  0.00  0.00    +0.000 A 
ATOM     23  C   UNL     1      -3.533  13.155  22.130  0.00  0.00    +0.000 A 
ATOM     24  C   UNL     1      -4.821  13.261  22.661  0.00  0.00    +0.000 A 
ATOM     25  C   UNL     1      -5.930  13.002  21.860  0.00  0.00    +0.000 A 
ATOM     26  C   UNL     1      -5.750  12.665  20.522  0.00  0.00    +0.000 A 
ATOM     27  C   UNL     1      -4.459  12.553  20.000  0.00  0.00    +0.000 A 
ENDBRANCH  21  22
ENDBRANCH  16  19
ENDBRANCH   2  15
TORSDOF 4
ENDMDL
MODEL 8
REMARK VINA RESULT:      -7.6      1.025      1.442
REMARK  Name = 
REMARK  5 active torsions:
REMARK  status: ('A' for Active; 'I' for Inactive)
REMARK    1  A    between atoms: C_1  and  C_2
REMARK    2  A    between atoms: C_7  and  C_8
REMARK    3  A    between atoms: N_9  and  N_10
REMARK    4  A    between atoms: C_11  and  C_13
REMARK    5  A    between atoms: C_15  and  C_16
REMARK                            x       y       z     vdW  Elec       q    Type
REMARK                         _______ _______ _______ _____ _____    ______ ____
ROOT
ATOM      1  C   UNL     1       1.560   7.303  20.374  0.00  0.00    +0.000 C 
ATOM      2  N   UNL     1       1.472   8.581  20.157  0.00  0.00    +0.000 NA
ENDROOT
BRANCH   1   9
ATOM      3  C   UNL     1       6.113   3.761  14.894  0.00  0.00    +0.000 C 
ATOM      4  C   UNL     1       5.344   4.652  15.824  0.00  0.00    +0.000 A 
ATOM      5  C   UNL     1       5.433   6.042  15.727  0.00  0.00    +0.000 A 
ATOM      6  C   UNL     1       4.693   6.848  16.590  0.00  0.00    +0.000 A 
ATOM      7  C   UNL     1       3.867   6.272  17.569  0.00  0.00    +0.000 A 
ATOM      8  C   UNL     1       3.122   7.060  18.455  0.00  0.00    +0.000 A 
ATOM      9  C   UNL     1       2.338   6.458  19.443  0.00  0.00    +0.000 A 
ATOM     10  C   UNL     1       2.335   5.075  19.492  0.00  0.00    +0.000 A 
ATOM     11 CL   UNL     1       1.470   4.167  20.670  0.00  0.00    +0.000 Cl
ATOM     12  N   UNL     1       3.020   4.279  18.632  0.00  0.00    +0.000 NA
ATOM     13  C   UNL     1       3.776   4.870  17.688  0.00  0.00    +0.000 A 
ATOM     14  C   UNL     1       4.504   4.090  16.800  0.00  0.00    +0.000 A 
ENDBRANCH   1   9
BRANCH   2  15
ATOM     15  N   UNL     1       0.724   9.320  21.017  0.00  0.00    +0.000 N 
ATOM     16  C   UNL     1      -0.257  10.155  20.496  0.00  0.00    +0.000 C 
ATOM     17  O   UNL     1      -0.506  10.312  19.307  0.00  0.00    +0.000 OA
ATOM     18  H   UNL     1       0.848   9.223  22.016  0.00  0.00    +0.000 HD
BRANCH  16  19
ATOM     19  C   UNL     1      -1.049  10.878  21.531  0.00  0.00    +0.000 C 
ATOM     20  C   UNL     1      -0.699  10.773  22.995  0.00  0.00    +0.000 C 
ATOM     21  C   UNL     1      -0.418  12.060  22.261  0.00  0.00    +0.000 C 
BRANCH  21  22
ATOM     22  C   UNL     1      -1.280  13.292  22.418  0.00  0.00    +0.000 A 
ATOM     23  C   UNL     1      -1.977  13.589  23.600  0.00  0.00    +0.000 A 
ATOM     24  C   UNL     1      -2.843  14.683  23.677  0.00  0.00    +0.000 A 
ATOM     25  C   UNL     1      -3.010  15.520  22.578  0.00  0.00    +0.000 A 
ATOM     26  C   UNL     1      -2.290  15.279  21.412  0.00  0.00    +0.000 A 
ATOM     27  C   UNL     1      -1.433  14.179  21.339  0.00  0.00    +0.000 A 
ENDBRANCH  21  22
ENDBRANCH  16  19
ENDBRANCH   2  15
TORSDOF 4
ENDMDL
MODEL 9
REMARK VINA RESULT:      -7.6      2.238     10.111
REMARK  Name = 
REMARK  5 active torsions:
REMARK  status: ('A' for Active; 'I' for Inactive)
REMARK    1  A    between atoms: C_1  and  C_2
REMARK    2  A    between atoms: C_7  and  C_8
REMARK    3  A    between atoms: N_9  and  N_10
REMARK    4  A    between atoms: C_11  and  C_13
REMARK    5  A    between atoms: C_15  and  C_16
REMARK                            x       y       z     vdW  Elec       q    Type
REMARK                         _______ _______ _______ _____ _____    ______ ____
ROOT
ATOM      1  C   UNL     1       1.251   8.937  20.101  0.00  0.00    +0.000 C 
ATOM      2  N   UNL     1       1.589   7.826  20.684  0.00  0.00    +0.000 NA
ENDROOT
BRANCH   1   9
ATOM      3  C   UNL     1      -3.915  14.323  22.861  0.00  0.00    +0.000 C 
ATOM      4  C   UNL     1      -3.046  13.359  22.107  0.00  0.00    +0.000 A 
ATOM      5  C   UNL     1      -3.174  13.205  20.726  0.00  0.00    +0.000 A 
ATOM      6  C   UNL     1      -2.342  12.318  20.045  0.00  0.00    +0.000 A 
ATOM      7  C   UNL     1      -1.384  11.563  20.743  0.00  0.00    +0.000 A 
ATOM      8  C   UNL     1      -0.544  10.657  20.084  0.00  0.00    +0.000 A 
ATOM      9  C   UNL     1       0.374   9.893  20.810  0.00  0.00    +0.000 A 
ATOM     10  C   UNL     1       0.409  10.082  22.181  0.00  0.00    +0.000 A 
ATOM     11 CL   UNL     1       1.438   9.194  23.236  0.00  0.00    +0.000 Cl
ATOM     12  N   UNL     1      -0.368  10.971  22.849  0.00  0.00    +0.000 NA
ATOM     13  C   UNL     1      -1.252  11.697  22.140  0.00  0.00    +0.000 A 
ATOM     14  C   UNL     1      -2.075  12.607  22.790  0.00  0.00    +0.000 A 
ENDBRANCH   1   9
BRANCH   2  15
ATOM     15  N   UNL     1       2.373   6.959  19.991  0.00  0.00    +0.000 N 
ATOM     16  C   UNL     1       2.056   5.607  20.023  0.00  0.00    +0.000 C 
ATOM     17  O   UNL     1       1.131   5.103  20.648  0.00  0.00    +0.000 OA
ATOM     18  H   UNL     1       3.137   7.302  19.425  0.00  0.00    +0.000 HD
BRANCH  16  19
ATOM     19  C   UNL     1       2.950   4.756  19.187  0.00  0.00    +0.000 C 
ATOM     20  C   UNL     1       2.385   3.797  18.168  0.00  0.00    +0.000 C 
ATOM     21  C   UNL     1       3.077   5.051  17.695  0.00  0.00    +0.000 C 
BRANCH  21  22
ATOM     22  C   UNL     1       4.477   5.042  17.124  0.00  0.00    +0.000 A 
ATOM     23  C   UNL     1       5.406   6.067  17.366  0.00  0.00    +0.000 A 
ATOM     24  C   UNL     1       6.656   6.077  16.742  0.00  0.00    +0.000 A 
ATOM     25  C   UNL     1       7.015   5.045  15.881  0.00  0.00    +0.000 A 
ATOM     26  C   UNL     1       6.134   3.989  15.665  0.00  0.00    +0.000 A 
ATOM     27  C   UNL     1       4.883   3.990  16.285  0.00  0.00    +0.000 A 
ENDBRANCH  21  22
ENDBRANCH  16  19
ENDBRANCH   2  15
TORSDOF 4
ENDMDL
