MODEL 1
REMARK VINA RESULT:      -6.3      0.000      0.000
REMARK  Name = 
REMARK  2 active torsions:
REMARK  status: ('A' for Active; 'I' for Inactive)
REMARK    1  A    between atoms: N_1  and  C_2
REMARK    2  A    between atoms: C_12  and  O_13
REMARK                            x       y       z     vdW  Elec       q    Type
REMARK                         _______ _______ _______ _____ _____    ______ ____
ROOT
ATOM      1  C   UNL     1       3.665   2.093  19.373  0.00  0.00    +0.000 C 
ATOM      2  C   UNL     1       2.658   2.792  20.307  0.00  0.00    +0.000 C 
ATOM      3  C   UNL     1       2.633   4.314  20.208  0.00  0.00    +0.000 C 
ATOM      4  O   UNL     1       2.154   4.758  18.934  0.00  0.00    +0.000 OA
ATOM      5  C   UNL     1       3.192   4.916  18.056  0.00  0.00    +0.000 A 
ATOM      6  C   UNL     1       3.573   6.213  17.718  0.00  0.00    +0.000 A 
ATOM      7  C   UNL     1       4.617   6.412  16.815  0.00  0.00    +0.000 A 
ATOM      8  C   UNL     1       5.252   5.317  16.234  0.00  0.00    +0.000 A 
ATOM      9  C   UNL     1       4.845   4.018  16.553  0.00  0.00    +0.000 A 
ATOM     10  C   UNL     1       3.809   3.802  17.476  0.00  0.00    +0.000 A 
ATOM     11  C   UNL     1       3.417   2.392  17.860  0.00  0.00    +0.000 C 
ENDROOT
BRANCH   1  12
ATOM     12  N   UNL     1       5.058   2.346  19.790  0.00  0.00    +0.000 NA
ATOM     13  H   UNL     1       5.430   1.535  20.282  0.00  0.00    +0.000 HD
ATOM     14  H   UNL     1       5.090   3.124  20.449  0.00  0.00    +0.000 HD
ENDBRANCH   1  12
BRANCH  11  15
ATOM     15  O   UNL     1       2.050   2.138  17.525  0.00  0.00    +0.000 OA
ATOM     16  H   UNL     1       2.045   1.711  16.648  0.00  0.00    +0.000 HD
ENDBRANCH  11  15
TORSDOF 2
ENDMDL
MODEL 2
REMARK VINA RESULT:      -6.1      2.500      3.904
REMARK  Name = 
REMARK  2 active torsions:
REMARK  status: ('A' for Active; 'I' for Inactive)
REMARK    1  A    between atoms: N_1  and  C_2
REMARK    2  A    between atoms: C_12  and  O_13
REMARK                            x       y       z     vdW  Elec       q    Type
REMARK                         _______ _______ _______ _____ _____    ______ ____
ROOT
ATOM      1  C   UNL     1       5.339   5.704  16.806  0.00  0.00    +0.000 C 
ATOM      2  C   UNL     1       6.407   5.678  17.918  0.00  0.00    +0.000 C 
ATOM      3  C   UNL     1       5.912   5.204  19.280  0.00  0.00    +0.000 C 
ATOM      4  O   UNL     1       5.528   3.825  19.258  0.00  0.00    +0.000 OA
ATOM      5  C   UNL     1       4.200   3.698  18.953  0.00  0.00    +0.000 A 
ATOM      6  C   UNL     1       3.326   3.328  19.973  0.00  0.00    +0.000 A 
ATOM      7  C   UNL     1       1.968   3.175  19.695  0.00  0.00    +0.000 A 
ATOM      8  C   UNL     1       1.498   3.362  18.397  0.00  0.00    +0.000 A 
ATOM      9  C   UNL     1       2.385   3.703  17.371  0.00  0.00    +0.000 A 
ATOM     10  C   UNL     1       3.751   3.880  17.640  0.00  0.00    +0.000 A 
ATOM     11  C   UNL     1       4.692   4.308  16.536  0.00  0.00    +0.000 C 
ENDROOT
BRANCH   1  12
ATOM     12  N   UNL     1       4.341   6.766  17.040  0.00  0.00    +0.000 NA
ATOM     13  H   UNL     1       3.567   6.405  17.596  0.00  0.00    +0.000 HD
ATOM     14  H   UNL     1       3.942   7.073  16.153  0.00  0.00    +0.000 HD
ENDBRANCH   1  12
BRANCH  11  15
ATOM     15  O   UNL     1       5.711   3.325  16.330  0.00  0.00    +0.000 OA
ATOM     16  H   UNL     1       6.083   3.479  15.442  0.00  0.00    +0.000 HD
ENDBRANCH  11  15
TORSDOF 2
ENDMDL
MODEL 3
REMARK VINA RESULT:      -6.0      1.525      1.602
REMARK  Name = 
REMARK  2 active torsions:
REMARK  status: ('A' for Active; 'I' for Inactive)
REMARK    1  A    between atoms: N_1  and  C_2
REMARK    2  A    between atoms: C_12  and  O_13
REMARK                            x       y       z     vdW  Elec       q    Type
REMARK                         _______ _______ _______ _____ _____    ______ ____
ROOT
ATOM      1  C   UNL     1       2.567   1.869  18.264  0.00  0.00    +0.000 C 
ATOM      2  C   UNL     1       2.094   2.253  19.681  0.00  0.00    +0.000 C 
ATOM      3  C   UNL     1       3.027   3.190  20.442  0.00  0.00    +0.000 C 
ATOM      4  O   UNL     1       3.097   4.484  19.833  0.00  0.00    +0.000 OA
ATOM      5  C   UNL     1       4.115   4.535  18.919  0.00  0.00    +0.000 A 
ATOM      6  C   UNL     1       5.255   5.265  19.249  0.00  0.00    +0.000 A 
ATOM      7  C   UNL     1       6.306   5.350  18.337  0.00  0.00    +0.000 A 
ATOM      8  C   UNL     1       6.199   4.733  17.092  0.00  0.00    +0.000 A 
ATOM      9  C   UNL     1       5.040   4.027  16.755  0.00  0.00    +0.000 A 
ATOM     10  C   UNL     1       3.982   3.916  17.672  0.00  0.00    +0.000 A 
ATOM     11  C   UNL     1       2.758   3.099  17.321  0.00  0.00    +0.000 C 
ENDROOT
BRANCH   1  12
ATOM     12  N   UNL     1       3.749   0.987  18.308  0.00  0.00    +0.000 NA
ATOM     13  H   UNL     1       3.496   0.047  18.009  0.00  0.00    +0.000 HD
ATOM     14  H   UNL     1       4.089   0.904  19.266  0.00  0.00    +0.000 HD
ENDBRANCH   1  12
BRANCH  11  15
ATOM     15  O   UNL     1       1.584   3.917  17.333  0.00  0.00    +0.000 OA
ATOM     16  H   UNL     1       1.841   4.792  16.988  0.00  0.00    +0.000 HD
ENDBRANCH  11  15
TORSDOF 2
ENDMDL
MODEL 4
REMARK VINA RESULT:      -6.0      1.582      4.112
REMARK  Name = 
REMARK  2 active torsions:
REMARK  status: ('A' for Active; 'I' for Inactive)
REMARK    1  A    between atoms: N_1  and  C_2
REMARK    2  A    between atoms: C_12  and  O_13
REMARK                            x       y       z     vdW  Elec       q    Type
REMARK                         _______ _______ _______ _____ _____    ______ ____
ROOT
ATOM      1  C   UNL     1       4.999   4.865  18.367  0.00  0.00    +0.000 C 
ATOM      2  C   UNL     1       4.494   4.499  16.956  0.00  0.00    +0.000 C 
ATOM      3  C   UNL     1       3.307   3.542  16.923  0.00  0.00    +0.000 C 
ATOM      4  O   UNL     1       2.127   4.136  17.474  0.00  0.00    +0.000 OA
ATOM      5  C   UNL     1       2.039   3.881  18.816  0.00  0.00    +0.000 A 
ATOM      6  C   UNL     1       1.083   2.965  19.249  0.00  0.00    +0.000 A 
ATOM      7  C   UNL     1       0.956   2.693  20.610  0.00  0.00    +0.000 A 
ATOM      8  C   UNL     1       1.762   3.358  21.531  0.00  0.00    +0.000 A 
ATOM      9  C   UNL     1       2.699   4.299  21.094  0.00  0.00    +0.000 A 
ATOM     10  C   UNL     1       2.852   4.568  19.725  0.00  0.00    +0.000 A 
ATOM     11  C   UNL     1       3.910   5.543  19.257  0.00  0.00    +0.000 C 
ENDROOT
BRANCH   1  12
ATOM     12  N   UNL     1       5.648   3.714  19.025  0.00  0.00    +0.000 NA
ATOM     13  H   UNL     1       6.594   3.593  18.667  0.00  0.00    +0.000 HD
ATOM     14  H   UNL     1       5.144   2.855  18.805  0.00  0.00    +0.000 HD
ENDBRANCH   1  12
BRANCH  11  15
ATOM     15  O   UNL     1       3.314   6.640  18.558  0.00  0.00    +0.000 OA
ATOM     16  H   UNL     1       3.478   6.497  17.608  0.00  0.00    +0.000 HD
ENDBRANCH  11  15
TORSDOF 2
ENDMDL
MODEL 5
REMARK VINA RESULT:      -5.9      2.316      3.841
REMARK  Name = 
REMARK  2 active torsions:
REMARK  status: ('A' for Active; 'I' for Inactive)
REMARK    1  A    between atoms: N_1  and  C_2
REMARK    2  A    between atoms: C_12  and  O_13
REMARK                            x       y       z     vdW  Elec       q    Type
REMARK                         _______ _______ _______ _____ _____    ______ ____
ROOT
ATOM      1  C   UNL     1       6.582   4.762  17.321  0.00  0.00    +0.000 C 
ATOM      2  C   UNL     1       6.352   6.249  16.983  0.00  0.00    +0.000 C 
ATOM      3  C   UNL     1       4.895   6.645  16.767  0.00  0.00    +0.000 C 
ATOM      4  O   UNL     1       4.127   6.533  17.970  0.00  0.00    +0.000 OA
ATOM      5  C   UNL     1       3.567   5.288  18.071  0.00  0.00    +0.000 A 
ATOM      6  C   UNL     1       2.193   5.170  17.868  0.00  0.00    +0.000 A 
ATOM      7  C   UNL     1       1.586   3.920  17.976  0.00  0.00    +0.000 A 
ATOM      8  C   UNL     1       2.347   2.803  18.317  0.00  0.00    +0.000 A 
ATOM      9  C   UNL     1       3.719   2.934  18.549  0.00  0.00    +0.000 A 
ATOM     10  C   UNL     1       4.348   4.182  18.424  0.00  0.00    +0.000 A 
ATOM     11  C   UNL     1       5.843   4.302  18.618  0.00  0.00    +0.000 C 
ENDROOT
BRANCH   1  12
ATOM     12  N   UNL     1       6.305   3.894  16.160  0.00  0.00    +0.000 NA
ATOM     13  H   UNL     1       7.060   3.220  16.039  0.00  0.00    +0.000 HD
ATOM     14  H   UNL     1       6.274   4.450  15.306  0.00  0.00    +0.000 HD
ENDBRANCH   1  12
BRANCH  11  15
ATOM     15  O   UNL     1       6.144   5.190  19.699  0.00  0.00    +0.000 OA
ATOM     16  H   UNL     1       5.323   5.304  20.212  0.00  0.00    +0.000 HD
ENDBRANCH  11  15
TORSDOF 2
ENDMDL
MODEL 6
REMARK VINA RESULT:      -5.9      2.031      4.280
REMARK  Name = 
REMARK  2 active torsions:
REMARK  status: ('A' for Active; 'I' for Inactive)
REMARK    1  A    between atoms: N_1  and  C_2
REMARK    2  A    between atoms: C_12  and  O_13
REMARK                            x       y       z     vdW  Elec       q    Type
REMARK                         _______ _______ _______ _____ _____    ______ ____
ROOT
ATOM      1  C   UNL     1       2.836   5.680  17.811  0.00  0.00    +0.000 C 
ATOM      2  C   UNL     1       4.297   5.274  17.530  0.00  0.00    +0.000 C 
ATOM      3  C   UNL     1       4.942   4.398  18.600  0.00  0.00    +0.000 C 
ATOM      4  O   UNL     1       4.325   3.108  18.677  0.00  0.00    +0.000 OA
ATOM      5  C   UNL     1       3.300   3.116  19.583  0.00  0.00    +0.000 A 
ATOM      6  C   UNL     1       3.492   2.457  20.796  0.00  0.00    +0.000 A 
ATOM      7  C   UNL     1       2.464   2.433  21.737  0.00  0.00    +0.000 A 
ATOM      8  C   UNL     1       1.243   3.038  21.450  0.00  0.00    +0.000 A 
ATOM      9  C   UNL     1       1.045   3.671  20.219  0.00  0.00    +0.000 A 
ATOM     10  C   UNL     1       2.078   3.721  19.270  0.00  0.00    +0.000 A 
ATOM     11  C   UNL     1       1.873   4.460  17.966  0.00  0.00    +0.000 C 
ENDROOT
BRANCH   1  12
ATOM     12  N   UNL     1       2.746   6.633  18.935  0.00  0.00    +0.000 NA
ATOM     13  H   UNL     1       3.021   6.177  19.803  0.00  0.00    +0.000 HD
ATOM     14  H   UNL     1       1.781   6.936  19.060  0.00  0.00    +0.000 HD
ENDBRANCH   1  12
BRANCH  11  15
ATOM     15  O   UNL     1       2.019   3.573  16.853  0.00  0.00    +0.000 OA
ATOM     16  H   UNL     1       2.091   2.670  17.214  0.00  0.00    +0.000 HD
ENDBRANCH  11  15
TORSDOF 2
ENDMDL
MODEL 7
REMARK VINA RESULT:      -5.8      1.451      2.598
REMARK  Name = 
REMARK  2 active torsions:
REMARK  status: ('A' for Active; 'I' for Inactive)
REMARK    1  A    between atoms: N_1  and  C_2
REMARK    2  A    between atoms: C_12  and  O_13
REMARK                            x       y       z     vdW  Elec       q    Type
REMARK                         _______ _______ _______ _____ _____    ______ ____
ROOT
ATOM      1  C   UNL     1       4.319   3.031  18.152  0.00  0.00    +0.000 C 
ATOM      2  C   UNL     1       3.784   2.078  19.240  0.00  0.00    +0.000 C 
ATOM      3  C   UNL     1       3.100   2.762  20.418  0.00  0.00    +0.000 C 
ATOM      4  O   UNL     1       1.886   3.413  20.026  0.00  0.00    +0.000 OA
ATOM      5  C   UNL     1       2.128   4.712  19.670  0.00  0.00    +0.000 A 
ATOM      6  C   UNL     1       1.709   5.719  20.538  0.00  0.00    +0.000 A 
ATOM      7  C   UNL     1       1.927   7.054  20.200  0.00  0.00    +0.000 A 
ATOM      8  C   UNL     1       2.532   7.376  18.987  0.00  0.00    +0.000 A 
ATOM      9  C   UNL     1       2.923   6.362  18.107  0.00  0.00    +0.000 A 
ATOM     10  C   UNL     1       2.728   5.013  18.442  0.00  0.00    +0.000 A 
ATOM     11  C   UNL     1       3.209   3.923  17.510  0.00  0.00    +0.000 C 
ENDROOT
BRANCH   1  12
ATOM     12  N   UNL     1       5.477   3.810  18.636  0.00  0.00    +0.000 NA
ATOM     13  H   UNL     1       5.970   3.290  19.360  0.00  0.00    +0.000 HD
ATOM     14  H   UNL     1       5.159   4.677  19.067  0.00  0.00    +0.000 HD
ENDBRANCH   1  12
BRANCH  11  15
ATOM     15  O   UNL     1       2.115   3.111  17.074  0.00  0.00    +0.000 OA
ATOM     16  H   UNL     1       2.029   2.379  17.713  0.00  0.00    +0.000 HD
ENDBRANCH  11  15
TORSDOF 2
ENDMDL
MODEL 8
REMARK VINA RESULT:      -5.8      2.076      3.986
REMARK  Name = 
REMARK  2 active torsions:
REMARK  status: ('A' for Active; 'I' for Inactive)
REMARK    1  A    between atoms: N_1  and  C_2
REMARK    2  A    between atoms: C_12  and  O_13
REMARK                            x       y       z     vdW  Elec       q    Type
REMARK                         _______ _______ _______ _____ _____    ______ ____
ROOT
ATOM      1  C   UNL     1       4.979   4.622  17.507  0.00  0.00    +0.000 C 
ATOM      2  C   UNL     1       4.605   6.114  17.401  0.00  0.00    +0.000 C 
ATOM      3  C   UNL     1       3.280   6.497  18.053  0.00  0.00    +0.000 C 
ATOM      4  O   UNL     1       3.321   6.342  19.476  0.00  0.00    +0.000 OA
ATOM      5  C   UNL     1       2.910   5.088  19.837  0.00  0.00    +0.000 A 
ATOM      6  C   UNL     1       1.659   4.956  20.438  0.00  0.00    +0.000 A 
ATOM      7  C   UNL     1       1.213   3.696  20.833  0.00  0.00    +0.000 A 
ATOM      8  C   UNL     1       2.030   2.581  20.653  0.00  0.00    +0.000 A 
ATOM      9  C   UNL     1       3.296   2.723  20.078  0.00  0.00    +0.000 A 
ATOM     10  C   UNL     1       3.750   3.983  19.657  0.00  0.00    +0.000 A 
ATOM     11  C   UNL     1       5.096   4.117  18.981  0.00  0.00    +0.000 C 
ENDROOT
BRANCH   1  12
ATOM     12  N   UNL     1       4.094   3.782  16.677  0.00  0.00    +0.000 NA
ATOM     13  H   UNL     1       4.627   3.025  16.251  0.00  0.00    +0.000 HD
ATOM     14  H   UNL     1       3.707   4.331  15.910  0.00  0.00    +0.000 HD
ENDBRANCH   1  12
BRANCH  11  15
ATOM     15  O   UNL     1       5.956   4.980  19.731  0.00  0.00    +0.000 OA
ATOM     16  H   UNL     1       6.658   4.422  20.114  0.00  0.00    +0.000 HD
ENDBRANCH  11  15
TORSDOF 2
ENDMDL
MODEL 9
REMARK VINA RESULT:      -5.8      2.439      4.375
REMARK  Name = 
REMARK  2 active torsions:
REMARK  status: ('A' for Active; 'I' for Inactive)
REMARK    1  A    between atoms: N_1  and  C_2
REMARK    2  A    between atoms: C_12  and  O_13
REMARK                            x       y       z     vdW  Elec       q    Type
REMARK                         _______ _______ _______ _____ _____    ______ ____
ROOT
ATOM      1  C   UNL     1       7.311   5.310  17.126  0.00  0.00    +0.000 C 
ATOM      2  C   UNL     1       7.137   4.638  15.749  0.00  0.00    +0.000 C 
ATOM      3  C   UNL     1       5.924   3.721  15.626  0.00  0.00    +0.000 C 
ATOM      4  O   UNL     1       4.694   4.448  15.717  0.00  0.00    +0.000 OA
ATOM      5  C   UNL     1       4.265   4.512  17.015  0.00  0.00    +0.000 A 
ATOM      6  C   UNL     1       3.165   3.739  17.380  0.00  0.00    +0.000 A 
ATOM      7  C   UNL     1       2.692   3.790  18.690  0.00  0.00    +0.000 A 
ATOM      8  C   UNL     1       3.299   4.634  19.617  0.00  0.00    +0.000 A 
ATOM      9  C   UNL     1       4.383   5.431  19.237  0.00  0.00    +0.000 A 
ATOM     10  C   UNL     1       4.883   5.375  17.926  0.00  0.00    +0.000 A 
ATOM     11  C   UNL     1       6.094   6.196  17.541  0.00  0.00    +0.000 C 
ENDROOT
BRANCH   1  12
ATOM     12  N   UNL     1       7.692   4.330  18.162  0.00  0.00    +0.000 NA
ATOM     13  H   UNL     1       6.971   4.280  18.879  0.00  0.00    +0.000 HD
ATOM     14  H   UNL     1       8.546   4.629  18.630  0.00  0.00    +0.000 HD
ENDBRANCH   1  12
BRANCH  11  15
ATOM     15  O   UNL     1       5.771   7.113  16.492  0.00  0.00    +0.000 OA
ATOM     16  H   UNL     1       6.599   7.307  16.016  0.00  0.00    +0.000 HD
ENDBRANCH  11  15
TORSDOF 2
ENDMDL
