MODEL 1
REMARK VINA RESULT:      -8.5      0.000      0.000
REMARK  Name = 
REMARK  11 active torsions:
REMARK  status: ('A' for Active; 'I' for Inactive)
REMARK    1  A    between atoms: C_1  and  C_2
REMARK    2  A    between atoms: C_2  and  O_3
REMARK    3  A    between atoms: O_3  and  C_4
REMARK    4  A    between atoms: C_4  and  C_6
REMARK    5  A    between atoms: C_8  and  N_9
REMARK    6  A    between atoms: C_10  and  C_12
REMARK    7  A    between atoms: C_21  and  O_22
REMARK    8  A    between atoms: N_24  and  C_25
REMARK    9  A    between atoms: C_25  and  C_26
REMARK   10  A    between atoms: C_26  and  C_27
REMARK   11  A    between atoms: C_26  and  C_28
REMARK                            x       y       z     vdW  Elec       q    Type
REMARK                         _______ _______ _______ _____ _____    ______ ____
ROOT
ATOM      1  N   UNL     1       3.130   5.386  18.597  0.00  0.00    +0.000 N 
ATOM      2  C   UNL     1       3.280   6.677  18.148  0.00  0.00    +0.000 C 
ATOM      3  O   UNL     1       4.128   6.978  17.313  0.00  0.00    +0.000 OA
ATOM      4  H   UNL     1       2.365   5.208  19.244  0.00  0.00    +0.000 HD
ENDROOT
BRANCH   2   5
ATOM      5  C   UNL     1       2.358   7.724  18.704  0.00  0.00    +0.000 A 
ATOM      6  C   UNL     1       2.014   8.763  17.832  0.00  0.00    +0.000 A 
ATOM      7  C   UNL     1       1.206   9.817  18.255  0.00  0.00    +0.000 A 
ATOM      8  C   UNL     1       0.708   9.864  19.561  0.00  0.00    +0.000 A 
ATOM      9  C   UNL     1      -0.094  10.947  19.953  0.00  0.00    +0.000 A 
ATOM     10  C   UNL     1      -0.612  11.027  21.242  0.00  0.00    +0.000 A 
ATOM     11  C   UNL     1      -0.344  10.014  22.150  0.00  0.00    +0.000 A 
ATOM     12  C   UNL     1       0.450   8.924  21.772  0.00  0.00    +0.000 A 
ATOM     13  C   UNL     1       1.013   8.822  20.473  0.00  0.00    +0.000 A 
ATOM     14  C   UNL     1       1.853   7.755  20.020  0.00  0.00    +0.000 A 
BRANCH  14  15
ATOM     15  O   UNL     1       2.197   6.730  20.876  0.00  0.00    +0.000 OA
ATOM     16  H   UNL     1       1.704   6.831  21.706  0.00  0.00    +0.000 HD
ENDBRANCH  14  15
ENDBRANCH   2   5
BRANCH   1  19
ATOM     17  C   UNL     1       5.443   3.807  16.254  0.00  0.00    +0.000 C 
ATOM     18  C   UNL     1       4.042   4.314  16.587  0.00  0.00    +0.000 C 
ATOM     19  C   UNL     1       3.943   4.284  18.096  0.00  0.00    +0.000 C 
ATOM     20  C   UNL     1       5.394   4.331  18.586  0.00  0.00    +0.000 C 
ATOM     21  N   UNL     1       6.304   4.082  17.446  0.00  0.00    +0.000 NA
BRANCH  17  22
ATOM     22  C   UNL     1       5.874   4.446  14.928  0.00  0.00    +0.000 C 
ATOM     23  O   UNL     1       5.712   5.634  14.641  0.00  0.00    +0.000 OA
BRANCH  22  24
ATOM     24  O   UNL     1       6.372   3.520  14.060  0.00  0.00    +0.000 OA
BRANCH  24  26
ATOM     25  C   UNL     1       5.323   3.120  11.887  0.00  0.00    +0.000 C 
ATOM     26  C   UNL     1       6.354   3.908  12.676  0.00  0.00    +0.000 C 
ENDBRANCH  24  26
ENDBRANCH  22  24
ENDBRANCH  17  22
BRANCH  21  27
ATOM     27  C   UNL     1       7.277   5.173  17.290  0.00  0.00    +0.000 C 
BRANCH  27  28
ATOM     28  C   UNL     1       7.298   6.235  18.422  0.00  0.00    +0.000 C 
ATOM     29  C   UNL     1       8.204   5.859  19.594  0.00  0.00    +0.000 C 
ATOM     30  C   UNL     1       7.710   7.586  17.824  0.00  0.00    +0.000 C 
ENDBRANCH  27  28
ENDBRANCH  21  27
ENDBRANCH   1  19
TORSDOF 8
ENDMDL
MODEL 2
REMARK VINA RESULT:      -8.3      2.201      3.961
REMARK  Name = 
REMARK  11 active torsions:
REMARK  status: ('A' for Active; 'I' for Inactive)
REMARK    1  A    between atoms: C_1  and  C_2
REMARK    2  A    between atoms: C_2  and  O_3
REMARK    3  A    between atoms: O_3  and  C_4
REMARK    4  A    between atoms: C_4  and  C_6
REMARK    5  A    between atoms: C_8  and  N_9
REMARK    6  A    between atoms: C_10  and  C_12
REMARK    7  A    between atoms: C_21  and  O_22
REMARK    8  A    between atoms: N_24  and  C_25
REMARK    9  A    between atoms: C_25  and  C_26
REMARK   10  A    between atoms: C_26  and  C_27
REMARK   11  A    between atoms: C_26  and  C_28
REMARK                            x       y       z     vdW  Elec       q    Type
REMARK                         _______ _______ _______ _____ _____    ______ ____
ROOT
ATOM      1  N   UNL     1       2.513   7.118  18.509  0.00  0.00    +0.000 N 
ATOM      2  C   UNL     1       2.006   8.385  18.343  0.00  0.00    +0.000 C 
ATOM      3  O   UNL     1       2.112   8.991  17.280  0.00  0.00    +0.000 OA
ATOM      4  H   UNL     1       2.331   6.661  19.400  0.00  0.00    +0.000 HD
ENDROOT
BRANCH   2   5
ATOM      5  C   UNL     1       1.296   9.015  19.507  0.00  0.00    +0.000 A 
ATOM      6  C   UNL     1       1.441   8.365  20.738  0.00  0.00    +0.000 A 
ATOM      7  C   UNL     1       0.786   8.829  21.877  0.00  0.00    +0.000 A 
ATOM      8  C   UNL     1      -0.029   9.965  21.825  0.00  0.00    +0.000 A 
ATOM      9  C   UNL     1      -0.681  10.396  22.992  0.00  0.00    +0.000 A 
ATOM     10  C   UNL     1      -1.496  11.525  22.982  0.00  0.00    +0.000 A 
ATOM     11  C   UNL     1      -1.656  12.242  21.806  0.00  0.00    +0.000 A 
ATOM     12  C   UNL     1      -1.008  11.827  20.636  0.00  0.00    +0.000 A 
ATOM     13  C   UNL     1      -0.188  10.668  20.605  0.00  0.00    +0.000 A 
ATOM     14  C   UNL     1       0.486  10.167  19.447  0.00  0.00    +0.000 A 
BRANCH  14  15
ATOM     15  O   UNL     1       0.345  10.803  18.230  0.00  0.00    +0.000 OA
ATOM     16  H   UNL     1       0.168  11.744  18.384  0.00  0.00    +0.000 HD
ENDBRANCH  14  15
ENDBRANCH   2   5
BRANCH   1  19
ATOM     17  C   UNL     1       5.363   5.452  16.949  0.00  0.00    +0.000 C 
ATOM     18  C   UNL     1       4.659   6.735  17.383  0.00  0.00    +0.000 C 
ATOM     19  C   UNL     1       3.185   6.397  17.435  0.00  0.00    +0.000 C 
ATOM     20  C   UNL     1       3.138   4.875  17.604  0.00  0.00    +0.000 C 
ATOM     21  N   UNL     1       4.482   4.311  17.349  0.00  0.00    +0.000 NA
BRANCH  17  22
ATOM     22  C   UNL     1       6.779   5.469  17.536  0.00  0.00    +0.000 C 
ATOM     23  O   UNL     1       7.671   4.675  17.230  0.00  0.00    +0.000 OA
BRANCH  22  24
ATOM     24  O   UNL     1       6.910   6.410  18.514  0.00  0.00    +0.000 OA
BRANCH  24  26
ATOM     25  C   UNL     1       7.959   8.494  17.779  0.00  0.00    +0.000 C 
ATOM     26  C   UNL     1       8.136   7.159  18.482  0.00  0.00    +0.000 C 
ENDBRANCH  24  26
ENDBRANCH  22  24
ENDBRANCH  17  22
BRANCH  21  27
ATOM     27  C   UNL     1       4.952   3.512  18.489  0.00  0.00    +0.000 C 
BRANCH  27  28
ATOM     28  C   UNL     1       3.894   2.598  19.164  0.00  0.00    +0.000 C 
ATOM     29  C   UNL     1       3.483   1.403  18.305  0.00  0.00    +0.000 C 
ATOM     30  C   UNL     1       4.436   2.135  20.522  0.00  0.00    +0.000 C 
ENDBRANCH  27  28
ENDBRANCH  21  27
ENDBRANCH   1  19
TORSDOF 8
ENDMDL
MODEL 3
REMARK VINA RESULT:      -8.2      2.198      3.999
REMARK  Name = 
REMARK  11 active torsions:
REMARK  status: ('A' for Active; 'I' for Inactive)
REMARK    1  A    between atoms: C_1  and  C_2
REMARK    2  A    between atoms: C_2  and  O_3
REMARK    3  A    between atoms: O_3  and  C_4
REMARK    4  A    between atoms: C_4  and  C_6
REMARK    5  A    between atoms: C_8  and  N_9
REMARK    6  A    between atoms: C_10  and  C_12
REMARK    7  A    between atoms: C_21  and  O_22
REMARK    8  A    between atoms: N_24  and  C_25
REMARK    9  A    between atoms: C_25  and  C_26
REMARK   10  A    between atoms: C_26  and  C_27
REMARK   11  A    between atoms: C_26  and  C_28
REMARK                            x       y       z     vdW  Elec       q    Type
REMARK                         _______ _______ _______ _____ _____    ______ ____
ROOT
ATOM      1  N   UNL     1       2.182   7.430  18.890  0.00  0.00    +0.000 N 
ATOM      2  C   UNL     1       1.742   8.710  18.651  0.00  0.00    +0.000 C 
ATOM      3  O   UNL     1       1.945   9.275  17.580  0.00  0.00    +0.000 OA
ATOM      4  H   UNL     1       1.921   7.010  19.780  0.00  0.00    +0.000 HD
ENDROOT
BRANCH   2   5
ATOM      5  C   UNL     1       0.983   9.406  19.744  0.00  0.00    +0.000 A 
ATOM      6  C   UNL     1       1.098   8.848  21.022  0.00  0.00    +0.000 A 
ATOM      7  C   UNL     1       0.397   9.380  22.103  0.00  0.00    +0.000 A 
ATOM      8  C   UNL     1      -0.436  10.492  21.944  0.00  0.00    +0.000 A 
ATOM      9  C   UNL     1      -1.134  10.992  23.055  0.00  0.00    +0.000 A 
ATOM     10  C   UNL     1      -1.968  12.101  22.939  0.00  0.00    +0.000 A 
ATOM     11  C   UNL     1      -2.102  12.728  21.710  0.00  0.00    +0.000 A 
ATOM     12  C   UNL     1      -1.408  12.244  20.594  0.00  0.00    +0.000 A 
ATOM     13  C   UNL     1      -0.566  11.104  20.672  0.00  0.00    +0.000 A 
ATOM     14  C   UNL     1       0.154  10.535  19.575  0.00  0.00    +0.000 A 
BRANCH  14  15
ATOM     15  O   UNL     1       0.042  11.079  18.312  0.00  0.00    +0.000 OA
ATOM     16  H   UNL     1      -0.796  10.792  17.917  0.00  0.00    +0.000 HD
ENDBRANCH  14  15
ENDBRANCH   2   5
BRANCH   1  19
ATOM     17  C   UNL     1       4.867   5.251  17.718  0.00  0.00    +0.000 C 
ATOM     18  C   UNL     1       4.383   6.630  18.156  0.00  0.00    +0.000 C 
ATOM     19  C   UNL     1       2.893   6.646  17.887  0.00  0.00    +0.000 C 
ATOM     20  C   UNL     1       2.483   5.171  17.867  0.00  0.00    +0.000 C 
ATOM     21  N   UNL     1       3.695   4.325  17.809  0.00  0.00    +0.000 NA
BRANCH  17  22
ATOM     22  C   UNL     1       6.096   4.892  18.562  0.00  0.00    +0.000 C 
ATOM     23  O   UNL     1       6.237   5.187  19.751  0.00  0.00    +0.000 OA
BRANCH  22  24
ATOM     24  O   UNL     1       7.064   4.290  17.814  0.00  0.00    +0.000 OA
BRANCH  24  26
ATOM     25  C   UNL     1       6.708   3.889  15.428  0.00  0.00    +0.000 C 
ATOM     26  C   UNL     1       7.242   4.830  16.494  0.00  0.00    +0.000 C 
ENDBRANCH  24  26
ENDBRANCH  22  24
ENDBRANCH  17  22
BRANCH  21  27
ATOM     27  C   UNL     1       3.729   3.360  18.917  0.00  0.00    +0.000 C 
BRANCH  27  28
ATOM     28  C   UNL     1       2.387   3.130  19.662  0.00  0.00    +0.000 C 
ATOM     29  C   UNL     1       1.558   1.984  19.085  0.00  0.00    +0.000 C 
ATOM     30  C   UNL     1       2.681   2.898  21.149  0.00  0.00    +0.000 C 
ENDBRANCH  27  28
ENDBRANCH  21  27
ENDBRANCH   1  19
TORSDOF 8
ENDMDL
MODEL 4
REMARK VINA RESULT:      -8.2      2.465      4.414
REMARK  Name = 
REMARK  11 active torsions:
REMARK  status: ('A' for Active; 'I' for Inactive)
REMARK    1  A    between atoms: C_1  and  C_2
REMARK    2  A    between atoms: C_2  and  O_3
REMARK    3  A    between atoms: O_3  and  C_4
REMARK    4  A    between atoms: C_4  and  C_6
REMARK    5  A    between atoms: C_8  and  N_9
REMARK    6  A    between atoms: C_10  and  C_12
REMARK    7  A    between atoms: C_21  and  O_22
REMARK    8  A    between atoms: N_24  and  C_25
REMARK    9  A    between atoms: C_25  and  C_26
REMARK   10  A    between atoms: C_26  and  C_27
REMARK   11  A    between atoms: C_26  and  C_28
REMARK                            x       y       z     vdW  Elec       q    Type
REMARK                         _______ _______ _______ _____ _____    ______ ____
ROOT
ATOM      1  N   UNL     1       2.204   7.364  18.888  0.00  0.00    +0.000 N 
ATOM      2  C   UNL     1       1.749   8.639  18.654  0.00  0.00    +0.000 C 
ATOM      3  O   UNL     1       1.936   9.208  17.582  0.00  0.00    +0.000 OA
ATOM      4  H   UNL     1       1.957   6.941  19.780  0.00  0.00    +0.000 HD
ENDROOT
BRANCH   2   5
ATOM      5  C   UNL     1       0.993   9.327  19.755  0.00  0.00    +0.000 A 
ATOM      6  C   UNL     1       1.100   8.749  21.025  0.00  0.00    +0.000 A 
ATOM      7  C   UNL     1       0.401   9.271  22.112  0.00  0.00    +0.000 A 
ATOM      8  C   UNL     1      -0.422  10.393  21.967  0.00  0.00    +0.000 A 
ATOM      9  C   UNL     1      -1.118  10.883  23.083  0.00  0.00    +0.000 A 
ATOM     10  C   UNL     1      -1.942  12.001  22.981  0.00  0.00    +0.000 A 
ATOM     11  C   UNL     1      -2.066  12.648  21.761  0.00  0.00    +0.000 A 
ATOM     12  C   UNL     1      -1.374  12.174  20.640  0.00  0.00    +0.000 A 
ATOM     13  C   UNL     1      -0.543  11.025  20.704  0.00  0.00    +0.000 A 
ATOM     14  C   UNL     1       0.176  10.465  19.600  0.00  0.00    +0.000 A 
BRANCH  14  15
ATOM     15  O   UNL     1       0.072  11.029  18.346  0.00  0.00    +0.000 OA
ATOM     16  H   UNL     1       0.875  11.544  18.163  0.00  0.00    +0.000 HD
ENDBRANCH  14  15
ENDBRANCH   2   5
BRANCH   1  19
ATOM     17  C   UNL     1       4.697   4.953  17.745  0.00  0.00    +0.000 C 
ATOM     18  C   UNL     1       4.351   6.338  18.284  0.00  0.00    +0.000 C 
ATOM     19  C   UNL     1       2.915   6.589  17.877  0.00  0.00    +0.000 C 
ATOM     20  C   UNL     1       2.321   5.194  17.655  0.00  0.00    +0.000 C 
ATOM     21  N   UNL     1       3.413   4.196  17.620  0.00  0.00    +0.000 NA
BRANCH  17  22
ATOM     22  C   UNL     1       5.770   4.346  18.658  0.00  0.00    +0.000 C 
ATOM     23  O   UNL     1       5.539   3.802  19.740  0.00  0.00    +0.000 OA
BRANCH  22  24
ATOM     24  O   UNL     1       7.027   4.566  18.176  0.00  0.00    +0.000 OA
BRANCH  24  26
ATOM     25  C   UNL     1       7.875   6.857  18.278  0.00  0.00    +0.000 C 
ATOM     26  C   UNL     1       7.821   5.491  18.938  0.00  0.00    +0.000 C 
ENDBRANCH  24  26
ENDBRANCH  22  24
ENDBRANCH  17  22
BRANCH  21  27
ATOM     27  C   UNL     1       3.200   3.134  18.613  0.00  0.00    +0.000 C 
BRANCH  27  28
ATOM     28  C   UNL     1       1.876   3.211  19.420  0.00  0.00    +0.000 C 
ATOM     29  C   UNL     1       0.800   2.248  18.919  0.00  0.00    +0.000 C 
ATOM     30  C   UNL     1       2.185   2.963  20.901  0.00  0.00    +0.000 C 
ENDBRANCH  27  28
ENDBRANCH  21  27
ENDBRANCH   1  19
TORSDOF 8
ENDMDL
MODEL 5
REMARK VINA RESULT:      -8.0      0.959      1.029
REMARK  Name = 
REMARK  11 active torsions:
REMARK  status: ('A' for Active; 'I' for Inactive)
REMARK    1  A    between atoms: C_1  and  C_2
REMARK    2  A    between atoms: C_2  and  O_3
REMARK    3  A    between atoms: O_3  and  C_4
REMARK    4  A    between atoms: C_4  and  C_6
REMARK    5  A    between atoms: C_8  and  N_9
REMARK    6  A    between atoms: C_10  and  C_12
REMARK    7  A    between atoms: C_21  and  O_22
REMARK    8  A    between atoms: N_24  and  C_25
REMARK    9  A    between atoms: C_25  and  C_26
REMARK   10  A    between atoms: C_26  and  C_27
REMARK   11  A    between atoms: C_26  and  C_28
REMARK                            x       y       z     vdW  Elec       q    Type
REMARK                         _______ _______ _______ _____ _____    ______ ____
ROOT
ATOM      1  N   UNL     1       3.235   6.110  17.818  0.00  0.00    +0.000 N 
ATOM      2  C   UNL     1       2.564   6.380  18.987  0.00  0.00    +0.000 C 
ATOM      3  O   UNL     1       2.451   5.543  19.878  0.00  0.00    +0.000 OA
ATOM      4  H   UNL     1       3.336   6.876  17.155  0.00  0.00    +0.000 HD
ENDROOT
BRANCH   2   5
ATOM      5  C   UNL     1       1.973   7.751  19.155  0.00  0.00    +0.000 A 
ATOM      6  C   UNL     1       1.941   8.550  18.006  0.00  0.00    +0.000 A 
ATOM      7  C   UNL     1       1.462   9.858  18.055  0.00  0.00    +0.000 A 
ATOM      8  C   UNL     1       0.992  10.408  19.251  0.00  0.00    +0.000 A 
ATOM      9  C   UNL     1       0.527  11.733  19.263  0.00  0.00    +0.000 A 
ATOM     10  C   UNL     1       0.046  12.314  20.433  0.00  0.00    +0.000 A 
ATOM     11  C   UNL     1       0.012  11.570  21.602  0.00  0.00    +0.000 A 
ATOM     12  C   UNL     1       0.468  10.246  21.605  0.00  0.00    +0.000 A 
ATOM     13  C   UNL     1       0.985   9.629  20.436  0.00  0.00    +0.000 A 
ATOM     14  C   UNL     1       1.490   8.292  20.364  0.00  0.00    +0.000 A 
BRANCH  14  15
ATOM     15  O   UNL     1       1.527   7.501  21.494  0.00  0.00    +0.000 OA
ATOM     16  H   UNL     1       1.922   6.644  21.267  0.00  0.00    +0.000 HD
ENDBRANCH  14  15
ENDBRANCH   2   5
BRANCH   1  19
ATOM     17  C   UNL     1       5.574   3.887  16.109  0.00  0.00    +0.000 C 
ATOM     18  C   UNL     1       4.273   4.686  16.110  0.00  0.00    +0.000 C 
ATOM     19  C   UNL     1       3.881   4.827  17.565  0.00  0.00    +0.000 C 
ATOM     20  C   UNL     1       5.188   4.643  18.344  0.00  0.00    +0.000 C 
ATOM     21  N   UNL     1       6.228   4.110  17.436  0.00  0.00    +0.000 NA
BRANCH  17  22
ATOM     22  C   UNL     1       6.377   4.295  14.867  0.00  0.00    +0.000 C 
ATOM     23  O   UNL     1       6.851   5.417  14.680  0.00  0.00    +0.000 OA
BRANCH  22  24
ATOM     24  O   UNL     1       6.422   3.292  13.944  0.00  0.00    +0.000 OA
BRANCH  24  26
ATOM     25  C   UNL     1       5.088   3.228  11.895  0.00  0.00    +0.000 C 
ATOM     26  C   UNL     1       6.355   3.719  12.573  0.00  0.00    +0.000 C 
ENDBRANCH  24  26
ENDBRANCH  22  24
ENDBRANCH  17  22
BRANCH  21  27
ATOM     27  C   UNL     1       7.419   4.971  17.423  0.00  0.00    +0.000 C 
BRANCH  27  28
ATOM     28  C   UNL     1       7.390   6.189  18.385  0.00  0.00    +0.000 C 
ATOM     29  C   UNL     1       8.311   6.033  19.595  0.00  0.00    +0.000 C 
ATOM     30  C   UNL     1       7.739   7.454  17.592  0.00  0.00    +0.000 C 
ENDBRANCH  27  28
ENDBRANCH  21  27
ENDBRANCH   1  19
TORSDOF 8
ENDMDL
MODEL 6
REMARK VINA RESULT:      -8.0      0.886      1.629
REMARK  Name = 
REMARK  11 active torsions:
REMARK  status: ('A' for Active; 'I' for Inactive)
REMARK    1  A    between atoms: C_1  and  C_2
REMARK    2  A    between atoms: C_2  and  O_3
REMARK    3  A    between atoms: O_3  and  C_4
REMARK    4  A    between atoms: C_4  and  C_6
REMARK    5  A    between atoms: C_8  and  N_9
REMARK    6  A    between atoms: C_10  and  C_12
REMARK    7  A    between atoms: C_21  and  O_22
REMARK    8  A    between atoms: N_24  and  C_25
REMARK    9  A    between atoms: C_25  and  C_26
REMARK   10  A    between atoms: C_26  and  C_27
REMARK   11  A    between atoms: C_26  and  C_28
REMARK                            x       y       z     vdW  Elec       q    Type
REMARK                         _______ _______ _______ _____ _____    ______ ____
ROOT
ATOM      1  N   UNL     1       3.154   5.290  18.977  0.00  0.00    +0.000 N 
ATOM      2  C   UNL     1       3.226   6.580  18.506  0.00  0.00    +0.000 C 
ATOM      3  O   UNL     1       3.988   6.896  17.597  0.00  0.00    +0.000 OA
ATOM      4  H   UNL     1       2.455   5.097  19.691  0.00  0.00    +0.000 HD
ENDROOT
BRANCH   2   5
ATOM      5  C   UNL     1       2.326   7.606  19.132  0.00  0.00    +0.000 A 
ATOM      6  C   UNL     1       1.928   7.351  20.449  0.00  0.00    +0.000 A 
ATOM      7  C   UNL     1       1.052   8.207  21.114  0.00  0.00    +0.000 A 
ATOM      8  C   UNL     1       0.552   9.352  20.487  0.00  0.00    +0.000 A 
ATOM      9  C   UNL     1      -0.337  10.186  21.185  0.00  0.00    +0.000 A 
ATOM     10  C   UNL     1      -0.852  11.338  20.597  0.00  0.00    +0.000 A 
ATOM     11  C   UNL     1      -0.473  11.675  19.308  0.00  0.00    +0.000 A 
ATOM     12  C   UNL     1       0.417  10.856  18.600  0.00  0.00    +0.000 A 
ATOM     13  C   UNL     1       0.944   9.664  19.161  0.00  0.00    +0.000 A 
ATOM     14  C   UNL     1       1.836   8.764  18.495  0.00  0.00    +0.000 A 
BRANCH  14  15
ATOM     15  O   UNL     1       2.230   9.010  17.196  0.00  0.00    +0.000 OA
ATOM     16  H   UNL     1       1.850   8.330  16.616  0.00  0.00    +0.000 HD
ENDBRANCH  14  15
ENDBRANCH   2   5
BRANCH   1  19
ATOM     17  C   UNL     1       5.306   3.756  16.457  0.00  0.00    +0.000 C 
ATOM     18  C   UNL     1       3.925   4.228  16.903  0.00  0.00    +0.000 C 
ATOM     19  C   UNL     1       3.953   4.207  18.416  0.00  0.00    +0.000 C 
ATOM     20  C   UNL     1       5.438   4.296  18.782  0.00  0.00    +0.000 C 
ATOM     21  N   UNL     1       6.256   4.063  17.572  0.00  0.00    +0.000 NA
BRANCH  17  22
ATOM     22  C   UNL     1       5.608   4.397  15.097  0.00  0.00    +0.000 C 
ATOM     23  O   UNL     1       5.266   5.535  14.770  0.00  0.00    +0.000 OA
BRANCH  22  24
ATOM     24  O   UNL     1       6.218   3.520  14.250  0.00  0.00    +0.000 OA
BRANCH  24  26
ATOM     25  C   UNL     1       5.704   2.940  11.930  0.00  0.00    +0.000 C 
ATOM     26  C   UNL     1       6.312   3.955  12.883  0.00  0.00    +0.000 C 
ENDBRANCH  24  26
ENDBRANCH  22  24
ENDBRANCH  17  22
BRANCH  21  27
ATOM     27  C   UNL     1       7.183   5.178  17.330  0.00  0.00    +0.000 C 
BRANCH  27  28
ATOM     28  C   UNL     1       7.291   6.233  18.463  0.00  0.00    +0.000 C 
ATOM     29  C   UNL     1       8.236   5.822  19.592  0.00  0.00    +0.000 C 
ATOM     30  C   UNL     1       7.719   7.573  17.852  0.00  0.00    +0.000 C 
ENDBRANCH  27  28
ENDBRANCH  21  27
ENDBRANCH   1  19
TORSDOF 8
ENDMDL
MODEL 7
REMARK VINA RESULT:      -8.0      2.170      3.606
REMARK  Name = 
REMARK  11 active torsions:
REMARK  status: ('A' for Active; 'I' for Inactive)
REMARK    1  A    between atoms: C_1  and  C_2
REMARK    2  A    between atoms: C_2  and  O_3
REMARK    3  A    between atoms: O_3  and  C_4
REMARK    4  A    between atoms: C_4  and  C_6
REMARK    5  A    between atoms: C_8  and  N_9
REMARK    6  A    between atoms: C_10  and  C_12
REMARK    7  A    between atoms: C_21  and  O_22
REMARK    8  A    between atoms: N_24  and  C_25
REMARK    9  A    between atoms: C_25  and  C_26
REMARK   10  A    between atoms: C_26  and  C_27
REMARK   11  A    between atoms: C_26  and  C_28
REMARK                            x       y       z     vdW  Elec       q    Type
REMARK                         _______ _______ _______ _____ _____    ______ ____
ROOT
ATOM      1  N   UNL     1       2.443   6.812  18.381  0.00  0.00    +0.000 N 
ATOM      2  C   UNL     1       2.258   8.143  18.092  0.00  0.00    +0.000 C 
ATOM      3  O   UNL     1       2.756   8.666  17.099  0.00  0.00    +0.000 OA
ATOM      4  H   UNL     1       1.949   6.442  19.190  0.00  0.00    +0.000 HD
ENDROOT
BRANCH   2   5
ATOM      5  C   UNL     1       1.408   8.953  19.028  0.00  0.00    +0.000 A 
ATOM      6  C   UNL     1       0.788  10.079  18.475  0.00  0.00    +0.000 A 
ATOM      7  C   UNL     1       0.017  10.933  19.262  0.00  0.00    +0.000 A 
ATOM      8  C   UNL     1      -0.168  10.685  20.625  0.00  0.00    +0.000 A 
ATOM      9  C   UNL     1      -0.943  11.574  21.387  0.00  0.00    +0.000 A 
ATOM     10  C   UNL     1      -1.155  11.357  22.746  0.00  0.00    +0.000 A 
ATOM     11  C   UNL     1      -0.604  10.241  23.354  0.00  0.00    +0.000 A 
ATOM     12  C   UNL     1       0.167   9.342  22.606  0.00  0.00    +0.000 A 
ATOM     13  C   UNL     1       0.422   9.543  21.224  0.00  0.00    +0.000 A 
ATOM     14  C   UNL     1       1.218   8.687  20.400  0.00  0.00    +0.000 A 
BRANCH  14  15
ATOM     15  O   UNL     1       1.832   7.576  20.940  0.00  0.00    +0.000 OA
ATOM     16  H   UNL     1       2.680   7.842  21.331  0.00  0.00    +0.000 HD
ENDBRANCH  14  15
ENDBRANCH   2   5
BRANCH   1  19
ATOM     17  C   UNL     1       5.449   4.991  17.391  0.00  0.00    +0.000 C 
ATOM     18  C   UNL     1       4.682   6.305  17.513  0.00  0.00    +0.000 C 
ATOM     19  C   UNL     1       3.217   5.925  17.521  0.00  0.00    +0.000 C 
ATOM     20  C   UNL     1       3.193   4.463  17.980  0.00  0.00    +0.000 C 
ATOM     21  N   UNL     1       4.567   3.914  17.940  0.00  0.00    +0.000 NA
BRANCH  17  22
ATOM     22  C   UNL     1       6.813   5.176  18.067  0.00  0.00    +0.000 C 
ATOM     23  O   UNL     1       7.726   4.348  18.036  0.00  0.00    +0.000 OA
BRANCH  22  24
ATOM     24  O   UNL     1       6.865   6.330  18.792  0.00  0.00    +0.000 OA
BRANCH  24  26
ATOM     25  C   UNL     1       7.888   8.227  17.635  0.00  0.00    +0.000 C 
ATOM     26  C   UNL     1       8.071   7.097  18.634  0.00  0.00    +0.000 C 
ENDBRANCH  24  26
ENDBRANCH  22  24
ENDBRANCH  17  22
BRANCH  21  27
ATOM     27  C   UNL     1       4.963   3.369  19.246  0.00  0.00    +0.000 C 
BRANCH  27  28
ATOM     28  C   UNL     1       4.146   2.150  19.752  0.00  0.00    +0.000 C 
ATOM     29  C   UNL     1       3.040   2.525  20.739  0.00  0.00    +0.000 C 
ATOM     30  C   UNL     1       3.571   1.404  18.543  0.00  0.00    +0.000 C 
ENDBRANCH  27  28
ENDBRANCH  21  27
ENDBRANCH   1  19
TORSDOF 8
ENDMDL
MODEL 8
REMARK VINA RESULT:      -7.8      1.019      1.922
REMARK  Name = 
REMARK  11 active torsions:
REMARK  status: ('A' for Active; 'I' for Inactive)
REMARK    1  A    between atoms: C_1  and  C_2
REMARK    2  A    between atoms: C_2  and  O_3
REMARK    3  A    between atoms: O_3  and  C_4
REMARK    4  A    between atoms: C_4  and  C_6
REMARK    5  A    between atoms: C_8  and  N_9
REMARK    6  A    between atoms: C_10  and  C_12
REMARK    7  A    between atoms: C_21  and  O_22
REMARK    8  A    between atoms: N_24  and  C_25
REMARK    9  A    between atoms: C_25  and  C_26
REMARK   10  A    between atoms: C_26  and  C_27
REMARK   11  A    between atoms: C_26  and  C_28
REMARK                            x       y       z     vdW  Elec       q    Type
REMARK                         _______ _______ _______ _____ _____    ______ ____
ROOT
ATOM      1  N   UNL     1       3.276   6.107  18.392  0.00  0.00    +0.000 N 
ATOM      2  C   UNL     1       2.323   6.165  19.381  0.00  0.00    +0.000 C 
ATOM      3  O   UNL     1       1.880   5.152  19.915  0.00  0.00    +0.000 OA
ATOM      4  H   UNL     1       3.634   6.993  18.043  0.00  0.00    +0.000 HD
ENDROOT
BRANCH   2   5
ATOM      5  C   UNL     1       1.839   7.521  19.809  0.00  0.00    +0.000 A 
ATOM      6  C   UNL     1       1.474   7.645  21.154  0.00  0.00    +0.000 A 
ATOM      7  C   UNL     1       0.962   8.842  21.652  0.00  0.00    +0.000 A 
ATOM      8  C   UNL     1       0.806   9.957  20.823  0.00  0.00    +0.000 A 
ATOM      9  C   UNL     1       0.276  11.143  21.358  0.00  0.00    +0.000 A 
ATOM     10  C   UNL     1       0.111  12.276  20.567  0.00  0.00    +0.000 A 
ATOM     11  C   UNL     1       0.486  12.238  19.233  0.00  0.00    +0.000 A 
ATOM     12  C   UNL     1       1.021  11.065  18.686  0.00  0.00    +0.000 A 
ATOM     13  C   UNL     1       1.183   9.885  19.458  0.00  0.00    +0.000 A 
ATOM     14  C   UNL     1       1.696   8.643  18.967  0.00  0.00    +0.000 A 
BRANCH  14  15
ATOM     15  O   UNL     1       2.055   8.514  17.642  0.00  0.00    +0.000 OA
ATOM     16  H   UNL     1       1.286   8.213  17.133  0.00  0.00    +0.000 HD
ENDBRANCH  14  15
ENDBRANCH   2   5
BRANCH   1  19
ATOM     17  C   UNL     1       5.418   4.054  16.264  0.00  0.00    +0.000 C 
ATOM     18  C   UNL     1       4.160   4.898  16.448  0.00  0.00    +0.000 C 
ATOM     19  C   UNL     1       3.845   4.847  17.927  0.00  0.00    +0.000 C 
ATOM     20  C   UNL     1       5.177   4.499  18.600  0.00  0.00    +0.000 C 
ATOM     21  N   UNL     1       6.145   4.058  17.571  0.00  0.00    +0.000 NA
BRANCH  17  22
ATOM     22  C   UNL     1       6.179   4.601  15.049  0.00  0.00    +0.000 C 
ATOM     23  O   UNL     1       6.327   5.798  14.799  0.00  0.00    +0.000 OA
BRANCH  22  24
ATOM     24  O   UNL     1       6.594   3.600  14.221  0.00  0.00    +0.000 OA
BRANCH  24  26
ATOM     25  C   UNL     1       6.998   3.944  11.833  0.00  0.00    +0.000 C 
ATOM     26  C   UNL     1       5.991   3.596  12.917  0.00  0.00    +0.000 C 
ENDBRANCH  24  26
ENDBRANCH  22  24
ENDBRANCH  17  22
BRANCH  21  27
ATOM     27  C   UNL     1       7.375   4.862  17.614  0.00  0.00    +0.000 C 
BRANCH  27  28
ATOM     28  C   UNL     1       7.357   6.085  18.569  0.00  0.00    +0.000 C 
ATOM     29  C   UNL     1       8.287   5.934  19.772  0.00  0.00    +0.000 C 
ATOM     30  C   UNL     1       7.702   7.345  17.766  0.00  0.00    +0.000 C 
ENDBRANCH  27  28
ENDBRANCH  21  27
ENDBRANCH   1  19
TORSDOF 8
ENDMDL
MODEL 9
REMARK VINA RESULT:      -7.7      2.191      3.824
REMARK  Name = 
REMARK  11 active torsions:
REMARK  status: ('A' for Active; 'I' for Inactive)
REMARK    1  A    between atoms: C_1  and  C_2
REMARK    2  A    between atoms: C_2  and  O_3
REMARK    3  A    between atoms: O_3  and  C_4
REMARK    4  A    between atoms: C_4  and  C_6
REMARK    5  A    between atoms: C_8  and  N_9
REMARK    6  A    between atoms: C_10  and  C_12
REMARK    7  A    between atoms: C_21  and  O_22
REMARK    8  A    between atoms: N_24  and  C_25
REMARK    9  A    between atoms: C_25  and  C_26
REMARK   10  A    between atoms: C_26  and  C_27
REMARK   11  A    between atoms: C_26  and  C_28
REMARK                            x       y       z     vdW  Elec       q    Type
REMARK                         _______ _______ _______ _____ _____    ______ ____
ROOT
ATOM      1  N   UNL     1       1.792   7.387  18.485  0.00  0.00    +0.000 N 
ATOM      2  C   UNL     1       1.704   8.732  18.213  0.00  0.00    +0.000 C 
ATOM      3  O   UNL     1       2.308   9.244  17.276  0.00  0.00    +0.000 OA
ATOM      4  H   UNL     1       1.214   7.030  19.243  0.00  0.00    +0.000 HD
ENDROOT
BRANCH   2   5
ATOM      5  C   UNL     1       0.826   9.570  19.098  0.00  0.00    +0.000 A 
ATOM      6  C   UNL     1       0.203  10.663  18.485  0.00  0.00    +0.000 A 
ATOM      7  C   UNL     1      -0.594  11.540  19.219  0.00  0.00    +0.000 A 
ATOM      8  C   UNL     1      -0.801  11.348  20.589  0.00  0.00    +0.000 A 
ATOM      9  C   UNL     1      -1.601  12.259  21.297  0.00  0.00    +0.000 A 
ATOM     10  C   UNL     1      -1.836  12.100  22.660  0.00  0.00    +0.000 A 
ATOM     11  C   UNL     1      -1.282  11.018  23.326  0.00  0.00    +0.000 A 
ATOM     12  C   UNL     1      -0.485  10.098  22.633  0.00  0.00    +0.000 A 
ATOM     13  C   UNL     1      -0.208  10.242  21.248  0.00  0.00    +0.000 A 
ATOM     14  C   UNL     1       0.614   9.361  20.476  0.00  0.00    +0.000 A 
BRANCH  14  15
ATOM     15  O   UNL     1       1.233   8.283  21.076  0.00  0.00    +0.000 OA
ATOM     16  H   UNL     1       2.192   8.434  21.085  0.00  0.00    +0.000 HD
ENDBRANCH  14  15
ENDBRANCH   2   5
BRANCH   1  19
ATOM     17  C   UNL     1       4.584   5.120  17.854  0.00  0.00    +0.000 C 
ATOM     18  C   UNL     1       4.050   6.538  18.034  0.00  0.00    +0.000 C 
ATOM     19  C   UNL     1       2.583   6.474  17.668  0.00  0.00    +0.000 C 
ATOM     20  C   UNL     1       2.197   5.003  17.856  0.00  0.00    +0.000 C 
ATOM     21  N   UNL     1       3.423   4.190  18.012  0.00  0.00    +0.000 NA
BRANCH  17  22
ATOM     22  C   UNL     1       5.757   4.930  18.823  0.00  0.00    +0.000 C 
ATOM     23  O   UNL     1       5.899   5.552  19.878  0.00  0.00    +0.000 OA
BRANCH  22  24
ATOM     24  O   UNL     1       6.682   4.057  18.332  0.00  0.00    +0.000 OA
BRANCH  24  26
ATOM     25  C   UNL     1       7.166   4.500  15.976  0.00  0.00    +0.000 C 
ATOM     26  C   UNL     1       7.633   4.624  17.416  0.00  0.00    +0.000 C 
ENDBRANCH  24  26
ENDBRANCH  22  24
ENDBRANCH  17  22
BRANCH  21  27
ATOM     27  C   UNL     1       3.394   3.414  19.260  0.00  0.00    +0.000 C 
BRANCH  27  28
ATOM     28  C   UNL     1       2.012   3.291  19.955  0.00  0.00    +0.000 C 
ATOM     29  C   UNL     1       1.172   2.122  19.442  0.00  0.00    +0.000 C 
ATOM     30  C   UNL     1       2.228   3.185  21.470  0.00  0.00    +0.000 C 
ENDBRANCH  27  28
ENDBRANCH  21  27
ENDBRANCH   1  19
TORSDOF 8
ENDMDL
