MODEL 1
REMARK VINA RESULT:      -9.1      0.000      0.000
REMARK  Name = 
REMARK  6 active torsions:
REMARK  status: ('A' for Active; 'I' for Inactive)
REMARK    1  A    between atoms: C_2  and  C_4
REMARK    2  A    between atoms: N_7  and  C_8
REMARK    3  A    between atoms: C_19  and  N_20
REMARK    4  A    between atoms: C_21  and  C_23
REMARK    5  A    between atoms: C_26  and  C_27
REMARK    6  A    between atoms: C_27  and  N_28
REMARK                            x       y       z     vdW  Elec       q    Type
REMARK                         _______ _______ _______ _____ _____    ______ ____
ROOT
ATOM      1  C   UNL     1      -0.214  10.337  21.208  0.00  0.00    +0.000 A 
ATOM      2  N   UNL     1      -1.091  11.418  21.239  0.00  0.00    +0.000 NA
ATOM      3  C   UNL     1      -1.402  11.803  20.024  0.00  0.00    +0.000 A 
ATOM      4  N   UNL     1      -2.224  12.835  19.728  0.00  0.00    +0.000 N 
ATOM      5  S   UNL     1      -0.681  10.883  18.786  0.00  0.00    +0.000 S 
ATOM      6  C   UNL     1       0.121   9.900  19.936  0.00  0.00    +0.000 A 
ATOM      7  H   UNL     1      -2.255  13.175  18.771  0.00  0.00    +0.000 HD
ENDROOT
BRANCH   4   8
ATOM      8  C   UNL     1      -3.295  13.246  20.539  0.00  0.00    +0.000 A 
ATOM      9  C   UNL     1      -3.121  14.321  21.412  0.00  0.00    +0.000 A 
ATOM     10  C   UNL     1      -4.137  14.678  22.304  0.00  0.00    +0.000 A 
ATOM     11  C   UNL     1      -5.348  13.969  22.338  0.00  0.00    +0.000 A 
ATOM     12  C   UNL     1      -6.376  14.292  23.236  0.00  0.00    +0.000 A 
ATOM     13  C   UNL     1      -7.568  13.564  23.248  0.00  0.00    +0.000 A 
ATOM     14  C   UNL     1      -7.749  12.502  22.367  0.00  0.00    +0.000 A 
ATOM     15  C   UNL     1      -6.741  12.168  21.469  0.00  0.00    +0.000 A 
ATOM     16  C   UNL     1      -5.539  12.890  21.449  0.00  0.00    +0.000 A 
ATOM     17  C   UNL     1      -4.511  12.547  20.568  0.00  0.00    +0.000 A 
ENDBRANCH   4   8
BRANCH   1  19
ATOM     18  N   UNL     1      -0.704   9.650  23.409  0.00  0.00    +0.000 N 
ATOM     19  C   UNL     1       0.281   9.803  22.471  0.00  0.00    +0.000 C 
ATOM     20  O   UNL     1       1.457   9.524  22.679  0.00  0.00    +0.000 OA
ATOM     21  H   UNL     1      -0.495   9.329  24.340  0.00  0.00    +0.000 HD
ATOM     22  H   UNL     1      -1.652   9.928  23.170  0.00  0.00    +0.000 HD
ENDBRANCH   1  19
BRANCH   6  23
ATOM     23  N   UNL     1       0.930   8.833  19.543  0.00  0.00    +0.000 N 
ATOM     24  C   UNL     1       1.740   8.864  18.417  0.00  0.00    +0.000 C 
ATOM     25  O   UNL     1       1.926   9.838  17.689  0.00  0.00    +0.000 OA
ATOM     26  H   UNL     1       0.941   8.032  20.167  0.00  0.00    +0.000 HD
BRANCH  24  27
ATOM     27  C   UNL     1       2.470   7.628  18.028  0.00  0.00    +0.000 A 
ATOM     28  C   UNL     1       3.692   7.822  17.361  0.00  0.00    +0.000 A 
ATOM     29  C   UNL     1       4.514   6.748  17.034  0.00  0.00    +0.000 A 
ATOM     30  C   UNL     1       4.132   5.444  17.362  0.00  0.00    +0.000 A 
ATOM     31  C   UNL     1       2.907   5.245  18.026  0.00  0.00    +0.000 A 
ATOM     32  C   UNL     1       2.073   6.329  18.354  0.00  0.00    +0.000 A 
BRANCH  30  33
ATOM     33  C   UNL     1       5.035   4.293  16.998  0.00  0.00    +0.000 C 
BRANCH  33  34
ATOM     34  N   UNL     1       5.883   4.583  15.855  0.00  0.00    +0.000 N 
ATOM     35  C   UNL     1       5.638   4.249  14.550  0.00  0.00    +0.000 A 
ATOM     36  C   UNL     1       6.795   4.571  13.878  0.00  0.00    +0.000 A 
ATOM     37  N   UNL     1       7.725   5.097  14.736  0.00  0.00    +0.000 NA
ATOM     38  C   UNL     1       7.148   5.096  15.916  0.00  0.00    +0.000 A 
ENDBRANCH  33  34
ENDBRANCH  30  33
ENDBRANCH  24  27
ENDBRANCH   6  23
TORSDOF 6
ENDMDL
MODEL 2
REMARK VINA RESULT:      -8.7      2.271     11.932
REMARK  Name = 
REMARK  6 active torsions:
REMARK  status: ('A' for Active; 'I' for Inactive)
REMARK    1  A    between atoms: C_2  and  C_4
REMARK    2  A    between atoms: N_7  and  C_8
REMARK    3  A    between atoms: C_19  and  N_20
REMARK    4  A    between atoms: C_21  and  C_23
REMARK    5  A    between atoms: C_26  and  C_27
REMARK    6  A    between atoms: C_27  and  N_28
REMARK                            x       y       z     vdW  Elec       q    Type
REMARK                         _______ _______ _______ _____ _____    ______ ____
ROOT
ATOM      1  C   UNL     1       1.283   9.255  19.220  0.00  0.00    +0.000 A 
ATOM      2  N   UNL     1       2.205   8.233  19.008  0.00  0.00    +0.000 NA
ATOM      3  C   UNL     1       2.165   7.356  19.983  0.00  0.00    +0.000 A 
ATOM      4  N   UNL     1       2.948   6.258  20.067  0.00  0.00    +0.000 N 
ATOM      5  S   UNL     1       1.011   7.697  21.189  0.00  0.00    +0.000 S 
ATOM      6  C   UNL     1       0.528   9.123  20.374  0.00  0.00    +0.000 A 
ATOM      7  H   UNL     1       2.977   5.745  20.944  0.00  0.00    +0.000 HD
ENDROOT
BRANCH   4   8
ATOM      8  C   UNL     1       3.448   5.561  18.955  0.00  0.00    +0.000 A 
ATOM      9  C   UNL     1       3.242   4.184  18.858  0.00  0.00    +0.000 A 
ATOM     10  C   UNL     1       3.822   3.455  17.816  0.00  0.00    +0.000 A 
ATOM     11  C   UNL     1       4.617   4.088  16.847  0.00  0.00    +0.000 A 
ATOM     12  C   UNL     1       5.227   3.378  15.803  0.00  0.00    +0.000 A 
ATOM     13  C   UNL     1       6.017   4.038  14.858  0.00  0.00    +0.000 A 
ATOM     14  C   UNL     1       6.210   5.413  14.944  0.00  0.00    +0.000 A 
ATOM     15  C   UNL     1       5.611   6.134  15.972  0.00  0.00    +0.000 A 
ATOM     16  C   UNL     1       4.819   5.482  16.928  0.00  0.00    +0.000 A 
ATOM     17  C   UNL     1       4.233   6.193  17.978  0.00  0.00    +0.000 A 
ENDBRANCH   4   8
BRANCH   1  19
ATOM     18  N   UNL     1      -0.049  10.603  17.818  0.00  0.00    +0.000 N 
ATOM     19  C   UNL     1       1.221  10.348  18.259  0.00  0.00    +0.000 C 
ATOM     20  O   UNL     1       2.203  10.976  17.876  0.00  0.00    +0.000 OA
ATOM     21  H   UNL     1      -0.231  11.306  17.121  0.00  0.00    +0.000 HD
ATOM     22  H   UNL     1      -0.809  10.022  18.161  0.00  0.00    +0.000 HD
ENDBRANCH   1  19
BRANCH   6  23
ATOM     23  N   UNL     1      -0.497   9.930  20.868  0.00  0.00    +0.000 N 
ATOM     24  C   UNL     1      -0.276  11.138  21.511  0.00  0.00    +0.000 C 
ATOM     25  O   UNL     1       0.813  11.695  21.644  0.00  0.00    +0.000 OA
ATOM     26  H   UNL     1      -1.443   9.609  20.680  0.00  0.00    +0.000 HD
BRANCH  24  27
ATOM     27  C   UNL     1      -1.436  11.858  22.101  0.00  0.00    +0.000 A 
ATOM     28  C   UNL     1      -2.110  12.743  21.242  0.00  0.00    +0.000 A 
ATOM     29  C   UNL     1      -3.268  13.400  21.646  0.00  0.00    +0.000 A 
ATOM     30  C   UNL     1      -3.784  13.190  22.929  0.00  0.00    +0.000 A 
ATOM     31  C   UNL     1      -3.110  12.308  23.794  0.00  0.00    +0.000 A 
ATOM     32  C   UNL     1      -1.936  11.647  23.388  0.00  0.00    +0.000 A 
BRANCH  30  33
ATOM     33  C   UNL     1      -5.039  13.912  23.349  0.00  0.00    +0.000 C 
BRANCH  33  34
ATOM     34  N   UNL     1      -6.249  13.202  22.975  0.00  0.00    +0.000 N 
ATOM     35  C   UNL     1      -6.983  12.363  23.770  0.00  0.00    +0.000 A 
ATOM     36  C   UNL     1      -7.915  11.801  22.928  0.00  0.00    +0.000 A 
ATOM     37  N   UNL     1      -7.772  12.282  21.653  0.00  0.00    +0.000 NA
ATOM     38  C   UNL     1      -6.765  13.125  21.712  0.00  0.00    +0.000 A 
ENDBRANCH  33  34
ENDBRANCH  30  33
ENDBRANCH  24  27
ENDBRANCH   6  23
TORSDOF 6
ENDMDL
MODEL 3
REMARK VINA RESULT:      -8.7      2.565     12.278
REMARK  Name = 
REMARK  6 active torsions:
REMARK  status: ('A' for Active; 'I' for Inactive)
REMARK    1  A    between atoms: C_2  and  C_4
REMARK    2  A    between atoms: N_7  and  C_8
REMARK    3  A    between atoms: C_19  and  N_20
REMARK    4  A    between atoms: C_21  and  C_23
REMARK    5  A    between atoms: C_26  and  C_27
REMARK    6  A    between atoms: C_27  and  N_28
REMARK                            x       y       z     vdW  Elec       q    Type
REMARK                         _______ _______ _______ _____ _____    ______ ____
ROOT
ATOM      1  C   UNL     1       0.961   9.689  19.368  0.00  0.00    +0.000 A 
ATOM      2  N   UNL     1       1.893   8.676  19.155  0.00  0.00    +0.000 NA
ATOM      3  C   UNL     1       1.833   7.778  20.109  0.00  0.00    +0.000 A 
ATOM      4  N   UNL     1       2.619   6.681  20.187  0.00  0.00    +0.000 N 
ATOM      5  S   UNL     1       0.648   8.085  21.293  0.00  0.00    +0.000 S 
ATOM      6  C   UNL     1       0.178   9.528  20.499  0.00  0.00    +0.000 A 
ATOM      7  H   UNL     1       2.629   6.148  21.053  0.00  0.00    +0.000 HD
ENDROOT
BRANCH   4   8
ATOM      8  C   UNL     1       3.150   6.012  19.072  0.00  0.00    +0.000 A 
ATOM      9  C   UNL     1       2.457   4.931  18.527  0.00  0.00    +0.000 A 
ATOM     10  C   UNL     1       3.018   4.184  17.486  0.00  0.00    +0.000 A 
ATOM     11  C   UNL     1       4.283   4.507  16.968  0.00  0.00    +0.000 A 
ATOM     12  C   UNL     1       4.878   3.764  15.938  0.00  0.00    +0.000 A 
ATOM     13  C   UNL     1       6.140   4.109  15.448  0.00  0.00    +0.000 A 
ATOM     14  C   UNL     1       6.825   5.197  15.979  0.00  0.00    +0.000 A 
ATOM     15  C   UNL     1       6.249   5.946  17.000  0.00  0.00    +0.000 A 
ATOM     16  C   UNL     1       4.984   5.608  17.502  0.00  0.00    +0.000 A 
ATOM     17  C   UNL     1       4.407   6.339  18.544  0.00  0.00    +0.000 A 
ENDBRANCH   4   8
BRANCH   1  19
ATOM     18  N   UNL     1       2.062  10.926  17.690  0.00  0.00    +0.000 N 
ATOM     19  C   UNL     1       0.918  10.805  18.430  0.00  0.00    +0.000 C 
ATOM     20  O   UNL     1      -0.040  11.562  18.316  0.00  0.00    +0.000 OA
ATOM     21  H   UNL     1       2.183  11.679  17.033  0.00  0.00    +0.000 HD
ATOM     22  H   UNL     1       2.824  10.275  17.861  0.00  0.00    +0.000 HD
ENDBRANCH   1  19
BRANCH   6  23
ATOM     23  N   UNL     1      -0.863  10.319  20.986  0.00  0.00    +0.000 N 
ATOM     24  C   UNL     1      -0.663  11.484  21.711  0.00  0.00    +0.000 C 
ATOM     25  O   UNL     1       0.424  12.017  21.934  0.00  0.00    +0.000 OA
ATOM     26  H   UNL     1      -1.801  10.023  20.730  0.00  0.00    +0.000 HD
BRANCH  24  27
ATOM     27  C   UNL     1      -1.845  12.184  22.280  0.00  0.00    +0.000 A 
ATOM     28  C   UNL     1      -2.415  13.183  21.472  0.00  0.00    +0.000 A 
ATOM     29  C   UNL     1      -3.581  13.840  21.851  0.00  0.00    +0.000 A 
ATOM     30  C   UNL     1      -4.210  13.517  23.057  0.00  0.00    +0.000 A 
ATOM     31  C   UNL     1      -3.641  12.520  23.872  0.00  0.00    +0.000 A 
ATOM     32  C   UNL     1      -2.459  11.858  23.492  0.00  0.00    +0.000 A 
BRANCH  30  33
ATOM     33  C   UNL     1      -5.472  14.241  23.452  0.00  0.00    +0.000 C 
BRANCH  33  34
ATOM     34  N   UNL     1      -5.220  15.581  23.950  0.00  0.00    +0.000 N 
ATOM     35  C   UNL     1      -4.178  15.975  24.745  0.00  0.00    +0.000 A 
ATOM     36  C   UNL     1      -4.467  17.274  25.094  0.00  0.00    +0.000 A 
ATOM     37  N   UNL     1      -5.647  17.678  24.527  0.00  0.00    +0.000 NA
ATOM     38  C   UNL     1      -6.075  16.642  23.841  0.00  0.00    +0.000 A 
ENDBRANCH  33  34
ENDBRANCH  30  33
ENDBRANCH  24  27
ENDBRANCH   6  23
TORSDOF 6
ENDMDL
MODEL 4
REMARK VINA RESULT:      -8.6      3.396     11.983
REMARK  Name = 
REMARK  6 active torsions:
REMARK  status: ('A' for Active; 'I' for Inactive)
REMARK    1  A    between atoms: C_2  and  C_4
REMARK    2  A    between atoms: N_7  and  C_8
REMARK    3  A    between atoms: C_19  and  N_20
REMARK    4  A    between atoms: C_21  and  C_23
REMARK    5  A    between atoms: C_26  and  C_27
REMARK    6  A    between atoms: C_27  and  N_28
REMARK                            x       y       z     vdW  Elec       q    Type
REMARK                         _______ _______ _______ _____ _____    ______ ____
ROOT
ATOM      1  C   UNL     1      -0.306  10.344  20.046  0.00  0.00    +0.000 A 
ATOM      2  N   UNL     1       0.615   9.310  19.893  0.00  0.00    +0.000 NA
ATOM      3  C   UNL     1       1.007   8.857  21.060  0.00  0.00    +0.000 A 
ATOM      4  N   UNL     1       1.905   7.863  21.241  0.00  0.00    +0.000 N 
ATOM      5  S   UNL     1       0.283   9.628  22.396  0.00  0.00    +0.000 S 
ATOM      6  C   UNL     1      -0.616  10.654  21.360  0.00  0.00    +0.000 A 
ATOM      7  H   UNL     1       2.285   7.712  22.172  0.00  0.00    +0.000 HD
ENDROOT
BRANCH   4   8
ATOM      8  C   UNL     1       2.093   6.800  20.343  0.00  0.00    +0.000 A 
ATOM      9  C   UNL     1       2.573   7.063  19.059  0.00  0.00    +0.000 A 
ATOM     10  C   UNL     1       2.666   6.035  18.115  0.00  0.00    +0.000 A 
ATOM     11  C   UNL     1       2.284   4.723  18.438  0.00  0.00    +0.000 A 
ATOM     12  C   UNL     1       2.347   3.678  17.506  0.00  0.00    +0.000 A 
ATOM     13  C   UNL     1       1.956   2.384  17.857  0.00  0.00    +0.000 A 
ATOM     14  C   UNL     1       1.493   2.116  19.142  0.00  0.00    +0.000 A 
ATOM     15  C   UNL     1       1.424   3.141  20.080  0.00  0.00    +0.000 A 
ATOM     16  C   UNL     1       1.812   4.445  19.738  0.00  0.00    +0.000 A 
ATOM     17  C   UNL     1       1.724   5.485  20.666  0.00  0.00    +0.000 A 
ENDBRANCH   4   8
BRANCH   1  19
ATOM     18  N   UNL     1      -0.637  10.265  17.713  0.00  0.00    +0.000 N 
ATOM     19  C   UNL     1      -0.816  11.004  18.851  0.00  0.00    +0.000 C 
ATOM     20  O   UNL     1      -1.348  12.109  18.857  0.00  0.00    +0.000 OA
ATOM     21  H   UNL     1      -0.906  10.619  16.810  0.00  0.00    +0.000 HD
ATOM     22  H   UNL     1      -0.163   9.368  17.784  0.00  0.00    +0.000 HD
ENDBRANCH   1  19
BRANCH   6  23
ATOM     23  N   UNL     1      -1.513  11.594  21.868  0.00  0.00    +0.000 N 
ATOM     24  C   UNL     1      -1.125  12.823  22.377  0.00  0.00    +0.000 C 
ATOM     25  O   UNL     1       0.017  13.283  22.362  0.00  0.00    +0.000 OA
ATOM     26  H   UNL     1      -2.497  11.350  21.795  0.00  0.00    +0.000 HD
BRANCH  24  27
ATOM     27  C   UNL     1      -2.155  13.697  23.000  0.00  0.00    +0.000 A 
ATOM     28  C   UNL     1      -2.169  15.034  22.567  0.00  0.00    +0.000 A 
ATOM     29  C   UNL     1      -3.146  15.924  23.002  0.00  0.00    +0.000 A 
ATOM     30  C   UNL     1      -4.139  15.498  23.890  0.00  0.00    +0.000 A 
ATOM     31  C   UNL     1      -4.127  14.161  24.329  0.00  0.00    +0.000 A 
ATOM     32  C   UNL     1      -3.136  13.262  23.894  0.00  0.00    +0.000 A 
BRANCH  30  33
ATOM     33  C   UNL     1      -5.190  16.477  24.350  0.00  0.00    +0.000 C 
BRANCH  33  34
ATOM     34  N   UNL     1      -6.260  16.651  23.384  0.00  0.00    +0.000 N 
ATOM     35  C   UNL     1      -7.098  15.679  22.910  0.00  0.00    +0.000 A 
ATOM     36  C   UNL     1      -7.809  16.284  21.899  0.00  0.00    +0.000 A 
ATOM     37  N   UNL     1      -7.430  17.593  21.755  0.00  0.00    +0.000 NA
ATOM     38  C   UNL     1      -6.501  17.787  22.664  0.00  0.00    +0.000 A 
ENDBRANCH  33  34
ENDBRANCH  30  33
ENDBRANCH  24  27
ENDBRANCH   6  23
TORSDOF 6
ENDMDL
MODEL 5
REMARK VINA RESULT:      -8.6      2.597     12.115
REMARK  Name = 
REMARK  6 active torsions:
REMARK  status: ('A' for Active; 'I' for Inactive)
REMARK    1  A    between atoms: C_2  and  C_4
REMARK    2  A    between atoms: N_7  and  C_8
REMARK    3  A    between atoms: C_19  and  N_20
REMARK    4  A    between atoms: C_21  and  C_23
REMARK    5  A    between atoms: C_26  and  C_27
REMARK    6  A    between atoms: C_27  and  N_28
REMARK                            x       y       z     vdW  Elec       q    Type
REMARK                         _______ _______ _______ _____ _____    ______ ____
ROOT
ATOM      1  C   UNL     1       0.813  10.050  19.623  0.00  0.00    +0.000 A 
ATOM      2  N   UNL     1       1.625   8.925  19.501  0.00  0.00    +0.000 NA
ATOM      3  C   UNL     1       1.364   8.056  20.448  0.00  0.00    +0.000 A 
ATOM      4  N   UNL     1       1.995   6.870  20.603  0.00  0.00    +0.000 N 
ATOM      5  S   UNL     1       0.124   8.527  21.517  0.00  0.00    +0.000 S 
ATOM      6  C   UNL     1      -0.084  10.005  20.678  0.00  0.00    +0.000 A 
ATOM      7  H   UNL     1       1.858   6.353  21.467  0.00  0.00    +0.000 HD
ENDROOT
BRANCH   4   8
ATOM      8  C   UNL     1       2.536   6.123  19.544  0.00  0.00    +0.000 A 
ATOM      9  C   UNL     1       2.323   4.745  19.497  0.00  0.00    +0.000 A 
ATOM     10  C   UNL     1       2.941   3.967  18.513  0.00  0.00    +0.000 A 
ATOM     11  C   UNL     1       3.783   4.554  17.554  0.00  0.00    +0.000 A 
ATOM     12  C   UNL     1       4.432   3.796  16.569  0.00  0.00    +0.000 A 
ATOM     13  C   UNL     1       5.267   4.409  15.632  0.00  0.00    +0.000 A 
ATOM     14  C   UNL     1       5.468   5.786  15.667  0.00  0.00    +0.000 A 
ATOM     15  C   UNL     1       4.831   6.553  16.637  0.00  0.00    +0.000 A 
ATOM     16  C   UNL     1       3.993   5.948  17.584  0.00  0.00    +0.000 A 
ATOM     17  C   UNL     1       3.368   6.707  18.577  0.00  0.00    +0.000 A 
ENDBRANCH   4   8
BRANCH   1  19
ATOM     18  N   UNL     1       2.057  10.957  17.838  0.00  0.00    +0.000 N 
ATOM     19  C   UNL     1       0.997  11.148  18.682  0.00  0.00    +0.000 C 
ATOM     20  O   UNL     1       0.282  12.144  18.648  0.00  0.00    +0.000 OA
ATOM     21  H   UNL     1       2.323  11.656  17.164  0.00  0.00    +0.000 HD
ATOM     22  H   UNL     1       2.620  10.117  17.945  0.00  0.00    +0.000 HD
ENDBRANCH   1  19
BRANCH   6  23
ATOM     23  N   UNL     1      -1.057  10.929  21.063  0.00  0.00    +0.000 N 
ATOM     24  C   UNL     1      -1.200  11.391  22.362  0.00  0.00    +0.000 C 
ATOM     25  O   UNL     1      -0.451  11.136  23.305  0.00  0.00    +0.000 OA
ATOM     26  H   UNL     1      -1.638  11.298  20.315  0.00  0.00    +0.000 HD
BRANCH  24  27
ATOM     27  C   UNL     1      -2.346  12.284  22.682  0.00  0.00    +0.000 A 
ATOM     28  C   UNL     1      -2.643  13.268  21.724  0.00  0.00    +0.000 A 
ATOM     29  C   UNL     1      -3.750  14.099  21.862  0.00  0.00    +0.000 A 
ATOM     30  C   UNL     1      -4.593  13.969  22.970  0.00  0.00    +0.000 A 
ATOM     31  C   UNL     1      -4.297  12.986  23.934  0.00  0.00    +0.000 A 
ATOM     32  C   UNL     1      -3.175  12.149  23.798  0.00  0.00    +0.000 A 
BRANCH  30  33
ATOM     33  C   UNL     1      -5.788  14.879  23.103  0.00  0.00    +0.000 C 
BRANCH  33  34
ATOM     34  N   UNL     1      -5.426  16.229  23.495  0.00  0.00    +0.000 N 
ATOM     35  C   UNL     1      -5.496  17.353  22.716  0.00  0.00    +0.000 A 
ATOM     36  C   UNL     1      -4.884  18.338  23.458  0.00  0.00    +0.000 A 
ATOM     37  N   UNL     1      -4.456  17.845  24.663  0.00  0.00    +0.000 NA
ATOM     38  C   UNL     1      -4.799  16.576  24.659  0.00  0.00    +0.000 A 
ENDBRANCH  33  34
ENDBRANCH  30  33
ENDBRANCH  24  27
ENDBRANCH   6  23
TORSDOF 6
ENDMDL
MODEL 6
REMARK VINA RESULT:      -8.6      1.399      2.234
REMARK  Name = 
REMARK  6 active torsions:
REMARK  status: ('A' for Active; 'I' for Inactive)
REMARK    1  A    between atoms: C_2  and  C_4
REMARK    2  A    between atoms: N_7  and  C_8
REMARK    3  A    between atoms: C_19  and  N_20
REMARK    4  A    between atoms: C_21  and  C_23
REMARK    5  A    between atoms: C_26  and  C_27
REMARK    6  A    between atoms: C_27  and  N_28
REMARK                            x       y       z     vdW  Elec       q    Type
REMARK                         _______ _______ _______ _____ _____    ______ ____
ROOT
ATOM      1  C   UNL     1      -0.194  10.446  21.174  0.00  0.00    +0.000 A 
ATOM      2  N   UNL     1      -1.125  11.483  21.175  0.00  0.00    +0.000 NA
ATOM      3  C   UNL     1      -1.370  11.893  19.953  0.00  0.00    +0.000 A 
ATOM      4  N   UNL     1      -2.220  12.892  19.630  0.00  0.00    +0.000 N 
ATOM      5  S   UNL     1      -0.518  11.049  18.742  0.00  0.00    +0.000 S 
ATOM      6  C   UNL     1       0.250  10.068  19.917  0.00  0.00    +0.000 A 
ATOM      7  H   UNL     1      -2.201  13.262  18.683  0.00  0.00    +0.000 HD
ENDROOT
BRANCH   4   8
ATOM      8  C   UNL     1      -3.364  13.224  20.375  0.00  0.00    +0.000 A 
ATOM      9  C   UNL     1      -3.298  14.257  21.310  0.00  0.00    +0.000 A 
ATOM     10  C   UNL     1      -4.391  14.533  22.137  0.00  0.00    +0.000 A 
ATOM     11  C   UNL     1      -5.574  13.782  22.042  0.00  0.00    +0.000 A 
ATOM     12  C   UNL     1      -6.679  14.023  22.872  0.00  0.00    +0.000 A 
ATOM     13  C   UNL     1      -7.840  13.255  22.755  0.00  0.00    +0.000 A 
ATOM     14  C   UNL     1      -7.914  12.235  21.810  0.00  0.00    +0.000 A 
ATOM     15  C   UNL     1      -6.828  11.983  20.978  0.00  0.00    +0.000 A 
ATOM     16  C   UNL     1      -5.656  12.746  21.088  0.00  0.00    +0.000 A 
ATOM     17  C   UNL     1      -4.552  12.484  20.274  0.00  0.00    +0.000 A 
ENDBRANCH   4   8
BRANCH   1  19
ATOM     18  N   UNL     1      -0.806   9.599  23.287  0.00  0.00    +0.000 N 
ATOM     19  C   UNL     1       0.238   9.896  22.452  0.00  0.00    +0.000 C 
ATOM     20  O   UNL     1       1.413   9.720  22.756  0.00  0.00    +0.000 OA
ATOM     21  H   UNL     1      -0.649   9.250  24.218  0.00  0.00    +0.000 HD
ATOM     22  H   UNL     1      -1.752   9.798  22.973  0.00  0.00    +0.000 HD
ENDBRANCH   1  19
BRANCH   6  23
ATOM     23  N   UNL     1       1.138   9.056  19.550  0.00  0.00    +0.000 N 
ATOM     24  C   UNL     1       1.830   9.046  18.349  0.00  0.00    +0.000 C 
ATOM     25  O   UNL     1       1.833   9.946  17.510  0.00  0.00    +0.000 OA
ATOM     26  H   UNL     1       1.299   8.335  20.248  0.00  0.00    +0.000 HD
BRANCH  24  27
ATOM     27  C   UNL     1       2.660   7.858  18.012  0.00  0.00    +0.000 A 
ATOM     28  C   UNL     1       2.138   6.614  18.404  0.00  0.00    +0.000 A 
ATOM     29  C   UNL     1       2.772   5.424  18.059  0.00  0.00    +0.000 A 
ATOM     30  C   UNL     1       3.953   5.448  17.312  0.00  0.00    +0.000 A 
ATOM     31  C   UNL     1       4.482   6.692  16.921  0.00  0.00    +0.000 A 
ATOM     32  C   UNL     1       3.844   7.896  17.273  0.00  0.00    +0.000 A 
BRANCH  30  33
ATOM     33  C   UNL     1       4.627   4.148  16.949  0.00  0.00    +0.000 C 
BRANCH  33  34
ATOM     34  N   UNL     1       4.360   3.090  17.907  0.00  0.00    +0.000 N 
ATOM     35  C   UNL     1       3.548   2.004  17.719  0.00  0.00    +0.000 A 
ATOM     36  C   UNL     1       3.475   1.397  18.952  0.00  0.00    +0.000 A 
ATOM     37  N   UNL     1       4.226   2.079  19.874  0.00  0.00    +0.000 NA
ATOM     38  C   UNL     1       4.749   3.089  19.217  0.00  0.00    +0.000 A 
ENDBRANCH  33  34
ENDBRANCH  30  33
ENDBRANCH  24  27
ENDBRANCH   6  23
TORSDOF 6
ENDMDL
MODEL 7
REMARK VINA RESULT:      -8.5      2.645     12.071
REMARK  Name = 
REMARK  6 active torsions:
REMARK  status: ('A' for Active; 'I' for Inactive)
REMARK    1  A    between atoms: C_2  and  C_4
REMARK    2  A    between atoms: N_7  and  C_8
REMARK    3  A    between atoms: C_19  and  N_20
REMARK    4  A    between atoms: C_21  and  C_23
REMARK    5  A    between atoms: C_26  and  C_27
REMARK    6  A    between atoms: C_27  and  N_28
REMARK                            x       y       z     vdW  Elec       q    Type
REMARK                         _______ _______ _______ _____ _____    ______ ____
ROOT
ATOM      1  C   UNL     1       0.801  10.248  19.667  0.00  0.00    +0.000 A 
ATOM      2  N   UNL     1       1.574   9.093  19.582  0.00  0.00    +0.000 NA
ATOM      3  C   UNL     1       1.237   8.235  20.514  0.00  0.00    +0.000 A 
ATOM      4  N   UNL     1       1.814   7.026  20.696  0.00  0.00    +0.000 N 
ATOM      5  S   UNL     1      -0.032   8.754  21.526  0.00  0.00    +0.000 S 
ATOM      6  C   UNL     1      -0.145  10.239  20.680  0.00  0.00    +0.000 A 
ATOM      7  H   UNL     1       1.618   6.515  21.553  0.00  0.00    +0.000 HD
ENDROOT
BRANCH   4   8
ATOM      8  C   UNL     1       2.374   6.258  19.662  0.00  0.00    +0.000 A 
ATOM      9  C   UNL     1       2.165   4.878  19.642  0.00  0.00    +0.000 A 
ATOM     10  C   UNL     1       2.801   4.081  18.684  0.00  0.00    +0.000 A 
ATOM     11  C   UNL     1       3.656   4.650  17.726  0.00  0.00    +0.000 A 
ATOM     12  C   UNL     1       4.322   3.873  16.768  0.00  0.00    +0.000 A 
ATOM     13  C   UNL     1       5.170   4.469  15.831  0.00  0.00    +0.000 A 
ATOM     14  C   UNL     1       5.366   5.846  15.839  0.00  0.00    +0.000 A 
ATOM     15  C   UNL     1       4.712   6.633  16.782  0.00  0.00    +0.000 A 
ATOM     16  C   UNL     1       3.861   6.045  17.730  0.00  0.00    +0.000 A 
ATOM     17  C   UNL     1       3.219   6.824  18.696  0.00  0.00    +0.000 A 
ENDBRANCH   4   8
BRANCH   1  19
ATOM     18  N   UNL     1       1.989  11.008  17.778  0.00  0.00    +0.000 N 
ATOM     19  C   UNL     1       1.070  11.338  18.737  0.00  0.00    +0.000 C 
ATOM     20  O   UNL     1       0.535  12.439  18.804  0.00  0.00    +0.000 OA
ATOM     21  H   UNL     1       2.299  11.680  17.096  0.00  0.00    +0.000 HD
ATOM     22  H   UNL     1       2.409  10.083  17.804  0.00  0.00    +0.000 HD
ENDBRANCH   1  19
BRANCH   6  23
ATOM     23  N   UNL     1      -1.098  11.199  21.022  0.00  0.00    +0.000 N 
ATOM     24  C   UNL     1      -1.125  11.846  22.248  0.00  0.00    +0.000 C 
ATOM     25  O   UNL     1      -0.283  11.739  23.139  0.00  0.00    +0.000 OA
ATOM     26  H   UNL     1      -1.756  11.449  20.289  0.00  0.00    +0.000 HD
BRANCH  24  27
ATOM     27  C   UNL     1      -2.256  12.765  22.547  0.00  0.00    +0.000 A 
ATOM     28  C   UNL     1      -3.200  12.294  23.476  0.00  0.00    +0.000 A 
ATOM     29  C   UNL     1      -4.247  13.099  23.911  0.00  0.00    +0.000 A 
ATOM     30  C   UNL     1      -4.382  14.403  23.424  0.00  0.00    +0.000 A 
ATOM     31  C   UNL     1      -3.441  14.877  22.490  0.00  0.00    +0.000 A 
ATOM     32  C   UNL     1      -2.384  14.062  22.045  0.00  0.00    +0.000 A 
BRANCH  30  33
ATOM     33  C   UNL     1      -5.525  15.260  23.906  0.00  0.00    +0.000 C 
BRANCH  33  34
ATOM     34  N   UNL     1      -6.509  15.522  22.871  0.00  0.00    +0.000 N 
ATOM     35  C   UNL     1      -7.281  14.595  22.225  0.00  0.00    +0.000 A 
ATOM     36  C   UNL     1      -7.912  15.295  21.221  0.00  0.00    +0.000 A 
ATOM     37  N   UNL     1      -7.550  16.616  21.250  0.00  0.00    +0.000 NA
ATOM     38  C   UNL     1      -6.710  16.724  22.254  0.00  0.00    +0.000 A 
ENDBRANCH  33  34
ENDBRANCH  30  33
ENDBRANCH  24  27
ENDBRANCH   6  23
TORSDOF 6
ENDMDL
MODEL 8
REMARK VINA RESULT:      -8.4      1.465      2.046
REMARK  Name = 
REMARK  6 active torsions:
REMARK  status: ('A' for Active; 'I' for Inactive)
REMARK    1  A    between atoms: C_2  and  C_4
REMARK    2  A    between atoms: N_7  and  C_8
REMARK    3  A    between atoms: C_19  and  N_20
REMARK    4  A    between atoms: C_21  and  C_23
REMARK    5  A    between atoms: C_26  and  C_27
REMARK    6  A    between atoms: C_27  and  N_28
REMARK                            x       y       z     vdW  Elec       q    Type
REMARK                         _______ _______ _______ _____ _____    ______ ____
ROOT
ATOM      1  C   UNL     1      -0.627  10.719  21.241  0.00  0.00    +0.000 A 
ATOM      2  N   UNL     1      -1.505  11.800  21.282  0.00  0.00    +0.000 NA
ATOM      3  C   UNL     1      -1.912  12.117  20.076  0.00  0.00    +0.000 A 
ATOM      4  N   UNL     1      -2.760  13.130  19.789  0.00  0.00    +0.000 N 
ATOM      5  S   UNL     1      -1.284  11.130  18.837  0.00  0.00    +0.000 S 
ATOM      6  C   UNL     1      -0.390  10.213  19.973  0.00  0.00    +0.000 A 
ATOM      7  H   UNL     1      -2.867  13.417  18.820  0.00  0.00    +0.000 HD
ENDROOT
BRANCH   4   8
ATOM      8  C   UNL     1      -3.765  13.584  20.658  0.00  0.00    +0.000 A 
ATOM      9  C   UNL     1      -3.590  14.789  21.340  0.00  0.00    +0.000 A 
ATOM     10  C   UNL     1      -4.529  15.206  22.290  0.00  0.00    +0.000 A 
ATOM     11  C   UNL     1      -5.663  14.428  22.572  0.00  0.00    +0.000 A 
ATOM     12  C   UNL     1      -6.609  14.811  23.533  0.00  0.00    +0.000 A 
ATOM     13  C   UNL     1      -7.725  14.012  23.794  0.00  0.00    +0.000 A 
ATOM     14  C   UNL     1      -7.910  12.819  23.102  0.00  0.00    +0.000 A 
ATOM     15  C   UNL     1      -6.982  12.423  22.145  0.00  0.00    +0.000 A 
ATOM     16  C   UNL     1      -5.856  13.216  21.876  0.00  0.00    +0.000 A 
ATOM     17  C   UNL     1      -4.906  12.816  20.934  0.00  0.00    +0.000 A 
ENDBRANCH   4   8
BRANCH   1  19
ATOM     18  N   UNL     1      -0.946  10.118  23.498  0.00  0.00    +0.000 N 
ATOM     19  C   UNL     1      -0.032  10.256  22.489  0.00  0.00    +0.000 C 
ATOM     20  O   UNL     1       1.163  10.019  22.627  0.00  0.00    +0.000 OA
ATOM     21  H   UNL     1      -0.665   9.845  24.426  0.00  0.00    +0.000 HD
ATOM     22  H   UNL     1      -1.916  10.360  23.314  0.00  0.00    +0.000 HD
ENDBRANCH   1  19
BRANCH   6  23
ATOM     23  N   UNL     1       0.392   9.127  19.576  0.00  0.00    +0.000 N 
ATOM     24  C   UNL     1       1.461   9.236  18.701  0.00  0.00    +0.000 C 
ATOM     25  O   UNL     1       1.917  10.285  18.245  0.00  0.00    +0.000 OA
ATOM     26  H   UNL     1       0.168   8.238  20.014  0.00  0.00    +0.000 HD
BRANCH  24  27
ATOM     27  C   UNL     1       2.151   7.995  18.256  0.00  0.00    +0.000 A 
ATOM     28  C   UNL     1       3.379   8.178  17.599  0.00  0.00    +0.000 A 
ATOM     29  C   UNL     1       4.165   7.094  17.223  0.00  0.00    +0.000 A 
ATOM     30  C   UNL     1       3.739   5.789  17.492  0.00  0.00    +0.000 A 
ATOM     31  C   UNL     1       2.507   5.602  18.147  0.00  0.00    +0.000 A 
ATOM     32  C   UNL     1       1.709   6.697  18.523  0.00  0.00    +0.000 A 
BRANCH  30  33
ATOM     33  C   UNL     1       4.604   4.627  17.076  0.00  0.00    +0.000 C 
BRANCH  33  34
ATOM     34  N   UNL     1       4.388   3.444  17.891  0.00  0.00    +0.000 N 
ATOM     35  C   UNL     1       3.619   2.359  17.568  0.00  0.00    +0.000 A 
ATOM     36  C   UNL     1       3.581   1.597  18.714  0.00  0.00    +0.000 A 
ATOM     37  N   UNL     1       4.311   2.186  19.713  0.00  0.00    +0.000 NA
ATOM     38  C   UNL     1       4.787   3.292  19.189  0.00  0.00    +0.000 A 
ENDBRANCH  33  34
ENDBRANCH  30  33
ENDBRANCH  24  27
ENDBRANCH   6  23
TORSDOF 6
ENDMDL
MODEL 9
REMARK VINA RESULT:      -8.4      1.893      2.802
REMARK  Name = 
REMARK  6 active torsions:
REMARK  status: ('A' for Active; 'I' for Inactive)
REMARK    1  A    between atoms: C_2  and  C_4
REMARK    2  A    between atoms: N_7  and  C_8
REMARK    3  A    between atoms: C_19  and  N_20
REMARK    4  A    between atoms: C_21  and  C_23
REMARK    5  A    between atoms: C_26  and  C_27
REMARK    6  A    between atoms: C_27  and  N_28
REMARK                            x       y       z     vdW  Elec       q    Type
REMARK                         _______ _______ _______ _____ _____    ______ ____
ROOT
ATOM      1  C   UNL     1      -0.250  10.049  19.791  0.00  0.00    +0.000 A 
ATOM      2  N   UNL     1      -1.025  10.689  20.755  0.00  0.00    +0.000 NA
ATOM      3  C   UNL     1      -0.549  10.471  21.958  0.00  0.00    +0.000 A 
ATOM      4  N   UNL     1      -1.089  10.950  23.101  0.00  0.00    +0.000 N 
ATOM      5  S   UNL     1       0.857   9.509  21.996  0.00  0.00    +0.000 S 
ATOM      6  C   UNL     1       0.837   9.351  20.292  0.00  0.00    +0.000 A 
ATOM      7  H   UNL     1      -0.765  10.575  23.988  0.00  0.00    +0.000 HD
ENDROOT
BRANCH   4   8
ATOM      8  C   UNL     1      -1.797  12.159  23.190  0.00  0.00    +0.000 A 
ATOM      9  C   UNL     1      -1.094  13.362  23.263  0.00  0.00    +0.000 A 
ATOM     10  C   UNL     1      -1.775  14.568  23.460  0.00  0.00    +0.000 A 
ATOM     11  C   UNL     1      -3.174  14.594  23.585  0.00  0.00    +0.000 A 
ATOM     12  C   UNL     1      -3.880  15.785  23.803  0.00  0.00    +0.000 A 
ATOM     13  C   UNL     1      -5.272  15.776  23.928  0.00  0.00    +0.000 A 
ATOM     14  C   UNL     1      -5.976  14.579  23.839  0.00  0.00    +0.000 A 
ATOM     15  C   UNL     1      -5.291  13.388  23.621  0.00  0.00    +0.000 A 
ATOM     16  C   UNL     1      -3.894  13.384  23.497  0.00  0.00    +0.000 A 
ATOM     17  C   UNL     1      -3.195  12.190  23.303  0.00  0.00    +0.000 A 
ENDBRANCH   4   8
BRANCH   1  19
ATOM     18  N   UNL     1      -1.761  10.931  18.211  0.00  0.00    +0.000 N 
ATOM     19  C   UNL     1      -0.659  10.140  18.395  0.00  0.00    +0.000 C 
ATOM     20  O   UNL     1      -0.082   9.567  17.477  0.00  0.00    +0.000 OA
ATOM     21  H   UNL     1      -2.175  11.049  17.300  0.00  0.00    +0.000 HD
ATOM     22  H   UNL     1      -2.200  11.352  19.025  0.00  0.00    +0.000 HD
ENDBRANCH   1  19
BRANCH   6  23
ATOM     23  N   UNL     1       1.829   8.638  19.616  0.00  0.00    +0.000 N 
ATOM     24  C   UNL     1       2.078   7.291  19.826  0.00  0.00    +0.000 C 
ATOM     25  O   UNL     1       1.416   6.537  20.539  0.00  0.00    +0.000 OA
ATOM     26  H   UNL     1       2.338   9.155  18.905  0.00  0.00    +0.000 HD
BRANCH  24  27
ATOM     27  C   UNL     1       3.237   6.662  19.137  0.00  0.00    +0.000 A 
ATOM     28  C   UNL     1       3.757   5.506  19.744  0.00  0.00    +0.000 A 
ATOM     29  C   UNL     1       4.776   4.773  19.145  0.00  0.00    +0.000 A 
ATOM     30  C   UNL     1       5.307   5.180  17.917  0.00  0.00    +0.000 A 
ATOM     31  C   UNL     1       4.791   6.339  17.307  0.00  0.00    +0.000 A 
ATOM     32  C   UNL     1       3.764   7.084  17.915  0.00  0.00    +0.000 A 
BRANCH  30  33
ATOM     33  C   UNL     1       6.411   4.372  17.283  0.00  0.00    +0.000 C 
BRANCH  33  34
ATOM     34  N   UNL     1       6.412   4.460  15.833  0.00  0.00    +0.000 N 
ATOM     35  C   UNL     1       5.650   3.721  14.969  0.00  0.00    +0.000 A 
ATOM     36  C   UNL     1       6.130   4.031  13.717  0.00  0.00    +0.000 A 
ATOM     37  N   UNL     1       7.152   4.941  13.800  0.00  0.00    +0.000 NA
ATOM     38  C   UNL     1       7.296   5.184  15.083  0.00  0.00    +0.000 A 
ENDBRANCH  33  34
ENDBRANCH  30  33
ENDBRANCH  24  27
ENDBRANCH   6  23
TORSDOF 6
ENDMDL
