MODEL 1
REMARK VINA RESULT:      -7.4      0.000      0.000
REMARK  Name = 
REMARK  6 active torsions:
REMARK  status: ('A' for Active; 'I' for Inactive)
REMARK    1  A    between atoms: C_1  and  C_2
REMARK    2  A    between atoms: C_2  and  C_3
REMARK    3  A    between atoms: C_2  and  N_10
REMARK    4  A    between atoms: C_3  and  C_4
REMARK    5  A    between atoms: C_11  and  C_13
REMARK    6  A    between atoms: C_18  and  C_19
REMARK                            x       y       z     vdW  Elec       q    Type
REMARK                         _______ _______ _______ _____ _____    ______ ____
ROOT
ATOM      1  N   UNL     1       2.904   5.327  18.292  0.00  0.00    +0.000 N 
ATOM      2  C   UNL     1       2.560   5.913  19.491  0.00  0.00    +0.000 C 
ATOM      3  O   UNL     1       2.634   5.333  20.568  0.00  0.00    +0.000 OA
ATOM      4  H   UNL     1       2.900   5.871  17.440  0.00  0.00    +0.000 HD
ENDROOT
BRANCH   2   5
ATOM      5  C   UNL     1       2.095   7.328  19.443  0.00  0.00    +0.000 A 
ATOM      6  C   UNL     1       2.088   8.068  18.246  0.00  0.00    +0.000 A 
ATOM      7  C   UNL     1       1.589   9.382  18.206  0.00  0.00    +0.000 A 
ATOM      8  C   UNL     1       1.085   9.934  19.391  0.00  0.00    +0.000 A 
ATOM      9  N   UNL     1       0.511  11.151  19.641  0.00  0.00    +0.000 NA
ATOM     10  C   UNL     1       0.223  11.106  20.930  0.00  0.00    +0.000 A 
ATOM     11  O   UNL     1       0.581   9.933  21.552  0.00  0.00    +0.000 OA
ATOM     12  C   UNL     1       1.118   9.179  20.551  0.00  0.00    +0.000 A 
ATOM     13  C   UNL     1       1.605   7.884  20.640  0.00  0.00    +0.000 A 
BRANCH  10  14
ATOM     14  C   UNL     1      -0.462  12.262  21.644  0.00  0.00    +0.000 C 
ATOM     15  C   UNL     1      -1.976  12.289  21.696  0.00  0.00    +0.000 C 
ATOM     16  C   UNL     1      -1.204  11.982  22.933  0.00  0.00    +0.000 C 
ENDBRANCH  10  14
ENDBRANCH   2   5
BRANCH   1  18
ATOM     17  C   UNL     1       2.161   3.064  17.739  0.00  0.00    +0.000 C 
ATOM     18  C   UNL     1       3.329   3.931  18.217  0.00  0.00    +0.000 C 
BRANCH  18  19
ATOM     19  C   UNL     1       4.542   3.760  17.280  0.00  0.00    +0.000 C 
BRANCH  19  20
ATOM     20  C   UNL     1       5.604   4.833  17.347  0.00  0.00    +0.000 A 
ATOM     21  C   UNL     1       6.356   4.990  18.517  0.00  0.00    +0.000 A 
ATOM     22  C   UNL     1       7.310   5.999  18.605  0.00  0.00    +0.000 A 
ATOM     23  C   UNL     1       7.480   6.835  17.516  0.00  0.00    +0.000 A 
ATOM     24  N   UNL     1       6.769   6.728  16.376  0.00  0.00    +0.000 NA
ATOM     25  C   UNL     1       5.847   5.739  16.317  0.00  0.00    +0.000 A 
ENDBRANCH  19  20
ENDBRANCH  18  19
ENDBRANCH   1  18
TORSDOF 5
ENDMDL
MODEL 2
REMARK VINA RESULT:      -7.4      3.200      8.289
REMARK  Name = 
REMARK  6 active torsions:
REMARK  status: ('A' for Active; 'I' for Inactive)
REMARK    1  A    between atoms: C_1  and  C_2
REMARK    2  A    between atoms: C_2  and  C_3
REMARK    3  A    between atoms: C_2  and  N_10
REMARK    4  A    between atoms: C_3  and  C_4
REMARK    5  A    between atoms: C_11  and  C_13
REMARK    6  A    between atoms: C_18  and  C_19
REMARK                            x       y       z     vdW  Elec       q    Type
REMARK                         _______ _______ _______ _____ _____    ______ ____
ROOT
ATOM      1  N   UNL     1       3.397   6.264  18.709  0.00  0.00    +0.000 N 
ATOM      2  C   UNL     1       4.657   5.712  18.795  0.00  0.00    +0.000 C 
ATOM      3  O   UNL     1       5.179   5.390  19.856  0.00  0.00    +0.000 OA
ATOM      4  H   UNL     1       2.980   6.440  17.806  0.00  0.00    +0.000 HD
ENDROOT
BRANCH   2   5
ATOM      5  C   UNL     1       5.387   5.491  17.515  0.00  0.00    +0.000 A 
ATOM      6  C   UNL     1       6.759   5.774  17.383  0.00  0.00    +0.000 A 
ATOM      7  C   UNL     1       7.447   5.503  16.187  0.00  0.00    +0.000 A 
ATOM      8  C   UNL     1       6.730   4.930  15.129  0.00  0.00    +0.000 A 
ATOM      9  N   UNL     1       7.135   4.529  13.884  0.00  0.00    +0.000 NA
ATOM     10  C   UNL     1       6.032   4.056  13.330  0.00  0.00    +0.000 A 
ATOM     11  O   UNL     1       4.917   4.129  14.131  0.00  0.00    +0.000 OA
ATOM     12  C   UNL     1       5.379   4.675  15.291  0.00  0.00    +0.000 A 
ATOM     13  C   UNL     1       4.659   4.931  16.449  0.00  0.00    +0.000 A 
BRANCH  10  14
ATOM     14  C   UNL     1       6.023   3.470  11.926  0.00  0.00    +0.000 C 
ATOM     15  C   UNL     1       5.803   1.980  11.761  0.00  0.00    +0.000 C 
ATOM     16  C   UNL     1       4.721   2.929  11.373  0.00  0.00    +0.000 C 
ENDBRANCH  10  14
ENDBRANCH   2   5
BRANCH   1  18
ATOM     17  C   UNL     1       1.896   7.907  19.721  0.00  0.00    +0.000 C 
ATOM     18  C   UNL     1       2.611   6.566  19.903  0.00  0.00    +0.000 C 
BRANCH  18  19
ATOM     19  C   UNL     1       1.589   5.450  20.203  0.00  0.00    +0.000 C 
BRANCH  19  20
ATOM     20  C   UNL     1       1.839   4.111  19.549  0.00  0.00    +0.000 A 
ATOM     21  C   UNL     1       2.530   3.116  20.249  0.00  0.00    +0.000 A 
ATOM     22  C   UNL     1       2.799   1.893  19.643  0.00  0.00    +0.000 A 
ATOM     23  C   UNL     1       2.377   1.702  18.340  0.00  0.00    +0.000 A 
ATOM     24  N   UNL     1       1.721   2.636  17.624  0.00  0.00    +0.000 NA
ATOM     25  C   UNL     1       1.473   3.818  18.237  0.00  0.00    +0.000 A 
ENDBRANCH  19  20
ENDBRANCH  18  19
ENDBRANCH   1  18
TORSDOF 5
ENDMDL
MODEL 3
REMARK VINA RESULT:      -7.2      1.728      2.168
REMARK  Name = 
REMARK  6 active torsions:
REMARK  status: ('A' for Active; 'I' for Inactive)
REMARK    1  A    between atoms: C_1  and  C_2
REMARK    2  A    between atoms: C_2  and  C_3
REMARK    3  A    between atoms: C_2  and  N_10
REMARK    4  A    between atoms: C_3  and  C_4
REMARK    5  A    between atoms: C_11  and  C_13
REMARK    6  A    between atoms: C_18  and  C_19
REMARK                            x       y       z     vdW  Elec       q    Type
REMARK                         _______ _______ _______ _____ _____    ______ ____
ROOT
ATOM      1  N   UNL     1       2.961   5.187  18.058  0.00  0.00    +0.000 N 
ATOM      2  C   UNL     1       2.874   5.583  19.375  0.00  0.00    +0.000 C 
ATOM      3  O   UNL     1       3.339   4.933  20.304  0.00  0.00    +0.000 OA
ATOM      4  H   UNL     1       2.631   5.796  17.321  0.00  0.00    +0.000 HD
ENDROOT
BRANCH   2   5
ATOM      5  C   UNL     1       2.190   6.878  19.648  0.00  0.00    +0.000 A 
ATOM      6  C   UNL     1       1.485   7.110  20.844  0.00  0.00    +0.000 A 
ATOM      7  C   UNL     1       0.897   8.358  21.112  0.00  0.00    +0.000 A 
ATOM      8  C   UNL     1       1.041   9.375  20.159  0.00  0.00    +0.000 A 
ATOM      9  N   UNL     1       0.618  10.677  20.165  0.00  0.00    +0.000 NA
ATOM     10  C   UNL     1       1.051  11.154  19.011  0.00  0.00    +0.000 A 
ATOM     11  O   UNL     1       1.727  10.242  18.236  0.00  0.00    +0.000 OA
ATOM     12  C   UNL     1       1.732   9.107  18.990  0.00  0.00    +0.000 A 
ATOM     13  C   UNL     1       2.323   7.891  18.680  0.00  0.00    +0.000 A 
BRANCH  10  14
ATOM     14  C   UNL     1       0.820  12.601  18.601  0.00  0.00    +0.000 C 
ATOM     15  C   UNL     1       1.413  13.703  19.456  0.00  0.00    +0.000 C 
ATOM     16  C   UNL     1       2.000  13.416  18.116  0.00  0.00    +0.000 C 
ENDBRANCH  10  14
ENDBRANCH   2   5
BRANCH   1  18
ATOM     17  C   UNL     1       2.507   2.999  17.067  0.00  0.00    +0.000 C 
ATOM     18  C   UNL     1       3.570   3.914  17.680  0.00  0.00    +0.000 C 
BRANCH  18  19
ATOM     19  C   UNL     1       4.737   4.117  16.692  0.00  0.00    +0.000 C 
BRANCH  19  20
ATOM     20  C   UNL     1       5.794   5.119  17.093  0.00  0.00    +0.000 A 
ATOM     21  C   UNL     1       6.627   4.847  18.184  0.00  0.00    +0.000 A 
ATOM     22  C   UNL     1       7.579   5.779  18.587  0.00  0.00    +0.000 A 
ATOM     23  C   UNL     1       7.665   6.969  17.888  0.00  0.00    +0.000 A 
ATOM     24  N   UNL     1       6.876   7.277  16.840  0.00  0.00    +0.000 NA
ATOM     25  C   UNL     1       5.957   6.355  16.470  0.00  0.00    +0.000 A 
ENDBRANCH  19  20
ENDBRANCH  18  19
ENDBRANCH   1  18
TORSDOF 5
ENDMDL
MODEL 4
REMARK VINA RESULT:      -7.2      2.108      3.790
REMARK  Name = 
REMARK  6 active torsions:
REMARK  status: ('A' for Active; 'I' for Inactive)
REMARK    1  A    between atoms: C_1  and  C_2
REMARK    2  A    between atoms: C_2  and  C_3
REMARK    3  A    between atoms: C_2  and  N_10
REMARK    4  A    between atoms: C_3  and  C_4
REMARK    5  A    between atoms: C_11  and  C_13
REMARK    6  A    between atoms: C_18  and  C_19
REMARK                            x       y       z     vdW  Elec       q    Type
REMARK                         _______ _______ _______ _____ _____    ______ ____
ROOT
ATOM      1  N   UNL     1       2.598   6.745  18.721  0.00  0.00    +0.000 N 
ATOM      2  C   UNL     1       2.178   8.037  18.487  0.00  0.00    +0.000 C 
ATOM      3  O   UNL     1       2.307   8.599  17.406  0.00  0.00    +0.000 OA
ATOM      4  H   UNL     1       2.400   6.298  19.606  0.00  0.00    +0.000 HD
ENDROOT
BRANCH   2   5
ATOM      5  C   UNL     1       1.523   8.751  19.619  0.00  0.00    +0.000 A 
ATOM      6  C   UNL     1       1.365   8.153  20.883  0.00  0.00    +0.000 A 
ATOM      7  C   UNL     1       0.800   8.862  21.958  0.00  0.00    +0.000 A 
ATOM      8  C   UNL     1       0.407  10.188  21.741  0.00  0.00    +0.000 A 
ATOM      9  N   UNL     1      -0.127  11.118  22.593  0.00  0.00    +0.000 NA
ATOM     10  C   UNL     1      -0.280  12.190  21.835  0.00  0.00    +0.000 A 
ATOM     11  O   UNL     1       0.111  12.023  20.528  0.00  0.00    +0.000 OA
ATOM     12  C   UNL     1       0.568  10.740  20.481  0.00  0.00    +0.000 A 
ATOM     13  C   UNL     1       1.115  10.078  19.391  0.00  0.00    +0.000 A 
BRANCH  10  14
ATOM     14  C   UNL     1      -0.833  13.495  22.389  0.00  0.00    +0.000 C 
ATOM     15  C   UNL     1      -2.287  13.836  22.128  0.00  0.00    +0.000 C 
ATOM     16  C   UNL     1      -1.861  13.435  23.499  0.00  0.00    +0.000 C 
ENDBRANCH  10  14
ENDBRANCH   2   5
BRANCH   1  18
ATOM     17  C   UNL     1       4.800   6.000  17.965  0.00  0.00    +0.000 C 
ATOM     18  C   UNL     1       3.293   5.969  17.697  0.00  0.00    +0.000 C 
BRANCH  18  19
ATOM     19  C   UNL     1       2.786   4.513  17.651  0.00  0.00    +0.000 C 
BRANCH  19  20
ATOM     20  C   UNL     1       2.533   3.844  18.981  0.00  0.00    +0.000 A 
ATOM     21  C   UNL     1       1.264   3.927  19.567  0.00  0.00    +0.000 A 
ATOM     22  C   UNL     1       1.028   3.347  20.810  0.00  0.00    +0.000 A 
ATOM     23  C   UNL     1       2.078   2.705  21.441  0.00  0.00    +0.000 A 
ATOM     24  N   UNL     1       3.317   2.612  20.920  0.00  0.00    +0.000 NA
ATOM     25  C   UNL     1       3.520   3.186  19.711  0.00  0.00    +0.000 A 
ENDBRANCH  19  20
ENDBRANCH  18  19
ENDBRANCH   1  18
TORSDOF 5
ENDMDL
MODEL 5
REMARK VINA RESULT:      -7.2      2.144      3.891
REMARK  Name = 
REMARK  6 active torsions:
REMARK  status: ('A' for Active; 'I' for Inactive)
REMARK    1  A    between atoms: C_1  and  C_2
REMARK    2  A    between atoms: C_2  and  C_3
REMARK    3  A    between atoms: C_2  and  N_10
REMARK    4  A    between atoms: C_3  and  C_4
REMARK    5  A    between atoms: C_11  and  C_13
REMARK    6  A    between atoms: C_18  and  C_19
REMARK                            x       y       z     vdW  Elec       q    Type
REMARK                         _______ _______ _______ _____ _____    ______ ____
ROOT
ATOM      1  N   UNL     1       3.563   5.902  18.890  0.00  0.00    +0.000 N 
ATOM      2  C   UNL     1       3.179   7.072  18.271  0.00  0.00    +0.000 C 
ATOM      3  O   UNL     1       3.611   7.427  17.180  0.00  0.00    +0.000 OA
ATOM      4  H   UNL     1       3.120   5.615  19.753  0.00  0.00    +0.000 HD
ENDROOT
BRANCH   2   5
ATOM      5  C   UNL     1       2.176   7.915  18.979  0.00  0.00    +0.000 A 
ATOM      6  C   UNL     1       1.869   7.721  20.339  0.00  0.00    +0.000 A 
ATOM      7  C   UNL     1       0.966   8.565  21.008  0.00  0.00    +0.000 A 
ATOM      8  C   UNL     1       0.385   9.616  20.288  0.00  0.00    +0.000 A 
ATOM      9  N   UNL     1      -0.483  10.600  20.678  0.00  0.00    +0.000 NA
ATOM     10  C   UNL     1      -0.672  11.309  19.579  0.00  0.00    +0.000 A 
ATOM     11  O   UNL     1       0.013  10.847  18.479  0.00  0.00    +0.000 OA
ATOM     12  C   UNL     1       0.702   9.770  18.949  0.00  0.00    +0.000 A 
ATOM     13  C   UNL     1       1.583   8.960  18.246  0.00  0.00    +0.000 A 
BRANCH  10  14
ATOM     14  C   UNL     1      -1.566  12.540  19.558  0.00  0.00    +0.000 C 
ATOM     15  C   UNL     1      -3.068  12.347  19.502  0.00  0.00    +0.000 C 
ATOM     16  C   UNL     1      -2.435  12.827  20.763  0.00  0.00    +0.000 C 
ENDBRANCH  10  14
ENDBRANCH   2   5
BRANCH   1  18
ATOM     17  C   UNL     1       5.915   5.245  19.010  0.00  0.00    +0.000 C 
ATOM     18  C   UNL     1       4.573   5.023  18.307  0.00  0.00    +0.000 C 
BRANCH  18  19
ATOM     19  C   UNL     1       4.156   3.541  18.405  0.00  0.00    +0.000 C 
BRANCH  19  20
ATOM     20  C   UNL     1       3.189   3.183  19.508  0.00  0.00    +0.000 A 
ATOM     21  C   UNL     1       1.811   3.294  19.284  0.00  0.00    +0.000 A 
ATOM     22  C   UNL     1       0.911   3.004  20.305  0.00  0.00    +0.000 A 
ATOM     23  C   UNL     1       1.417   2.618  21.533  0.00  0.00    +0.000 A 
ATOM     24  N   UNL     1       2.734   2.511  21.796  0.00  0.00    +0.000 NA
ATOM     25  C   UNL     1       3.588   2.800  20.787  0.00  0.00    +0.000 A 
ENDBRANCH  19  20
ENDBRANCH  18  19
ENDBRANCH   1  18
TORSDOF 5
ENDMDL
MODEL 6
REMARK VINA RESULT:      -7.2      0.850      1.242
REMARK  Name = 
REMARK  6 active torsions:
REMARK  status: ('A' for Active; 'I' for Inactive)
REMARK    1  A    between atoms: C_1  and  C_2
REMARK    2  A    between atoms: C_2  and  C_3
REMARK    3  A    between atoms: C_2  and  N_10
REMARK    4  A    between atoms: C_3  and  C_4
REMARK    5  A    between atoms: C_11  and  C_13
REMARK    6  A    between atoms: C_18  and  C_19
REMARK                            x       y       z     vdW  Elec       q    Type
REMARK                         _______ _______ _______ _____ _____    ______ ____
ROOT
ATOM      1  N   UNL     1       2.538   4.798  18.468  0.00  0.00    +0.000 N 
ATOM      2  C   UNL     1       2.546   5.595  19.593  0.00  0.00    +0.000 C 
ATOM      3  O   UNL     1       2.868   5.187  20.702  0.00  0.00    +0.000 OA
ATOM      4  H   UNL     1       2.340   5.200  17.562  0.00  0.00    +0.000 HD
ENDROOT
BRANCH   2   5
ATOM      5  C   UNL     1       2.154   7.021  19.414  0.00  0.00    +0.000 A 
ATOM      6  C   UNL     1       2.232   7.663  18.164  0.00  0.00    +0.000 A 
ATOM      7  C   UNL     1       1.801   8.990  17.999  0.00  0.00    +0.000 A 
ATOM      8  C   UNL     1       1.278   9.658  19.114  0.00  0.00    +0.000 A 
ATOM      9  N   UNL     1       0.756  10.918  19.242  0.00  0.00    +0.000 NA
ATOM     10  C   UNL     1       0.414  10.989  20.517  0.00  0.00    +0.000 A 
ATOM     11  O   UNL     1       0.688   9.855  21.244  0.00  0.00    +0.000 OA
ATOM     12  C   UNL     1       1.227   8.999  20.330  0.00  0.00    +0.000 A 
ATOM     13  C   UNL     1       1.645   7.693  20.541  0.00  0.00    +0.000 A 
BRANCH  10  14
ATOM     14  C   UNL     1      -0.240  12.230  21.107  0.00  0.00    +0.000 C 
ATOM     15  C   UNL     1      -1.753  12.285  21.187  0.00  0.00    +0.000 C 
ATOM     16  C   UNL     1      -0.957  12.111  22.435  0.00  0.00    +0.000 C 
ENDBRANCH  10  14
ENDBRANCH   2   5
BRANCH   1  18
ATOM     17  C   UNL     1       1.589   2.550  18.320  0.00  0.00    +0.000 C 
ATOM     18  C   UNL     1       2.860   3.375  18.536  0.00  0.00    +0.000 C 
BRANCH  18  19
ATOM     19  C   UNL     1       3.933   2.988  17.498  0.00  0.00    +0.000 C 
BRANCH  19  20
ATOM     20  C   UNL     1       5.002   4.019  17.215  0.00  0.00    +0.000 A 
ATOM     21  C   UNL     1       5.096   4.585  15.939  0.00  0.00    +0.000 A 
ATOM     22  C   UNL     1       6.100   5.507  15.656  0.00  0.00    +0.000 A 
ATOM     23  C   UNL     1       6.993   5.831  16.661  0.00  0.00    +0.000 A 
ATOM     24  N   UNL     1       6.946   5.300  17.899  0.00  0.00    +0.000 NA
ATOM     25  C   UNL     1       5.962   4.405  18.148  0.00  0.00    +0.000 A 
ENDBRANCH  19  20
ENDBRANCH  18  19
ENDBRANCH   1  18
TORSDOF 5
ENDMDL
MODEL 7
REMARK VINA RESULT:      -7.2      1.439      1.972
REMARK  Name = 
REMARK  6 active torsions:
REMARK  status: ('A' for Active; 'I' for Inactive)
REMARK    1  A    between atoms: C_1  and  C_2
REMARK    2  A    between atoms: C_2  and  C_3
REMARK    3  A    between atoms: C_2  and  N_10
REMARK    4  A    between atoms: C_3  and  C_4
REMARK    5  A    between atoms: C_11  and  C_13
REMARK    6  A    between atoms: C_18  and  C_19
REMARK                            x       y       z     vdW  Elec       q    Type
REMARK                         _______ _______ _______ _____ _____    ______ ____
ROOT
ATOM      1  N   UNL     1       4.290   5.720  18.709  0.00  0.00    +0.000 N 
ATOM      2  C   UNL     1       2.925   5.888  18.609  0.00  0.00    +0.000 C 
ATOM      3  O   UNL     1       2.151   4.969  18.374  0.00  0.00    +0.000 OA
ATOM      4  H   UNL     1       4.879   6.494  18.982  0.00  0.00    +0.000 HD
ENDROOT
BRANCH   2   5
ATOM      5  C   UNL     1       2.397   7.265  18.821  0.00  0.00    +0.000 A 
ATOM      6  C   UNL     1       2.310   8.198  17.772  0.00  0.00    +0.000 A 
ATOM      7  C   UNL     1       1.753   9.472  17.975  0.00  0.00    +0.000 A 
ATOM      8  C   UNL     1       1.272   9.787  19.253  0.00  0.00    +0.000 A 
ATOM      9  N   UNL     1       0.656  10.914  19.727  0.00  0.00    +0.000 NA
ATOM     10  C   UNL     1       0.421  10.634  20.997  0.00  0.00    +0.000 A 
ATOM     11  O   UNL     1       0.854   9.391  21.395  0.00  0.00    +0.000 OA
ATOM     12  C   UNL     1       1.384   8.848  20.263  0.00  0.00    +0.000 A 
ATOM     13  C   UNL     1       1.931   7.582  20.111  0.00  0.00    +0.000 A 
BRANCH  10  14
ATOM     14  C   UNL     1      -0.286  11.615  21.921  0.00  0.00    +0.000 C 
ATOM     15  C   UNL     1      -1.794  11.740  21.832  0.00  0.00    +0.000 C 
ATOM     16  C   UNL     1      -1.181  11.069  23.013  0.00  0.00    +0.000 C 
ENDBRANCH  10  14
ENDBRANCH   2   5
BRANCH   1  18
ATOM     17  C   UNL     1       4.443   3.422  19.531  0.00  0.00    +0.000 C 
ATOM     18  C   UNL     1       4.920   4.422  18.475  0.00  0.00    +0.000 C 
BRANCH  18  19
ATOM     19  C   UNL     1       4.613   3.893  17.059  0.00  0.00    +0.000 C 
BRANCH  19  20
ATOM     20  C   UNL     1       5.577   4.292  15.966  0.00  0.00    +0.000 A 
ATOM     21  C   UNL     1       5.385   3.812  14.665  0.00  0.00    +0.000 A 
ATOM     22  C   UNL     1       6.287   4.142  13.658  0.00  0.00    +0.000 A 
ATOM     23  C   UNL     1       7.370   4.938  13.984  0.00  0.00    +0.000 A 
ATOM     24  N   UNL     1       7.600   5.410  15.226  0.00  0.00    +0.000 NA
ATOM     25  C   UNL     1       6.708   5.074  16.187  0.00  0.00    +0.000 A 
ENDBRANCH  19  20
ENDBRANCH  18  19
ENDBRANCH   1  18
TORSDOF 5
ENDMDL
MODEL 8
REMARK VINA RESULT:      -7.2      1.039      1.071
REMARK  Name = 
REMARK  6 active torsions:
REMARK  status: ('A' for Active; 'I' for Inactive)
REMARK    1  A    between atoms: C_1  and  C_2
REMARK    2  A    between atoms: C_2  and  C_3
REMARK    3  A    between atoms: C_2  and  N_10
REMARK    4  A    between atoms: C_3  and  C_4
REMARK    5  A    between atoms: C_11  and  C_13
REMARK    6  A    between atoms: C_18  and  C_19
REMARK                            x       y       z     vdW  Elec       q    Type
REMARK                         _______ _______ _______ _____ _____    ______ ____
ROOT
ATOM      1  N   UNL     1       3.581   5.707  19.793  0.00  0.00    +0.000 N 
ATOM      2  C   UNL     1       2.692   6.166  18.844  0.00  0.00    +0.000 C 
ATOM      3  O   UNL     1       2.338   5.499  17.878  0.00  0.00    +0.000 OA
ATOM      4  H   UNL     1       3.782   6.263  20.612  0.00  0.00    +0.000 HD
ENDROOT
BRANCH   2   5
ATOM      5  C   UNL     1       2.140   7.535  19.041  0.00  0.00    +0.000 A 
ATOM      6  C   UNL     1       2.004   8.443  17.974  0.00  0.00    +0.000 A 
ATOM      7  C   UNL     1       1.424   9.709  18.166  0.00  0.00    +0.000 A 
ATOM      8  C   UNL     1       0.973  10.042  19.449  0.00  0.00    +0.000 A 
ATOM      9  N   UNL     1       0.345  11.165  19.917  0.00  0.00    +0.000 NA
ATOM     10  C   UNL     1       0.151  10.909  21.199  0.00  0.00    +0.000 A 
ATOM     11  O   UNL     1       0.623   9.685  21.611  0.00  0.00    +0.000 OA
ATOM     12  C   UNL     1       1.133   9.128  20.476  0.00  0.00    +0.000 A 
ATOM     13  C   UNL     1       1.703   7.871  20.336  0.00  0.00    +0.000 A 
BRANCH  10  14
ATOM     14  C   UNL     1      -0.550  11.895  22.120  0.00  0.00    +0.000 C 
ATOM     15  C   UNL     1      -2.041  12.112  21.953  0.00  0.00    +0.000 C 
ATOM     16  C   UNL     1      -1.536  11.362  23.139  0.00  0.00    +0.000 C 
ENDBRANCH  10  14
ENDBRANCH   2   5
BRANCH   1  18
ATOM     17  C   UNL     1       3.151   3.301  19.730  0.00  0.00    +0.000 C 
ATOM     18  C   UNL     1       4.218   4.398  19.674  0.00  0.00    +0.000 C 
BRANCH  18  19
ATOM     19  C   UNL     1       5.037   4.284  18.372  0.00  0.00    +0.000 C 
BRANCH  19  20
ATOM     20  C   UNL     1       6.016   5.399  18.091  0.00  0.00    +0.000 A 
ATOM     21  C   UNL     1       7.117   5.583  18.935  0.00  0.00    +0.000 A 
ATOM     22  C   UNL     1       8.006   6.630  18.708  0.00  0.00    +0.000 A 
ATOM     23  C   UNL     1       7.760   7.476  17.643  0.00  0.00    +0.000 A 
ATOM     24  N   UNL     1       6.706   7.344  16.813  0.00  0.00    +0.000 NA
ATOM     25  C   UNL     1       5.857   6.318  17.056  0.00  0.00    +0.000 A 
ENDBRANCH  19  20
ENDBRANCH  18  19
ENDBRANCH   1  18
TORSDOF 5
ENDMDL
MODEL 9
REMARK VINA RESULT:      -7.1      3.063      8.245
REMARK  Name = 
REMARK  6 active torsions:
REMARK  status: ('A' for Active; 'I' for Inactive)
REMARK    1  A    between atoms: C_1  and  C_2
REMARK    2  A    between atoms: C_2  and  C_3
REMARK    3  A    between atoms: C_2  and  N_10
REMARK    4  A    between atoms: C_3  and  C_4
REMARK    5  A    between atoms: C_11  and  C_13
REMARK    6  A    between atoms: C_18  and  C_19
REMARK                            x       y       z     vdW  Elec       q    Type
REMARK                         _______ _______ _______ _____ _____    ______ ____
ROOT
ATOM      1  N   UNL     1       3.267   6.453  18.883  0.00  0.00    +0.000 N 
ATOM      2  C   UNL     1       4.491   5.824  18.967  0.00  0.00    +0.000 C 
ATOM      3  O   UNL     1       4.946   5.378  20.013  0.00  0.00    +0.000 OA
ATOM      4  H   UNL     1       2.900   6.735  17.984  0.00  0.00    +0.000 HD
ENDROOT
BRANCH   2   5
ATOM      5  C   UNL     1       5.264   5.680  17.702  0.00  0.00    +0.000 A 
ATOM      6  C   UNL     1       6.597   6.117  17.591  0.00  0.00    +0.000 A 
ATOM      7  C   UNL     1       7.333   5.918  16.410  0.00  0.00    +0.000 A 
ATOM      8  C   UNL     1       6.706   5.260  15.344  0.00  0.00    +0.000 A 
ATOM      9  N   UNL     1       7.177   4.899  14.110  0.00  0.00    +0.000 NA
ATOM     10  C   UNL     1       6.146   4.298  13.542  0.00  0.00    +0.000 A 
ATOM     11  O   UNL     1       5.015   4.249  14.323  0.00  0.00    +0.000 OA
ATOM     12  C   UNL     1       5.390   4.853  15.485  0.00  0.00    +0.000 A 
ATOM     13  C   UNL     1       4.625   5.032  16.628  0.00  0.00    +0.000 A 
BRANCH  10  14
ATOM     14  C   UNL     1       6.229   3.706  12.143  0.00  0.00    +0.000 C 
ATOM     15  C   UNL     1       6.107   2.204  11.981  0.00  0.00    +0.000 C 
ATOM     16  C   UNL     1       4.987   3.084  11.542  0.00  0.00    +0.000 C 
ENDBRANCH  10  14
ENDBRANCH   2   5
BRANCH   1  18
ATOM     17  C   UNL     1       1.735   8.039  19.939  0.00  0.00    +0.000 C 
ATOM     18  C   UNL     1       2.446   6.690  20.068  0.00  0.00    +0.000 C 
BRANCH  18  19
ATOM     19  C   UNL     1       1.417   5.560  20.276  0.00  0.00    +0.000 C 
BRANCH  19  20
ATOM     20  C   UNL     1       1.792   4.198  19.741  0.00  0.00    +0.000 A 
ATOM     21  C   UNL     1       1.441   3.848  18.432  0.00  0.00    +0.000 A 
ATOM     22  C   UNL     1       1.748   2.582  17.940  0.00  0.00    +0.000 A 
ATOM     23  C   UNL     1       2.391   1.693  18.781  0.00  0.00    +0.000 A 
ATOM     24  N   UNL     1       2.736   1.983  20.051  0.00  0.00    +0.000 NA
ATOM     25  C   UNL     1       2.425   3.220  20.505  0.00  0.00    +0.000 A 
ENDBRANCH  19  20
ENDBRANCH  18  19
ENDBRANCH   1  18
TORSDOF 5
ENDMDL
