MODEL 1
REMARK VINA RESULT:      -7.7      0.000      0.000
REMARK  Name = 
REMARK  11 active torsions:
REMARK  status: ('A' for Active; 'I' for Inactive)
REMARK    1  A    between atoms: C_1  and  C_2
REMARK    2  A    between atoms: N_4  and  C_5
REMARK    3  A    between atoms: C_7  and  C_8
REMARK    4  A    between atoms: C_8  and  O_9
REMARK    5  A    between atoms: C_11  and  N_12
REMARK    6  A    between atoms: C_13  and  C_15
REMARK    7  A    between atoms: C_18  and  N_19
REMARK    8  A    between atoms: C_20  and  C_22
REMARK    9  A    between atoms: C_22  and  C_23
REMARK   10  A    between atoms: C_23  and  C_24
REMARK   11  A    between atoms: C_24  and  N_25
REMARK                            x       y       z     vdW  Elec       q    Type
REMARK                         _______ _______ _______ _____ _____    ______ ____
ROOT
ATOM      1  C   UNL     1       0.488   9.743  20.591  0.00  0.00    +0.000 A 
ATOM      2  C   UNL     1       1.061   9.583  19.329  0.00  0.00    +0.000 A 
ATOM      3  C   UNL     1       1.815   8.445  19.046  0.00  0.00    +0.000 A 
ATOM      4  C   UNL     1       2.029   7.469  20.022  0.00  0.00    +0.000 A 
ATOM      5  C   UNL     1       1.433   7.618  21.279  0.00  0.00    +0.000 A 
ATOM      6  C   UNL     1       0.680   8.758  21.574  0.00  0.00    +0.000 A 
ENDROOT
BRANCH   1   8
ATOM      7  N   UNL     1      -0.492  11.169  22.285  0.00  0.00    +0.000 N 
ATOM      8  C   UNL     1      -0.298  10.957  20.928  0.00  0.00    +0.000 C 
ATOM      9  O   UNL     1      -0.658  11.686  20.010  0.00  0.00    +0.000 OA
ATOM     10  H   UNL     1       0.049  10.600  22.922  0.00  0.00    +0.000 HD
BRANCH   7  15
ATOM     11  C   UNL     1      -3.444  12.879  23.734  0.00  0.00    +0.000 A 
ATOM     12  C   UNL     1      -2.911  14.146  23.984  0.00  0.00    +0.000 A 
ATOM     13  C   UNL     1      -1.584  14.463  23.662  0.00  0.00    +0.000 A 
ATOM     14  C   UNL     1      -0.786  13.475  23.081  0.00  0.00    +0.000 A 
ATOM     15  C   UNL     1      -1.280  12.185  22.865  0.00  0.00    +0.000 A 
ATOM     16  C   UNL     1      -2.614  11.890  23.189  0.00  0.00    +0.000 A 
BRANCH  11  20
ATOM     17  C   UNL     1      -7.194  12.461  23.823  0.00  0.00    +0.000 C 
ATOM     18  C   UNL     1      -5.886  12.930  23.247  0.00  0.00    +0.000 C 
ATOM     19  O   UNL     1      -5.864  13.559  22.194  0.00  0.00    +0.000 OA
ATOM     20  N   UNL     1      -4.792  12.554  24.011  0.00  0.00    +0.000 N 
ATOM     21  H   UNL     1      -4.960  11.900  24.765  0.00  0.00    +0.000 HD
ENDBRANCH  11  20
BRANCH  13  22
ATOM     22  C   UNL     1      -1.096  15.867  23.922  0.00  0.00    +0.000 C 
BRANCH  22  23
ATOM     23  O   UNL     1       0.307  16.022  23.761  0.00  0.00    +0.000 OA
ATOM     24  H   UNL     1       0.529  16.922  24.056  0.00  0.00    +0.000 HD
ENDBRANCH  22  23
ENDBRANCH  13  22
ENDBRANCH   7  15
ENDBRANCH   1   8
BRANCH   4  25
ATOM     25  N   UNL     1       2.804   6.317  19.782  0.00  0.00    +0.000 N 
ATOM     26  C   UNL     1       2.352   5.005  19.824  0.00  0.00    +0.000 C 
ATOM     27  O   UNL     1       1.181   4.641  19.902  0.00  0.00    +0.000 OA
ATOM     28  H   UNL     1       3.764   6.469  19.492  0.00  0.00    +0.000 HD
BRANCH  26  29
ATOM     29  C   UNL     1       3.472   3.985  19.806  0.00  0.00    +0.000 C 
BRANCH  29  30
ATOM     30  C   UNL     1       4.697   4.624  19.162  0.00  0.00    +0.000 C 
BRANCH  30  31
ATOM     31  C   UNL     1       4.994   4.147  17.741  0.00  0.00    +0.000 C 
BRANCH  31  32
ATOM     32  N   UNL     1       4.934   5.273  16.794  0.00  0.00    +0.000 NA
ATOM     33  C   UNL     1       5.449   4.901  15.459  0.00  0.00    +0.000 C 
ATOM     34  C   UNL     1       6.985   4.827  15.389  0.00  0.00    +0.000 C 
ATOM     35  O   UNL     1       7.584   6.066  15.786  0.00  0.00    +0.000 OA
ATOM     36  C   UNL     1       7.177   6.427  17.110  0.00  0.00    +0.000 C 
ATOM     37  C   UNL     1       5.646   6.497  17.229  0.00  0.00    +0.000 C 
ENDBRANCH  31  32
ENDBRANCH  30  31
ENDBRANCH  29  30
ENDBRANCH  26  29
ENDBRANCH   4  25
TORSDOF 10
ENDMDL
MODEL 2
REMARK VINA RESULT:      -7.5      1.710     11.801
REMARK  Name = 
REMARK  11 active torsions:
REMARK  status: ('A' for Active; 'I' for Inactive)
REMARK    1  A    between atoms: C_1  and  C_2
REMARK    2  A    between atoms: N_4  and  C_5
REMARK    3  A    between atoms: C_7  and  C_8
REMARK    4  A    between atoms: C_8  and  O_9
REMARK    5  A    between atoms: C_11  and  N_12
REMARK    6  A    between atoms: C_13  and  C_15
REMARK    7  A    between atoms: C_18  and  N_19
REMARK    8  A    between atoms: C_20  and  C_22
REMARK    9  A    between atoms: C_22  and  C_23
REMARK   10  A    between atoms: C_23  and  C_24
REMARK   11  A    between atoms: C_24  and  N_25
REMARK                            x       y       z     vdW  Elec       q    Type
REMARK                         _______ _______ _______ _____ _____    ______ ____
ROOT
ATOM      1  C   UNL     1       1.476   8.395  20.352  0.00  0.00    +0.000 A 
ATOM      2  C   UNL     1       1.309   9.324  19.324  0.00  0.00    +0.000 A 
ATOM      3  C   UNL     1       0.824  10.599  19.611  0.00  0.00    +0.000 A 
ATOM      4  C   UNL     1       0.476  10.955  20.916  0.00  0.00    +0.000 A 
ATOM      5  C   UNL     1       0.668  10.031  21.949  0.00  0.00    +0.000 A 
ATOM      6  C   UNL     1       1.147   8.748  21.671  0.00  0.00    +0.000 A 
ENDROOT
BRANCH   1   8
ATOM      7  N   UNL     1       2.768   6.907  18.945  0.00  0.00    +0.000 N 
ATOM      8  C   UNL     1       1.965   7.021  20.071  0.00  0.00    +0.000 C 
ATOM      9  O   UNL     1       1.675   6.131  20.862  0.00  0.00    +0.000 OA
ATOM     10  H   UNL     1       3.093   7.765  18.521  0.00  0.00    +0.000 HD
BRANCH   7  15
ATOM     11  C   UNL     1       4.584   4.614  16.669  0.00  0.00    +0.000 A 
ATOM     12  C   UNL     1       4.294   3.381  17.258  0.00  0.00    +0.000 A 
ATOM     13  C   UNL     1       3.481   3.283  18.397  0.00  0.00    +0.000 A 
ATOM     14  C   UNL     1       2.962   4.457  18.946  0.00  0.00    +0.000 A 
ATOM     15  C   UNL     1       3.276   5.707  18.404  0.00  0.00    +0.000 A 
ATOM     16  C   UNL     1       4.087   5.783  17.260  0.00  0.00    +0.000 A 
BRANCH  11  20
ATOM     17  C   UNL     1       7.285   4.955  14.054  0.00  0.00    +0.000 C 
ATOM     18  C   UNL     1       6.749   4.800  15.451  0.00  0.00    +0.000 C 
ATOM     19  O   UNL     1       7.518   4.730  16.404  0.00  0.00    +0.000 OA
ATOM     20  N   UNL     1       5.365   4.729  15.495  0.00  0.00    +0.000 N 
ATOM     21  H   UNL     1       4.880   4.637  14.612  0.00  0.00    +0.000 HD
ENDBRANCH  11  20
BRANCH  13  22
ATOM     22  C   UNL     1       3.178   1.911  18.948  0.00  0.00    +0.000 C 
BRANCH  22  23
ATOM     23  O   UNL     1       1.934   1.384  18.510  0.00  0.00    +0.000 OA
ATOM     24  H   UNL     1       1.406   2.135  18.186  0.00  0.00    +0.000 HD
ENDBRANCH  22  23
ENDBRANCH  13  22
ENDBRANCH   7  15
ENDBRANCH   1   8
BRANCH   4  25
ATOM     25  N   UNL     1      -0.039  12.225  21.242  0.00  0.00    +0.000 N 
ATOM     26  C   UNL     1       0.707  13.360  21.525  0.00  0.00    +0.000 C 
ATOM     27  O   UNL     1       1.919  13.492  21.370  0.00  0.00    +0.000 OA
ATOM     28  H   UNL     1      -1.047  12.329  21.204  0.00  0.00    +0.000 HD
BRANCH  26  29
ATOM     29  C   UNL     1      -0.117  14.488  22.114  0.00  0.00    +0.000 C 
BRANCH  29  30
ATOM     30  C   UNL     1      -1.456  14.536  21.387  0.00  0.00    +0.000 C 
BRANCH  30  31
ATOM     31  C   UNL     1      -2.675  14.298  22.277  0.00  0.00    +0.000 C 
BRANCH  31  32
ATOM     32  N   UNL     1      -3.030  12.869  22.296  0.00  0.00    +0.000 NA
ATOM     33  C   UNL     1      -4.254  12.593  21.514  0.00  0.00    +0.000 C 
ATOM     34  C   UNL     1      -5.551  13.000  22.235  0.00  0.00    +0.000 C 
ATOM     35  O   UNL     1      -5.663  12.356  23.510  0.00  0.00    +0.000 OA
ATOM     36  C   UNL     1      -4.534  12.664  24.334  0.00  0.00    +0.000 C 
ATOM     37  C   UNL     1      -3.213  12.286  23.645  0.00  0.00    +0.000 C 
ENDBRANCH  31  32
ENDBRANCH  30  31
ENDBRANCH  29  30
ENDBRANCH  26  29
ENDBRANCH   4  25
TORSDOF 10
ENDMDL
MODEL 3
REMARK VINA RESULT:      -7.5      1.774      3.105
REMARK  Name = 
REMARK  11 active torsions:
REMARK  status: ('A' for Active; 'I' for Inactive)
REMARK    1  A    between atoms: C_1  and  C_2
REMARK    2  A    between atoms: N_4  and  C_5
REMARK    3  A    between atoms: C_7  and  C_8
REMARK    4  A    between atoms: C_8  and  O_9
REMARK    5  A    between atoms: C_11  and  N_12
REMARK    6  A    between atoms: C_13  and  C_15
REMARK    7  A    between atoms: C_18  and  N_19
REMARK    8  A    between atoms: C_20  and  C_22
REMARK    9  A    between atoms: C_22  and  C_23
REMARK   10  A    between atoms: C_23  and  C_24
REMARK   11  A    between atoms: C_24  and  N_25
REMARK                            x       y       z     vdW  Elec       q    Type
REMARK                         _______ _______ _______ _____ _____    ______ ____
ROOT
ATOM      1  C   UNL     1       0.865   9.241  21.000  0.00  0.00    +0.000 A 
ATOM      2  C   UNL     1       1.064   9.707  19.700  0.00  0.00    +0.000 A 
ATOM      3  C   UNL     1       1.648   8.875  18.745  0.00  0.00    +0.000 A 
ATOM      4  C   UNL     1       2.064   7.584  19.079  0.00  0.00    +0.000 A 
ATOM      5  C   UNL     1       1.841   7.110  20.377  0.00  0.00    +0.000 A 
ATOM      6  C   UNL     1       1.262   7.938  21.343  0.00  0.00    +0.000 A 
ENDROOT
BRANCH   1   8
ATOM      7  N   UNL     1      -0.588  11.093  21.566  0.00  0.00    +0.000 N 
ATOM      8  C   UNL     1       0.270  10.114  22.044  0.00  0.00    +0.000 C 
ATOM      9  O   UNL     1       0.535   9.875  23.217  0.00  0.00    +0.000 OA
ATOM     10  H   UNL     1      -0.872  11.024  20.598  0.00  0.00    +0.000 HD
BRANCH   7  15
ATOM     11  C   UNL     1      -3.156  12.869  23.564  0.00  0.00    +0.000 A 
ATOM     12  C   UNL     1      -2.495  14.072  23.823  0.00  0.00    +0.000 A 
ATOM     13  C   UNL     1      -1.207  14.325  23.329  0.00  0.00    +0.000 A 
ATOM     14  C   UNL     1      -0.582  13.338  22.564  0.00  0.00    +0.000 A 
ATOM     15  C   UNL     1      -1.202  12.107  22.330  0.00  0.00    +0.000 A 
ATOM     16  C   UNL     1      -2.494  11.876  22.829  0.00  0.00    +0.000 A 
BRANCH  11  20
ATOM     17  C   UNL     1      -6.880  12.613  24.123  0.00  0.00    +0.000 C 
ATOM     18  C   UNL     1      -5.635  13.002  23.373  0.00  0.00    +0.000 C 
ATOM     19  O   UNL     1      -5.719  13.584  22.296  0.00  0.00    +0.000 OA
ATOM     20  N   UNL     1      -4.471  12.613  24.016  0.00  0.00    +0.000 N 
ATOM     21  H   UNL     1      -4.569  11.998  24.814  0.00  0.00    +0.000 HD
ENDBRANCH  11  20
BRANCH  13  22
ATOM     22  C   UNL     1      -0.578  15.666  23.616  0.00  0.00    +0.000 C 
BRANCH  22  23
ATOM     23  O   UNL     1      -0.781  16.622  22.585  0.00  0.00    +0.000 OA
ATOM     24  H   UNL     1      -0.186  17.370  22.770  0.00  0.00    +0.000 HD
ENDBRANCH  22  23
ENDBRANCH  13  22
ENDBRANCH   7  15
ENDBRANCH   1   8
BRANCH   4  25
ATOM     25  N   UNL     1       2.679   6.724  18.149  0.00  0.00    +0.000 N 
ATOM     26  C   UNL     1       3.824   5.970  18.368  0.00  0.00    +0.000 C 
ATOM     27  O   UNL     1       4.384   5.793  19.448  0.00  0.00    +0.000 OA
ATOM     28  H   UNL     1       2.203   6.599  17.263  0.00  0.00    +0.000 HD
BRANCH  26  29
ATOM     29  C   UNL     1       4.399   5.372  17.100  0.00  0.00    +0.000 C 
BRANCH  29  30
ATOM     30  C   UNL     1       3.998   3.902  17.036  0.00  0.00    +0.000 C 
BRANCH  30  31
ATOM     31  C   UNL     1       2.518   3.632  17.303  0.00  0.00    +0.000 C 
BRANCH  31  32
ATOM     32  N   UNL     1       2.342   2.331  17.968  0.00  0.00    +0.000 NA
ATOM     33  C   UNL     1       1.053   2.248  18.688  0.00  0.00    +0.000 C 
ATOM     34  C   UNL     1       1.040   3.015  20.022  0.00  0.00    +0.000 C 
ATOM     35  O   UNL     1       2.084   2.563  20.892  0.00  0.00    +0.000 OA
ATOM     36  C   UNL     1       3.364   2.701  20.266  0.00  0.00    +0.000 C 
ATOM     37  C   UNL     1       3.415   1.961  18.919  0.00  0.00    +0.000 C 
ENDBRANCH  31  32
ENDBRANCH  30  31
ENDBRANCH  29  30
ENDBRANCH  26  29
ENDBRANCH   4  25
TORSDOF 10
ENDMDL
MODEL 4
REMARK VINA RESULT:      -7.4      2.090     12.071
REMARK  Name = 
REMARK  11 active torsions:
REMARK  status: ('A' for Active; 'I' for Inactive)
REMARK    1  A    between atoms: C_1  and  C_2
REMARK    2  A    between atoms: N_4  and  C_5
REMARK    3  A    between atoms: C_7  and  C_8
REMARK    4  A    between atoms: C_8  and  O_9
REMARK    5  A    between atoms: C_11  and  N_12
REMARK    6  A    between atoms: C_13  and  C_15
REMARK    7  A    between atoms: C_18  and  N_19
REMARK    8  A    between atoms: C_20  and  C_22
REMARK    9  A    between atoms: C_22  and  C_23
REMARK   10  A    between atoms: C_23  and  C_24
REMARK   11  A    between atoms: C_24  and  N_25
REMARK                            x       y       z     vdW  Elec       q    Type
REMARK                         _______ _______ _______ _____ _____    ______ ____
ROOT
ATOM      1  C   UNL     1       1.950   8.138  18.927  0.00  0.00    +0.000 A 
ATOM      2  C   UNL     1       1.518   8.837  17.799  0.00  0.00    +0.000 A 
ATOM      3  C   UNL     1       0.578   9.858  17.931  0.00  0.00    +0.000 A 
ATOM      4  C   UNL     1       0.040  10.178  19.180  0.00  0.00    +0.000 A 
ATOM      5  C   UNL     1       0.493   9.493  20.313  0.00  0.00    +0.000 A 
ATOM      6  C   UNL     1       1.429   8.463  20.190  0.00  0.00    +0.000 A 
ENDROOT
BRANCH   1   8
ATOM      7  N   UNL     1       4.036   7.306  18.023  0.00  0.00    +0.000 N 
ATOM      8  C   UNL     1       2.930   7.028  18.812  0.00  0.00    +0.000 C 
ATOM      9  O   UNL     1       2.717   6.001  19.448  0.00  0.00    +0.000 OA
ATOM     10  H   UNL     1       4.174   8.267  17.744  0.00  0.00    +0.000 HD
BRANCH   7  15
ATOM     11  C   UNL     1       5.926   4.783  16.073  0.00  0.00    +0.000 A 
ATOM     12  C   UNL     1       7.016   4.566  16.920  0.00  0.00    +0.000 A 
ATOM     13  C   UNL     1       7.135   5.227  18.151  0.00  0.00    +0.000 A 
ATOM     14  C   UNL     1       6.133   6.126  18.522  0.00  0.00    +0.000 A 
ATOM     15  C   UNL     1       5.057   6.397  17.672  0.00  0.00    +0.000 A 
ATOM     16  C   UNL     1       4.954   5.720  16.446  0.00  0.00    +0.000 A 
BRANCH  11  20
ATOM     17  C   UNL     1       6.051   3.465  12.539  0.00  0.00    +0.000 C 
ATOM     18  C   UNL     1       6.475   4.344  13.684  0.00  0.00    +0.000 C 
ATOM     19  O   UNL     1       7.376   5.163  13.535  0.00  0.00    +0.000 OA
ATOM     20  N   UNL     1       5.767   4.093  14.849  0.00  0.00    +0.000 N 
ATOM     21  H   UNL     1       5.169   3.276  14.858  0.00  0.00    +0.000 HD
ENDBRANCH  11  20
BRANCH  13  22
ATOM     22  C   UNL     1       8.319   4.905  19.029  0.00  0.00    +0.000 C 
BRANCH  22  23
ATOM     23  O   UNL     1       8.188   5.384  20.359  0.00  0.00    +0.000 OA
ATOM     24  H   UNL     1       9.006   5.144  20.830  0.00  0.00    +0.000 HD
ENDBRANCH  22  23
ENDBRANCH  13  22
ENDBRANCH   7  15
ENDBRANCH   1   8
BRANCH   4  25
ATOM     25  N   UNL     1      -0.928  11.186  19.350  0.00  0.00    +0.000 N 
ATOM     26  C   UNL     1      -0.674  12.537  19.546  0.00  0.00    +0.000 C 
ATOM     27  O   UNL     1       0.414  13.097  19.430  0.00  0.00    +0.000 OA
ATOM     28  H   UNL     1      -1.898  10.905  19.258  0.00  0.00    +0.000 HD
BRANCH  26  29
ATOM     29  C   UNL     1      -1.897  13.320  19.980  0.00  0.00    +0.000 C 
BRANCH  29  30
ATOM     30  C   UNL     1      -2.948  12.335  20.477  0.00  0.00    +0.000 C 
BRANCH  30  31
ATOM     31  C   UNL     1      -4.171  12.980  21.128  0.00  0.00    +0.000 C 
BRANCH  31  32
ATOM     32  N   UNL     1      -4.375  12.450  22.486  0.00  0.00    +0.000 NA
ATOM     33  C   UNL     1      -5.386  13.224  23.236  0.00  0.00    +0.000 C 
ATOM     34  C   UNL     1      -4.865  14.573  23.762  0.00  0.00    +0.000 C 
ATOM     35  O   UNL     1      -3.710  14.397  24.591  0.00  0.00    +0.000 OA
ATOM     36  C   UNL     1      -2.670  13.721  23.877  0.00  0.00    +0.000 C 
ATOM     37  C   UNL     1      -3.154  12.373  23.320  0.00  0.00    +0.000 C 
ENDBRANCH  31  32
ENDBRANCH  30  31
ENDBRANCH  29  30
ENDBRANCH  26  29
ENDBRANCH   4  25
TORSDOF 10
ENDMDL
MODEL 5
REMARK VINA RESULT:      -7.4      1.397      3.184
REMARK  Name = 
REMARK  11 active torsions:
REMARK  status: ('A' for Active; 'I' for Inactive)
REMARK    1  A    between atoms: C_1  and  C_2
REMARK    2  A    between atoms: N_4  and  C_5
REMARK    3  A    between atoms: C_7  and  C_8
REMARK    4  A    between atoms: C_8  and  O_9
REMARK    5  A    between atoms: C_11  and  N_12
REMARK    6  A    between atoms: C_13  and  C_15
REMARK    7  A    between atoms: C_18  and  N_19
REMARK    8  A    between atoms: C_20  and  C_22
REMARK    9  A    between atoms: C_22  and  C_23
REMARK   10  A    between atoms: C_23  and  C_24
REMARK   11  A    between atoms: C_24  and  N_25
REMARK                            x       y       z     vdW  Elec       q    Type
REMARK                         _______ _______ _______ _____ _____    ______ ____
ROOT
ATOM      1  C   UNL     1       0.602   9.891  20.327  0.00  0.00    +0.000 A 
ATOM      2  C   UNL     1       1.085   9.690  19.034  0.00  0.00    +0.000 A 
ATOM      3  C   UNL     1       1.820   8.542  18.737  0.00  0.00    +0.000 A 
ATOM      4  C   UNL     1       2.102   7.598  19.726  0.00  0.00    +0.000 A 
ATOM      5  C   UNL     1       1.595   7.789  21.017  0.00  0.00    +0.000 A 
ATOM      6  C   UNL     1       0.864   8.939  21.326  0.00  0.00    +0.000 A 
ENDROOT
BRANCH   1   8
ATOM      7  N   UNL     1      -0.439  11.264  22.029  0.00  0.00    +0.000 N 
ATOM      8  C   UNL     1      -0.160  11.117  20.678  0.00  0.00    +0.000 C 
ATOM      9  O   UNL     1      -0.430  11.907  19.780  0.00  0.00    +0.000 OA
ATOM     10  H   UNL     1       0.035  10.641  22.668  0.00  0.00    +0.000 HD
BRANCH   7  15
ATOM     11  C   UNL     1      -1.396  14.582  23.375  0.00  0.00    +0.000 A 
ATOM     12  C   UNL     1      -2.710  14.328  23.778  0.00  0.00    +0.000 A 
ATOM     13  C   UNL     1      -3.292  13.060  23.634  0.00  0.00    +0.000 A 
ATOM     14  C   UNL     1      -2.528  12.038  23.067  0.00  0.00    +0.000 A 
ATOM     15  C   UNL     1      -1.228  12.279  22.611  0.00  0.00    +0.000 A 
ATOM     16  C   UNL     1      -0.662  13.553  22.770  0.00  0.00    +0.000 A 
BRANCH  11  20
ATOM     17  C   UNL     1       0.254  17.737  24.628  0.00  0.00    +0.000 C 
ATOM     18  C   UNL     1      -0.326  16.354  24.758  0.00  0.00    +0.000 C 
ATOM     19  O   UNL     1      -0.344  15.792  25.848  0.00  0.00    +0.000 OA
ATOM     20  N   UNL     1      -0.778  15.841  23.553  0.00  0.00    +0.000 N 
ATOM     21  H   UNL     1      -0.545  16.359  22.715  0.00  0.00    +0.000 HD
ENDBRANCH  11  20
BRANCH  13  22
ATOM     22  C   UNL     1      -4.700  12.854  24.134  0.00  0.00    +0.000 C 
BRANCH  22  23
ATOM     23  O   UNL     1      -4.850  11.708  24.959  0.00  0.00    +0.000 OA
ATOM     24  H   UNL     1      -5.805  11.540  25.042  0.00  0.00    +0.000 HD
ENDBRANCH  22  23
ENDBRANCH  13  22
ENDBRANCH   7  15
ENDBRANCH   1   8
BRANCH   4  25
ATOM     25  N   UNL     1       2.860   6.439  19.471  0.00  0.00    +0.000 N 
ATOM     26  C   UNL     1       2.441   5.130  19.664  0.00  0.00    +0.000 C 
ATOM     27  O   UNL     1       1.296   4.763  19.920  0.00  0.00    +0.000 OA
ATOM     28  H   UNL     1       3.772   6.577  19.049  0.00  0.00    +0.000 HD
BRANCH  26  29
ATOM     29  C   UNL     1       3.567   4.120  19.574  0.00  0.00    +0.000 C 
BRANCH  29  30
ATOM     30  C   UNL     1       3.619   3.583  18.148  0.00  0.00    +0.000 C 
BRANCH  30  31
ATOM     31  C   UNL     1       4.389   4.460  17.163  0.00  0.00    +0.000 C 
BRANCH  31  32
ATOM     32  N   UNL     1       5.707   3.875  16.869  0.00  0.00    +0.000 NA
ATOM     33  C   UNL     1       6.806   4.652  17.481  0.00  0.00    +0.000 C 
ATOM     34  C   UNL     1       7.135   5.953  16.728  0.00  0.00    +0.000 C 
ATOM     35  O   UNL     1       7.461   5.693  15.358  0.00  0.00    +0.000 OA
ATOM     36  C   UNL     1       6.387   5.012  14.700  0.00  0.00    +0.000 C 
ATOM     37  C   UNL     1       6.015   3.711  15.430  0.00  0.00    +0.000 C 
ENDBRANCH  31  32
ENDBRANCH  30  31
ENDBRANCH  29  30
ENDBRANCH  26  29
ENDBRANCH   4  25
TORSDOF 10
ENDMDL
MODEL 6
REMARK VINA RESULT:      -7.4      2.857      4.170
REMARK  Name = 
REMARK  11 active torsions:
REMARK  status: ('A' for Active; 'I' for Inactive)
REMARK    1  A    between atoms: C_1  and  C_2
REMARK    2  A    between atoms: N_4  and  C_5
REMARK    3  A    between atoms: C_7  and  C_8
REMARK    4  A    between atoms: C_8  and  O_9
REMARK    5  A    between atoms: C_11  and  N_12
REMARK    6  A    between atoms: C_13  and  C_15
REMARK    7  A    between atoms: C_18  and  N_19
REMARK    8  A    between atoms: C_20  and  C_22
REMARK    9  A    between atoms: C_22  and  C_23
REMARK   10  A    between atoms: C_23  and  C_24
REMARK   11  A    between atoms: C_24  and  N_25
REMARK                            x       y       z     vdW  Elec       q    Type
REMARK                         _______ _______ _______ _____ _____    ______ ____
ROOT
ATOM      1  C   UNL     1       0.857   9.946  19.866  0.00  0.00    +0.000 A 
ATOM      2  C   UNL     1       0.942   9.066  20.945  0.00  0.00    +0.000 A 
ATOM      3  C   UNL     1       1.568   7.829  20.787  0.00  0.00    +0.000 A 
ATOM      4  C   UNL     1       2.091   7.446  19.550  0.00  0.00    +0.000 A 
ATOM      5  C   UNL     1       2.027   8.340  18.475  0.00  0.00    +0.000 A 
ATOM      6  C   UNL     1       1.396   9.578  18.622  0.00  0.00    +0.000 A 
ENDROOT
BRANCH   1   8
ATOM      7  N   UNL     1       1.022  12.348  20.126  0.00  0.00    +0.000 N 
ATOM      8  C   UNL     1       0.173  11.258  19.998  0.00  0.00    +0.000 C 
ATOM      9  O   UNL     1      -1.051  11.280  19.934  0.00  0.00    +0.000 OA
ATOM     10  H   UNL     1       2.004  12.191  19.945  0.00  0.00    +0.000 HD
BRANCH   7  15
ATOM     11  C   UNL     1       0.148  15.888  19.460  0.00  0.00    +0.000 A 
ATOM     12  C   UNL     1      -0.105  16.340  20.757  0.00  0.00    +0.000 A 
ATOM     13  C   UNL     1       0.028  15.496  21.870  0.00  0.00    +0.000 A 
ATOM     14  C   UNL     1       0.419  14.173  21.658  0.00  0.00    +0.000 A 
ATOM     15  C   UNL     1       0.632  13.682  20.365  0.00  0.00    +0.000 A 
ATOM     16  C   UNL     1       0.498  14.545  19.266  0.00  0.00    +0.000 A 
BRANCH  11  20
ATOM     17  C   UNL     1       0.639  18.406  16.692  0.00  0.00    +0.000 C 
ATOM     18  C   UNL     1       1.043  17.616  17.907  0.00  0.00    +0.000 C 
ATOM     19  O   UNL     1       2.152  17.775  18.406  0.00  0.00    +0.000 OA
ATOM     20  N   UNL     1       0.061  16.734  18.331  0.00  0.00    +0.000 N 
ATOM     21  H   UNL     1      -0.734  16.602  17.719  0.00  0.00    +0.000 HD
ENDBRANCH  11  20
BRANCH  13  22
ATOM     22  C   UNL     1      -0.220  16.072  23.242  0.00  0.00    +0.000 C 
BRANCH  22  23
ATOM     23  O   UNL     1      -0.647  15.108  24.195  0.00  0.00    +0.000 OA
ATOM     24  H   UNL     1      -1.297  15.547  24.771  0.00  0.00    +0.000 HD
ENDBRANCH  22  23
ENDBRANCH  13  22
ENDBRANCH   7  15
ENDBRANCH   1   8
BRANCH   4  25
ATOM     25  N   UNL     1       2.708   6.197  19.345  0.00  0.00    +0.000 N 
ATOM     26  C   UNL     1       2.255   4.974  19.821  0.00  0.00    +0.000 C 
ATOM     27  O   UNL     1       1.163   4.755  20.342  0.00  0.00    +0.000 OA
ATOM     28  H   UNL     1       3.523   6.187  18.742  0.00  0.00    +0.000 HD
BRANCH  26  29
ATOM     29  C   UNL     1       3.274   3.861  19.683  0.00  0.00    +0.000 C 
BRANCH  29  30
ATOM     30  C   UNL     1       4.612   4.480  19.292  0.00  0.00    +0.000 C 
BRANCH  30  31
ATOM     31  C   UNL     1       5.096   4.120  17.888  0.00  0.00    +0.000 C 
BRANCH  31  32
ATOM     32  N   UNL     1       4.961   5.273  16.983  0.00  0.00    +0.000 NA
ATOM     33  C   UNL     1       5.385   4.946  15.605  0.00  0.00    +0.000 C 
ATOM     34  C   UNL     1       6.912   4.892  15.425  0.00  0.00    +0.000 C 
ATOM     35  O   UNL     1       7.526   6.125  15.817  0.00  0.00    +0.000 OA
ATOM     36  C   UNL     1       7.210   6.441  17.177  0.00  0.00    +0.000 C 
ATOM     37  C   UNL     1       5.690   6.491  17.404  0.00  0.00    +0.000 C 
ENDBRANCH  31  32
ENDBRANCH  30  31
ENDBRANCH  29  30
ENDBRANCH  26  29
ENDBRANCH   4  25
TORSDOF 10
ENDMDL
MODEL 7
REMARK VINA RESULT:      -7.4      1.800     11.447
REMARK  Name = 
REMARK  11 active torsions:
REMARK  status: ('A' for Active; 'I' for Inactive)
REMARK    1  A    between atoms: C_1  and  C_2
REMARK    2  A    between atoms: N_4  and  C_5
REMARK    3  A    between atoms: C_7  and  C_8
REMARK    4  A    between atoms: C_8  and  O_9
REMARK    5  A    between atoms: C_11  and  N_12
REMARK    6  A    between atoms: C_13  and  C_15
REMARK    7  A    between atoms: C_18  and  N_19
REMARK    8  A    between atoms: C_20  and  C_22
REMARK    9  A    between atoms: C_22  and  C_23
REMARK   10  A    between atoms: C_23  and  C_24
REMARK   11  A    between atoms: C_24  and  N_25
REMARK                            x       y       z     vdW  Elec       q    Type
REMARK                         _______ _______ _______ _____ _____    ______ ____
ROOT
ATOM      1  C   UNL     1       1.119   9.638  19.748  0.00  0.00    +0.000 A 
ATOM      2  C   UNL     1       0.583   9.698  21.035  0.00  0.00    +0.000 A 
ATOM      3  C   UNL     1       0.073  10.902  21.521  0.00  0.00    +0.000 A 
ATOM      4  C   UNL     1       0.115  12.061  20.744  0.00  0.00    +0.000 A 
ATOM      5  C   UNL     1       0.631  11.994  19.445  0.00  0.00    +0.000 A 
ATOM      6  C   UNL     1       1.150  10.794  18.951  0.00  0.00    +0.000 A 
ENDROOT
BRANCH   1   8
ATOM      7  N   UNL     1       1.920   7.392  20.166  0.00  0.00    +0.000 N 
ATOM      8  C   UNL     1       1.693   8.376  19.215  0.00  0.00    +0.000 C 
ATOM      9  O   UNL     1       1.866   8.286  18.005  0.00  0.00    +0.000 OA
ATOM     10  H   UNL     1       1.526   7.538  21.085  0.00  0.00    +0.000 HD
BRANCH   7  15
ATOM     11  C   UNL     1       4.142   4.839  18.653  0.00  0.00    +0.000 A 
ATOM     12  C   UNL     1       3.805   3.719  19.417  0.00  0.00    +0.000 A 
ATOM     13  C   UNL     1       2.830   3.780  20.424  0.00  0.00    +0.000 A 
ATOM     14  C   UNL     1       2.193   5.000  20.659  0.00  0.00    +0.000 A 
ATOM     15  C   UNL     1       2.546   6.147  19.942  0.00  0.00    +0.000 A 
ATOM     16  C   UNL     1       3.520   6.063  18.934  0.00  0.00    +0.000 A 
BRANCH  11  20
ATOM     17  C   UNL     1       7.209   4.687  16.458  0.00  0.00    +0.000 C 
ATOM     18  C   UNL     1       6.463   4.684  17.766  0.00  0.00    +0.000 C 
ATOM     19  O   UNL     1       7.073   4.576  18.824  0.00  0.00    +0.000 OA
ATOM     20  N   UNL     1       5.090   4.786  17.606  0.00  0.00    +0.000 N 
ATOM     21  H   UNL     1       4.728   4.702  16.664  0.00  0.00    +0.000 HD
ENDBRANCH  11  20
BRANCH  13  22
ATOM     22  C   UNL     1       2.492   2.516  21.174  0.00  0.00    +0.000 C 
BRANCH  22  23
ATOM     23  O   UNL     1       1.574   2.715  22.240  0.00  0.00    +0.000 OA
ATOM     24  H   UNL     1       1.171   1.851  22.433  0.00  0.00    +0.000 HD
ENDBRANCH  22  23
ENDBRANCH  13  22
ENDBRANCH   7  15
ENDBRANCH   1   8
BRANCH   4  25
ATOM     25  N   UNL     1      -0.367  13.301  21.208  0.00  0.00    +0.000 N 
ATOM     26  C   UNL     1       0.357  14.242  21.926  0.00  0.00    +0.000 C 
ATOM     27  O   UNL     1       1.571  14.231  22.122  0.00  0.00    +0.000 OA
ATOM     28  H   UNL     1      -1.312  13.550  20.937  0.00  0.00    +0.000 HD
BRANCH  26  29
ATOM     29  C   UNL     1      -0.505  15.333  22.526  0.00  0.00    +0.000 C 
BRANCH  29  30
ATOM     30  C   UNL     1      -1.940  15.128  22.053  0.00  0.00    +0.000 C 
BRANCH  30  31
ATOM     31  C   UNL     1      -2.916  14.690  23.144  0.00  0.00    +0.000 C 
BRANCH  31  32
ATOM     32  N   UNL     1      -3.067  13.226  23.145  0.00  0.00    +0.000 NA
ATOM     33  C   UNL     1      -3.622  12.726  21.869  0.00  0.00    +0.000 C 
ATOM     34  C   UNL     1      -5.136  12.956  21.722  0.00  0.00    +0.000 C 
ATOM     35  O   UNL     1      -5.861  12.360  22.804  0.00  0.00    +0.000 OA
ATOM     36  C   UNL     1      -5.412  12.877  24.062  0.00  0.00    +0.000 C 
ATOM     37  C   UNL     1      -3.899  12.681  24.244  0.00  0.00    +0.000 C 
ENDBRANCH  31  32
ENDBRANCH  30  31
ENDBRANCH  29  30
ENDBRANCH  26  29
ENDBRANCH   4  25
TORSDOF 10
ENDMDL
MODEL 8
REMARK VINA RESULT:      -7.3      1.582     12.148
REMARK  Name = 
REMARK  11 active torsions:
REMARK  status: ('A' for Active; 'I' for Inactive)
REMARK    1  A    between atoms: C_1  and  C_2
REMARK    2  A    between atoms: N_4  and  C_5
REMARK    3  A    between atoms: C_7  and  C_8
REMARK    4  A    between atoms: C_8  and  O_9
REMARK    5  A    between atoms: C_11  and  N_12
REMARK    6  A    between atoms: C_13  and  C_15
REMARK    7  A    between atoms: C_18  and  N_19
REMARK    8  A    between atoms: C_20  and  C_22
REMARK    9  A    between atoms: C_22  and  C_23
REMARK   10  A    between atoms: C_23  and  C_24
REMARK   11  A    between atoms: C_24  and  N_25
REMARK                            x       y       z     vdW  Elec       q    Type
REMARK                         _______ _______ _______ _____ _____    ______ ____
ROOT
ATOM      1  C   UNL     1       1.473   8.297  20.103  0.00  0.00    +0.000 A 
ATOM      2  C   UNL     1       1.357   9.238  19.078  0.00  0.00    +0.000 A 
ATOM      3  C   UNL     1       0.762  10.474  19.333  0.00  0.00    +0.000 A 
ATOM      4  C   UNL     1       0.255  10.775  20.599  0.00  0.00    +0.000 A 
ATOM      5  C   UNL     1       0.395   9.841  21.631  0.00  0.00    +0.000 A 
ATOM      6  C   UNL     1       0.984   8.597  21.384  0.00  0.00    +0.000 A 
ENDROOT
BRANCH   1   8
ATOM      7  N   UNL     1       2.729   6.838  18.634  0.00  0.00    +0.000 N 
ATOM      8  C   UNL     1       2.078   6.964  19.853  0.00  0.00    +0.000 C 
ATOM      9  O   UNL     1       2.002   6.120  20.739  0.00  0.00    +0.000 OA
ATOM     10  H   UNL     1       2.891   7.685  18.108  0.00  0.00    +0.000 HD
BRANCH   7  15
ATOM     11  C   UNL     1       4.699   4.609  16.423  0.00  0.00    +0.000 A 
ATOM     12  C   UNL     1       4.433   3.367  17.005  0.00  0.00    +0.000 A 
ATOM     13  C   UNL     1       3.587   3.241  18.117  0.00  0.00    +0.000 A 
ATOM     14  C   UNL     1       3.009   4.396  18.646  0.00  0.00    +0.000 A 
ATOM     15  C   UNL     1       3.297   5.656  18.113  0.00  0.00    +0.000 A 
ATOM     16  C   UNL     1       4.142   5.760  16.996  0.00  0.00    +0.000 A 
BRANCH  11  20
ATOM     17  C   UNL     1       7.476   4.997  13.896  0.00  0.00    +0.000 C 
ATOM     18  C   UNL     1       6.899   4.805  15.273  0.00  0.00    +0.000 C 
ATOM     19  O   UNL     1       7.640   4.695  16.244  0.00  0.00    +0.000 OA
ATOM     20  N   UNL     1       5.514   4.751  15.276  0.00  0.00    +0.000 N 
ATOM     21  H   UNL     1       5.053   4.693  14.377  0.00  0.00    +0.000 HD
ENDBRANCH  11  20
BRANCH  13  22
ATOM     22  C   UNL     1       3.315   1.860  18.660  0.00  0.00    +0.000 C 
BRANCH  22  23
ATOM     23  O   UNL     1       1.932   1.546  18.748  0.00  0.00    +0.000 OA
ATOM     24  H   UNL     1       1.512   2.257  19.264  0.00  0.00    +0.000 HD
ENDBRANCH  22  23
ENDBRANCH  13  22
ENDBRANCH   7  15
ENDBRANCH   1   8
BRANCH   4  25
ATOM     25  N   UNL     1      -0.373  12.002  20.889  0.00  0.00    +0.000 N 
ATOM     26  C   UNL     1       0.240  13.127  21.425  0.00  0.00    +0.000 C 
ATOM     27  O   UNL     1       1.448  13.298  21.569  0.00  0.00    +0.000 OA
ATOM     28  H   UNL     1      -1.348  12.087  20.623  0.00  0.00    +0.000 HD
BRANCH  26  29
ATOM     29  C   UNL     1      -0.743  14.183  21.886  0.00  0.00    +0.000 C 
BRANCH  29  30
ATOM     30  C   UNL     1      -1.212  13.824  23.292  0.00  0.00    +0.000 C 
BRANCH  30  31
ATOM     31  C   UNL     1      -2.490  12.989  23.346  0.00  0.00    +0.000 C 
BRANCH  31  32
ATOM     32  N   UNL     1      -3.336  13.410  24.475  0.00  0.00    +0.000 NA
ATOM     33  C   UNL     1      -4.601  12.647  24.533  0.00  0.00    +0.000 C 
ATOM     34  C   UNL     1      -5.641  13.096  23.491  0.00  0.00    +0.000 C 
ATOM     35  O   UNL     1      -5.937  14.492  23.619  0.00  0.00    +0.000 OA
ATOM     36  C   UNL     1      -4.748  15.278  23.487  0.00  0.00    +0.000 C 
ATOM     37  C   UNL     1      -3.675  14.851  24.501  0.00  0.00    +0.000 C 
ENDBRANCH  31  32
ENDBRANCH  30  31
ENDBRANCH  29  30
ENDBRANCH  26  29
ENDBRANCH   4  25
TORSDOF 10
ENDMDL
MODEL 9
REMARK VINA RESULT:      -7.3      1.996      2.368
REMARK  Name = 
REMARK  11 active torsions:
REMARK  status: ('A' for Active; 'I' for Inactive)
REMARK    1  A    between atoms: C_1  and  C_2
REMARK    2  A    between atoms: N_4  and  C_5
REMARK    3  A    between atoms: C_7  and  C_8
REMARK    4  A    between atoms: C_8  and  O_9
REMARK    5  A    between atoms: C_11  and  N_12
REMARK    6  A    between atoms: C_13  and  C_15
REMARK    7  A    between atoms: C_18  and  N_19
REMARK    8  A    between atoms: C_20  and  C_22
REMARK    9  A    between atoms: C_22  and  C_23
REMARK   10  A    between atoms: C_23  and  C_24
REMARK   11  A    between atoms: C_24  and  N_25
REMARK                            x       y       z     vdW  Elec       q    Type
REMARK                         _______ _______ _______ _____ _____    ______ ____
ROOT
ATOM      1  C   UNL     1       1.310   9.705  19.345  0.00  0.00    +0.000 A 
ATOM      2  C   UNL     1       1.699   9.578  18.011  0.00  0.00    +0.000 A 
ATOM      3  C   UNL     1       2.295   8.397  17.570  0.00  0.00    +0.000 A 
ATOM      4  C   UNL     1       2.534   7.343  18.455  0.00  0.00    +0.000 A 
ATOM      5  C   UNL     1       2.121   7.463  19.787  0.00  0.00    +0.000 A 
ATOM      6  C   UNL     1       1.528   8.645  20.240  0.00  0.00    +0.000 A 
ENDROOT
BRANCH   1   8
ATOM      7  N   UNL     1      -0.444  10.786  20.617  0.00  0.00    +0.000 N 
ATOM      8  C   UNL     1       0.697  10.961  19.847  0.00  0.00    +0.000 C 
ATOM      9  O   UNL     1       1.260  12.020  19.595  0.00  0.00    +0.000 OA
ATOM     10  H   UNL     1      -0.660   9.845  20.915  0.00  0.00    +0.000 HD
BRANCH   7  15
ATOM     11  C   UNL     1      -3.199  13.258  20.817  0.00  0.00    +0.000 A 
ATOM     12  C   UNL     1      -2.927  13.849  22.053  0.00  0.00    +0.000 A 
ATOM     13  C   UNL     1      -1.825  13.460  22.828  0.00  0.00    +0.000 A 
ATOM     14  C   UNL     1      -0.991  12.452  22.339  0.00  0.00    +0.000 A 
ATOM     15  C   UNL     1      -1.269  11.811  21.128  0.00  0.00    +0.000 A 
ATOM     16  C   UNL     1      -2.374  12.219  20.365  0.00  0.00    +0.000 A 
BRANCH  11  20
ATOM     17  C   UNL     1      -6.469  13.735  18.994  0.00  0.00    +0.000 C 
ATOM     18  C   UNL     1      -5.547  13.103  20.001  0.00  0.00    +0.000 C 
ATOM     19  O   UNL     1      -5.950  12.201  20.727  0.00  0.00    +0.000 OA
ATOM     20  N   UNL     1      -4.280  13.667  20.002  0.00  0.00    +0.000 N 
ATOM     21  H   UNL     1      -4.151  14.511  19.459  0.00  0.00    +0.000 HD
ENDBRANCH  11  20
BRANCH  13  22
ATOM     22  C   UNL     1      -1.573  14.177  24.131  0.00  0.00    +0.000 C 
BRANCH  22  23
ATOM     23  O   UNL     1      -2.711  14.860  24.634  0.00  0.00    +0.000 OA
ATOM     24  H   UNL     1      -2.414  15.747  24.906  0.00  0.00    +0.000 HD
ENDBRANCH  22  23
ENDBRANCH  13  22
ENDBRANCH   7  15
ENDBRANCH   1   8
BRANCH   4  25
ATOM     25  N   UNL     1       3.156   6.145  18.054  0.00  0.00    +0.000 N 
ATOM     26  C   UNL     1       2.660   4.863  18.248  0.00  0.00    +0.000 C 
ATOM     27  O   UNL     1       1.532   4.570  18.640  0.00  0.00    +0.000 OA
ATOM     28  H   UNL     1       4.012   6.235  17.519  0.00  0.00    +0.000 HD
BRANCH  26  29
ATOM     29  C   UNL     1       3.678   3.777  17.967  0.00  0.00    +0.000 C 
BRANCH  29  30
ATOM     30  C   UNL     1       4.688   3.756  19.109  0.00  0.00    +0.000 C 
BRANCH  30  31
ATOM     31  C   UNL     1       5.558   5.008  19.215  0.00  0.00    +0.000 C 
BRANCH  31  32
ATOM     32  N   UNL     1       6.902   4.751  18.672  0.00  0.00    +0.000 NA
ATOM     33  C   UNL     1       7.826   5.877  18.926  0.00  0.00    +0.000 C 
ATOM     34  C   UNL     1       7.600   7.083  17.996  0.00  0.00    +0.000 C 
ATOM     35  O   UNL     1       7.702   6.704  16.619  0.00  0.00    +0.000 OA
ATOM     36  C   UNL     1       6.765   5.668  16.305  0.00  0.00    +0.000 C 
ATOM     37  C   UNL     1       6.946   4.448  17.222  0.00  0.00    +0.000 C 
ENDBRANCH  31  32
ENDBRANCH  30  31
ENDBRANCH  29  30
ENDBRANCH  26  29
ENDBRANCH   4  25
TORSDOF 10
ENDMDL
