MODEL 1
REMARK VINA RESULT:      -8.2      0.000      0.000
REMARK  Name = 
REMARK  3 active torsions:
REMARK  status: ('A' for Active; 'I' for Inactive)
REMARK    1  A    between atoms: C_4  and  C_5
REMARK    2  A    between atoms: C_10  and  C_11
REMARK    3  A    between atoms: C_14  and  C_15
REMARK                            x       y       z     vdW  Elec       q    Type
REMARK                         _______ _______ _______ _____ _____    ______ ____
ROOT
ATOM      1  C   UNL     1       3.618   4.806  17.835  0.00  0.00    +0.000 A 
ATOM      2  C   UNL     1       4.483   4.096  16.965  0.00  0.00    +0.000 A 
ATOM      3  C   UNL     1       5.302   4.737  16.032  0.00  0.00    +0.000 A 
ATOM      4  C   UNL     1       5.294   6.118  15.944  0.00  0.00    +0.000 A 
ATOM      5  C   UNL     1       4.445   6.854  16.771  0.00  0.00    +0.000 A 
ATOM      6  C   UNL     1       3.594   6.228  17.714  0.00  0.00    +0.000 A 
ENDROOT
BRANCH   1  10
ATOM      7  C   UNL     1       1.216   2.676  20.747  0.00  0.00    +0.000 A 
ATOM      8  C   UNL     1       2.543   2.975  21.022  0.00  0.00    +0.000 A 
ATOM      9  C   UNL     1       3.337   3.595  20.052  0.00  0.00    +0.000 A 
ATOM     10  C   UNL     1       2.809   4.025  18.821  0.00  0.00    +0.000 A 
ATOM     11  C   UNL     1       1.467   3.681  18.561  0.00  0.00    +0.000 A 
ATOM     12  C   UNL     1       0.685   3.002  19.503  0.00  0.00    +0.000 A 
ENDBRANCH   1  10
BRANCH   6  13
ATOM     13  C   UNL     1       2.711   7.084  18.534  0.00  0.00    +0.000 A 
ATOM     14  N   UNL     1       2.410   6.907  19.809  0.00  0.00    +0.000 NA
ATOM     15  N   UNL     1       1.752   7.994  20.360  0.00  0.00    +0.000 NA
ATOM     16  C   UNL     1       1.500   8.916  19.454  0.00  0.00    +0.000 A 
ATOM     17  S   UNL     1       2.042   8.537  17.880  0.00  0.00    +0.000 S 
BRANCH  16  18
ATOM     18  C   UNL     1       0.829  10.160  19.772  0.00  0.00    +0.000 C 
ATOM     19  N   UNL     1       0.750  10.576  21.019  0.00  0.00    +0.000 NA
ATOM     20  C   UNL     1       0.040  11.885  20.946  0.00  0.00    +0.000 C 
ATOM     21  C   UNL     1       0.064  12.296  19.475  0.00  0.00    +0.000 C 
ATOM     22  N   UNL     1       0.265  11.016  18.846  0.00  0.00    +0.000 N 
ATOM     23  H   UNL     1       0.644  10.977  17.905  0.00  0.00    +0.000 HD
ENDBRANCH  16  18
ENDBRANCH   6  13
TORSDOF 3
ENDMDL
MODEL 2
REMARK VINA RESULT:      -8.1      0.238      1.047
REMARK  Name = 
REMARK  3 active torsions:
REMARK  status: ('A' for Active; 'I' for Inactive)
REMARK    1  A    between atoms: C_4  and  C_5
REMARK    2  A    between atoms: C_10  and  C_11
REMARK    3  A    between atoms: C_14  and  C_15
REMARK                            x       y       z     vdW  Elec       q    Type
REMARK                         _______ _______ _______ _____ _____    ______ ____
ROOT
ATOM      1  C   UNL     1       3.598   4.865  17.923  0.00  0.00    +0.000 A 
ATOM      2  C   UNL     1       4.480   4.102  17.116  0.00  0.00    +0.000 A 
ATOM      3  C   UNL     1       5.334   4.687  16.177  0.00  0.00    +0.000 A 
ATOM      4  C   UNL     1       5.345   6.062  16.020  0.00  0.00    +0.000 A 
ATOM      5  C   UNL     1       4.481   6.848  16.783  0.00  0.00    +0.000 A 
ATOM      6  C   UNL     1       3.594   6.278  17.730  0.00  0.00    +0.000 A 
ENDROOT
BRANCH   1  10
ATOM      7  C   UNL     1       1.209   2.636  20.771  0.00  0.00    +0.000 A 
ATOM      8  C   UNL     1       0.690   2.955  19.524  0.00  0.00    +0.000 A 
ATOM      9  C   UNL     1       1.433   3.739  18.635  0.00  0.00    +0.000 A 
ATOM     10  C   UNL     1       2.750   4.142  18.921  0.00  0.00    +0.000 A 
ATOM     11  C   UNL     1       3.237   3.827  20.205  0.00  0.00    +0.000 A 
ATOM     12  C   UNL     1       2.472   3.099  21.125  0.00  0.00    +0.000 A 
ENDBRANCH   1  10
BRANCH   6  13
ATOM     13  C   UNL     1       2.698   7.184  18.479  0.00  0.00    +0.000 A 
ATOM     14  N   UNL     1       2.370   7.084  19.756  0.00  0.00    +0.000 NA
ATOM     15  N   UNL     1       1.705   8.202  20.228  0.00  0.00    +0.000 NA
ATOM     16  C   UNL     1       1.474   9.069  19.264  0.00  0.00    +0.000 A 
ATOM     17  S   UNL     1       2.047   8.597  17.726  0.00  0.00    +0.000 S 
BRANCH  16  18
ATOM     18  C   UNL     1       0.802  10.332  19.493  0.00  0.00    +0.000 C 
ATOM     19  N   UNL     1       0.574  10.754  20.720  0.00  0.00    +0.000 NA
ATOM     20  C   UNL     1      -0.086  12.080  20.557  0.00  0.00    +0.000 C 
ATOM     21  C   UNL     1       0.138  12.487  19.103  0.00  0.00    +0.000 C 
ATOM     22  N   UNL     1       0.384  11.200  18.504  0.00  0.00    +0.000 N 
ATOM     23  H   UNL     1       0.880  11.148  17.619  0.00  0.00    +0.000 HD
ENDBRANCH  16  18
ENDBRANCH   6  13
TORSDOF 3
ENDMDL
MODEL 3
REMARK VINA RESULT:      -8.0      1.989      3.862
REMARK  Name = 
REMARK  3 active torsions:
REMARK  status: ('A' for Active; 'I' for Inactive)
REMARK    1  A    between atoms: C_4  and  C_5
REMARK    2  A    between atoms: C_10  and  C_11
REMARK    3  A    between atoms: C_14  and  C_15
REMARK                            x       y       z     vdW  Elec       q    Type
REMARK                         _______ _______ _______ _____ _____    ______ ____
ROOT
ATOM      1  C   UNL     1       3.975   4.280  18.184  0.00  0.00    +0.000 A 
ATOM      2  C   UNL     1       4.096   2.921  17.795  0.00  0.00    +0.000 A 
ATOM      3  C   UNL     1       3.003   2.052  17.751  0.00  0.00    +0.000 A 
ATOM      4  C   UNL     1       1.742   2.516  18.084  0.00  0.00    +0.000 A 
ATOM      5  C   UNL     1       1.582   3.841  18.487  0.00  0.00    +0.000 A 
ATOM      6  C   UNL     1       2.676   4.738  18.556  0.00  0.00    +0.000 A 
ENDROOT
BRANCH   1  10
ATOM      7  C   UNL     1       7.606   6.640  18.044  0.00  0.00    +0.000 A 
ATOM      8  C   UNL     1       7.320   5.865  19.160  0.00  0.00    +0.000 A 
ATOM      9  C   UNL     1       6.113   5.164  19.235  0.00  0.00    +0.000 A 
ATOM     10  C   UNL     1       5.203   5.134  18.163  0.00  0.00    +0.000 A 
ATOM     11  C   UNL     1       5.508   5.953  17.058  0.00  0.00    +0.000 A 
ATOM     12  C   UNL     1       6.685   6.709  17.005  0.00  0.00    +0.000 A 
ENDBRANCH   1  10
BRANCH   6  13
ATOM     13  C   UNL     1       2.418   6.119  19.015  0.00  0.00    +0.000 A 
ATOM     14  N   UNL     1       2.534   7.221  18.293  0.00  0.00    +0.000 NA
ATOM     15  N   UNL     1       2.004   8.333  18.923  0.00  0.00    +0.000 NA
ATOM     16  C   UNL     1       1.588   8.046  20.140  0.00  0.00    +0.000 A 
ATOM     17  S   UNL     1       1.804   6.417  20.603  0.00  0.00    +0.000 S 
BRANCH  16  18
ATOM     18  C   UNL     1       0.981   9.033  21.011  0.00  0.00    +0.000 C 
ATOM     19  N   UNL     1       0.253  10.009  20.508  0.00  0.00    +0.000 NA
ATOM     20  C   UNL     1      -0.226  10.781  21.689  0.00  0.00    +0.000 C 
ATOM     21  C   UNL     1       0.033   9.896  22.906  0.00  0.00    +0.000 C 
ATOM     22  N   UNL     1       1.063   9.032  22.389  0.00  0.00    +0.000 N 
ATOM     23  H   UNL     1       1.228   8.133  22.831  0.00  0.00    +0.000 HD
ENDBRANCH  16  18
ENDBRANCH   6  13
TORSDOF 3
ENDMDL
MODEL 4
REMARK VINA RESULT:      -8.0      3.287      6.953
REMARK  Name = 
REMARK  3 active torsions:
REMARK  status: ('A' for Active; 'I' for Inactive)
REMARK    1  A    between atoms: C_4  and  C_5
REMARK    2  A    between atoms: C_10  and  C_11
REMARK    3  A    between atoms: C_14  and  C_15
REMARK                            x       y       z     vdW  Elec       q    Type
REMARK                         _______ _______ _______ _____ _____    ______ ____
ROOT
ATOM      1  C   UNL     1       2.574   5.117  19.986  0.00  0.00    +0.000 A 
ATOM      2  C   UNL     1       1.740   4.589  21.005  0.00  0.00    +0.000 A 
ATOM      3  C   UNL     1       1.926   3.313  21.540  0.00  0.00    +0.000 A 
ATOM      4  C   UNL     1       2.964   2.519  21.082  0.00  0.00    +0.000 A 
ATOM      5  C   UNL     1       3.797   2.994  20.069  0.00  0.00    +0.000 A 
ATOM      6  C   UNL     1       3.620   4.279  19.499  0.00  0.00    +0.000 A 
ENDROOT
BRANCH   1  10
ATOM      7  C   UNL     1       1.657   9.113  18.580  0.00  0.00    +0.000 A 
ATOM      8  C   UNL     1       2.151   8.160  17.700  0.00  0.00    +0.000 A 
ATOM      9  C   UNL     1       2.517   6.895  18.170  0.00  0.00    +0.000 A 
ATOM     10  C   UNL     1       2.309   6.510  19.507  0.00  0.00    +0.000 A 
ATOM     11  C   UNL     1       1.834   7.508  20.381  0.00  0.00    +0.000 A 
ATOM     12  C   UNL     1       1.527   8.797  19.928  0.00  0.00    +0.000 A 
ENDBRANCH   1  10
BRANCH   6  13
ATOM     13  C   UNL     1       4.536   4.693  18.415  0.00  0.00    +0.000 A 
ATOM     14  N   UNL     1       5.603   5.463  18.540  0.00  0.00    +0.000 NA
ATOM     15  N   UNL     1       6.387   5.483  17.399  0.00  0.00    +0.000 NA
ATOM     16  C   UNL     1       5.833   4.797  16.421  0.00  0.00    +0.000 A 
ATOM     17  S   UNL     1       4.334   4.079  16.812  0.00  0.00    +0.000 S 
BRANCH  16  18
ATOM     18  C   UNL     1       6.455   4.650  15.120  0.00  0.00    +0.000 C 
ATOM     19  N   UNL     1       5.891   3.906  14.191  0.00  0.00    +0.000 NA
ATOM     20  C   UNL     1       6.784   4.028  13.004  0.00  0.00    +0.000 C 
ATOM     21  C   UNL     1       7.704   5.213  13.288  0.00  0.00    +0.000 C 
ATOM     22  N   UNL     1       7.623   5.272  14.725  0.00  0.00    +0.000 N 
ATOM     23  H   UNL     1       7.858   6.136  15.203  0.00  0.00    +0.000 HD
ENDBRANCH  16  18
ENDBRANCH   6  13
TORSDOF 3
ENDMDL
MODEL 5
REMARK VINA RESULT:      -7.9      1.949      3.952
REMARK  Name = 
REMARK  3 active torsions:
REMARK  status: ('A' for Active; 'I' for Inactive)
REMARK    1  A    between atoms: C_4  and  C_5
REMARK    2  A    between atoms: C_10  and  C_11
REMARK    3  A    between atoms: C_14  and  C_15
REMARK                            x       y       z     vdW  Elec       q    Type
REMARK                         _______ _______ _______ _____ _____    ______ ____
ROOT
ATOM      1  C   UNL     1       3.912   4.109  18.180  0.00  0.00    +0.000 A 
ATOM      2  C   UNL     1       3.983   2.737  17.826  0.00  0.00    +0.000 A 
ATOM      3  C   UNL     1       2.866   1.898  17.847  0.00  0.00    +0.000 A 
ATOM      4  C   UNL     1       1.631   2.406  18.211  0.00  0.00    +0.000 A 
ATOM      5  C   UNL     1       1.520   3.746  18.581  0.00  0.00    +0.000 A 
ATOM      6  C   UNL     1       2.640   4.614  18.584  0.00  0.00    +0.000 A 
ENDROOT
BRANCH   1  10
ATOM      7  C   UNL     1       7.452   6.601  17.984  0.00  0.00    +0.000 A 
ATOM      8  C   UNL     1       6.631   6.467  16.873  0.00  0.00    +0.000 A 
ATOM      9  C   UNL     1       5.532   5.604  16.915  0.00  0.00    +0.000 A 
ATOM     10  C   UNL     1       5.161   4.928  18.091  0.00  0.00    +0.000 A 
ATOM     11  C   UNL     1       6.030   5.061  19.191  0.00  0.00    +0.000 A 
ATOM     12  C   UNL     1       7.170   5.873  19.135  0.00  0.00    +0.000 A 
ENDBRANCH   1  10
BRANCH   6  13
ATOM     13  C   UNL     1       2.436   6.014  19.012  0.00  0.00    +0.000 A 
ATOM     14  N   UNL     1       2.609   7.094  18.270  0.00  0.00    +0.000 NA
ATOM     15  N   UNL     1       2.119   8.241  18.871  0.00  0.00    +0.000 NA
ATOM     16  C   UNL     1       1.675   7.997  20.087  0.00  0.00    +0.000 A 
ATOM     17  S   UNL     1       1.815   6.370  20.585  0.00  0.00    +0.000 S 
BRANCH  16  18
ATOM     18  C   UNL     1       1.099   9.026  20.929  0.00  0.00    +0.000 C 
ATOM     19  N   UNL     1       0.505  10.072  20.393  0.00  0.00    +0.000 NA
ATOM     20  C   UNL     1       0.014  10.873  21.550  0.00  0.00    +0.000 C 
ATOM     21  C   UNL     1       0.098   9.953  22.766  0.00  0.00    +0.000 C 
ATOM     22  N   UNL     1       1.079   9.002  22.310  0.00  0.00    +0.000 N 
ATOM     23  H   UNL     1       1.127   8.087  22.746  0.00  0.00    +0.000 HD
ENDBRANCH  16  18
ENDBRANCH   6  13
TORSDOF 3
ENDMDL
MODEL 6
REMARK VINA RESULT:      -7.9      1.660      3.838
REMARK  Name = 
REMARK  3 active torsions:
REMARK  status: ('A' for Active; 'I' for Inactive)
REMARK    1  A    between atoms: C_4  and  C_5
REMARK    2  A    between atoms: C_10  and  C_11
REMARK    3  A    between atoms: C_14  and  C_15
REMARK                            x       y       z     vdW  Elec       q    Type
REMARK                         _______ _______ _______ _____ _____    ______ ____
ROOT
ATOM      1  C   UNL     1       3.591   4.184  19.490  0.00  0.00    +0.000 A 
ATOM      2  C   UNL     1       3.496   2.905  20.096  0.00  0.00    +0.000 A 
ATOM      3  C   UNL     1       2.389   2.514  20.853  0.00  0.00    +0.000 A 
ATOM      4  C   UNL     1       1.327   3.387  21.022  0.00  0.00    +0.000 A 
ATOM      5  C   UNL     1       1.388   4.660  20.456  0.00  0.00    +0.000 A 
ATOM      6  C   UNL     1       2.506   5.087  19.697  0.00  0.00    +0.000 A 
ENDROOT
BRANCH   1  10
ATOM      7  C   UNL     1       7.162   4.927  17.149  0.00  0.00    +0.000 A 
ATOM      8  C   UNL     1       7.091   5.354  18.469  0.00  0.00    +0.000 A 
ATOM      9  C   UNL     1       5.911   5.181  19.198  0.00  0.00    +0.000 A 
ATOM     10  C   UNL     1       4.805   4.490  18.671  0.00  0.00    +0.000 A 
ATOM     11  C   UNL     1       4.897   4.095  17.322  0.00  0.00    +0.000 A 
ATOM     12  C   UNL     1       6.053   4.324  16.565  0.00  0.00    +0.000 A 
ENDBRANCH   1  10
BRANCH   6  13
ATOM     13  C   UNL     1       2.495   6.461  19.153  0.00  0.00    +0.000 A 
ATOM     14  N   UNL     1       2.925   6.836  17.960  0.00  0.00    +0.000 NA
ATOM     15  N   UNL     1       2.573   8.138  17.648  0.00  0.00    +0.000 NA
ATOM     16  C   UNL     1       1.968   8.729  18.658  0.00  0.00    +0.000 A 
ATOM     17  S   UNL     1       1.779   7.755  20.047  0.00  0.00    +0.000 S 
BRANCH  16  18
ATOM     18  C   UNL     1       1.487  10.095  18.588  0.00  0.00    +0.000 C 
ATOM     19  N   UNL     1       0.361  10.436  19.181  0.00  0.00    +0.000 NA
ATOM     20  C   UNL     1       0.220  11.898  18.928  0.00  0.00    +0.000 C 
ATOM     21  C   UNL     1       1.584  12.375  18.436  0.00  0.00    +0.000 C 
ATOM     22  N   UNL     1       2.142  11.136  17.960  0.00  0.00    +0.000 N 
ATOM     23  H   UNL     1       3.148  11.045  17.867  0.00  0.00    +0.000 HD
ENDBRANCH  16  18
ENDBRANCH   6  13
TORSDOF 3
ENDMDL
MODEL 7
REMARK VINA RESULT:      -7.9      3.335      6.903
REMARK  Name = 
REMARK  3 active torsions:
REMARK  status: ('A' for Active; 'I' for Inactive)
REMARK    1  A    between atoms: C_4  and  C_5
REMARK    2  A    between atoms: C_10  and  C_11
REMARK    3  A    between atoms: C_14  and  C_15
REMARK                            x       y       z     vdW  Elec       q    Type
REMARK                         _______ _______ _______ _____ _____    ______ ____
ROOT
ATOM      1  C   UNL     1       2.550   4.917  20.065  0.00  0.00    +0.000 A 
ATOM      2  C   UNL     1       1.734   4.362  21.083  0.00  0.00    +0.000 A 
ATOM      3  C   UNL     1       1.964   3.094  21.622  0.00  0.00    +0.000 A 
ATOM      4  C   UNL     1       3.031   2.337  21.169  0.00  0.00    +0.000 A 
ATOM      5  C   UNL     1       3.849   2.839  20.158  0.00  0.00    +0.000 A 
ATOM      6  C   UNL     1       3.628   4.116  19.583  0.00  0.00    +0.000 A 
ENDROOT
BRANCH   1  10
ATOM      7  C   UNL     1       1.795   8.954  18.680  0.00  0.00    +0.000 A 
ATOM      8  C   UNL     1       1.598   8.625  20.015  0.00  0.00    +0.000 A 
ATOM      9  C   UNL     1       1.770   7.306  20.444  0.00  0.00    +0.000 A 
ATOM     10  C   UNL     1       2.237   6.298  19.582  0.00  0.00    +0.000 A 
ATOM     11  C   UNL     1       2.399   6.655  18.229  0.00  0.00    +0.000 A 
ATOM     12  C   UNL     1       2.166   7.961  17.779  0.00  0.00    +0.000 A 
ENDBRANCH   1  10
BRANCH   6  13
ATOM     13  C   UNL     1       4.531   4.559  18.500  0.00  0.00    +0.000 A 
ATOM     14  N   UNL     1       5.589   5.340  18.632  0.00  0.00    +0.000 NA
ATOM     15  N   UNL     1       6.365   5.389  17.487  0.00  0.00    +0.000 NA
ATOM     16  C   UNL     1       5.813   4.714  16.500  0.00  0.00    +0.000 A 
ATOM     17  S   UNL     1       4.325   3.971  16.888  0.00  0.00    +0.000 S 
BRANCH  16  18
ATOM     18  C   UNL     1       6.428   4.597  15.193  0.00  0.00    +0.000 C 
ATOM     19  N   UNL     1       5.862   3.869  14.252  0.00  0.00    +0.000 NA
ATOM     20  C   UNL     1       6.747   4.020  13.062  0.00  0.00    +0.000 C 
ATOM     21  C   UNL     1       7.662   5.204  13.365  0.00  0.00    +0.000 C 
ATOM     22  N   UNL     1       7.590   5.233  14.803  0.00  0.00    +0.000 N 
ATOM     23  H   UNL     1       7.823   6.089  15.298  0.00  0.00    +0.000 HD
ENDBRANCH  16  18
ENDBRANCH   6  13
TORSDOF 3
ENDMDL
MODEL 8
REMARK VINA RESULT:      -7.8      1.661      3.951
REMARK  Name = 
REMARK  3 active torsions:
REMARK  status: ('A' for Active; 'I' for Inactive)
REMARK    1  A    between atoms: C_4  and  C_5
REMARK    2  A    between atoms: C_10  and  C_11
REMARK    3  A    between atoms: C_14  and  C_15
REMARK                            x       y       z     vdW  Elec       q    Type
REMARK                         _______ _______ _______ _____ _____    ______ ____
ROOT
ATOM      1  C   UNL     1       3.585   4.234  19.499  0.00  0.00    +0.000 A 
ATOM      2  C   UNL     1       3.484   2.956  20.106  0.00  0.00    +0.000 A 
ATOM      3  C   UNL     1       2.374   2.568  20.860  0.00  0.00    +0.000 A 
ATOM      4  C   UNL     1       1.314   3.444  21.024  0.00  0.00    +0.000 A 
ATOM      5  C   UNL     1       1.380   4.716  20.457  0.00  0.00    +0.000 A 
ATOM      6  C   UNL     1       2.502   5.140  19.701  0.00  0.00    +0.000 A 
ENDROOT
BRANCH   1  10
ATOM      7  C   UNL     1       7.052   5.247  17.103  0.00  0.00    +0.000 A 
ATOM      8  C   UNL     1       6.004   4.527  16.545  0.00  0.00    +0.000 A 
ATOM      9  C   UNL     1       4.922   4.136  17.339  0.00  0.00    +0.000 A 
ATOM     10  C   UNL     1       4.802   4.535  18.683  0.00  0.00    +0.000 A 
ATOM     11  C   UNL     1       5.894   5.240  19.227  0.00  0.00    +0.000 A 
ATOM     12  C   UNL     1       7.011   5.577  18.454  0.00  0.00    +0.000 A 
ENDBRANCH   1  10
BRANCH   6  13
ATOM     13  C   UNL     1       2.496   6.513  19.156  0.00  0.00    +0.000 A 
ATOM     14  N   UNL     1       2.914   6.883  17.957  0.00  0.00    +0.000 NA
ATOM     15  N   UNL     1       2.570   8.187  17.648  0.00  0.00    +0.000 NA
ATOM     16  C   UNL     1       1.984   8.786  18.665  0.00  0.00    +0.000 A 
ATOM     17  S   UNL     1       1.804   7.815  20.058  0.00  0.00    +0.000 S 
BRANCH  16  18
ATOM     18  C   UNL     1       1.515  10.155  18.600  0.00  0.00    +0.000 C 
ATOM     19  N   UNL     1       0.403  10.509  19.210  0.00  0.00    +0.000 NA
ATOM     20  C   UNL     1       0.271  11.972  18.957  0.00  0.00    +0.000 C 
ATOM     21  C   UNL     1       1.631  12.435  18.441  0.00  0.00    +0.000 C 
ATOM     22  N   UNL     1       2.169  11.188  17.958  0.00  0.00    +0.000 N 
ATOM     23  H   UNL     1       3.173  11.088  17.848  0.00  0.00    +0.000 HD
ENDBRANCH  16  18
ENDBRANCH   6  13
TORSDOF 3
ENDMDL
MODEL 9
REMARK VINA RESULT:      -7.6      1.865      3.769
REMARK  Name = 
REMARK  3 active torsions:
REMARK  status: ('A' for Active; 'I' for Inactive)
REMARK    1  A    between atoms: C_4  and  C_5
REMARK    2  A    between atoms: C_10  and  C_11
REMARK    3  A    between atoms: C_14  and  C_15
REMARK                            x       y       z     vdW  Elec       q    Type
REMARK                         _______ _______ _______ _____ _____    ______ ____
ROOT
ATOM      1  C   UNL     1       4.032   4.304  18.134  0.00  0.00    +0.000 A 
ATOM      2  C   UNL     1       4.093   2.901  17.938  0.00  0.00    +0.000 A 
ATOM      3  C   UNL     1       2.952   2.097  17.913  0.00  0.00    +0.000 A 
ATOM      4  C   UNL     1       1.702   2.671  18.070  0.00  0.00    +0.000 A 
ATOM      5  C   UNL     1       1.599   4.045  18.281  0.00  0.00    +0.000 A 
ATOM      6  C   UNL     1       2.742   4.881  18.327  0.00  0.00    +0.000 A 
ENDROOT
BRANCH   1  10
ATOM      7  C   UNL     1       7.668   6.664  18.131  0.00  0.00    +0.000 A 
ATOM      8  C   UNL     1       6.861   6.623  17.001  0.00  0.00    +0.000 A 
ATOM      9  C   UNL     1       5.730   5.801  16.978  0.00  0.00    +0.000 A 
ATOM     10  C   UNL     1       5.313   5.078  18.110  0.00  0.00    +0.000 A 
ATOM     11  C   UNL     1       6.167   5.118  19.229  0.00  0.00    +0.000 A 
ATOM     12  C   UNL     1       7.337   5.887  19.236  0.00  0.00    +0.000 A 
ENDBRANCH   1  10
BRANCH   6  13
ATOM     13  C   UNL     1       2.541   6.324  18.577  0.00  0.00    +0.000 A 
ATOM     14  N   UNL     1       2.754   7.306  17.718  0.00  0.00    +0.000 NA
ATOM     15  N   UNL     1       2.258   8.521  18.159  0.00  0.00    +0.000 NA
ATOM     16  C   UNL     1       1.770   8.428  19.379  0.00  0.00    +0.000 A 
ATOM     17  S   UNL     1       1.871   6.872  20.073  0.00  0.00    +0.000 S 
BRANCH  16  18
ATOM     18  C   UNL     1       1.179   9.556  20.071  0.00  0.00    +0.000 C 
ATOM     19  N   UNL     1       0.853   9.462  21.343  0.00  0.00    +0.000 NA
ATOM     20  C   UNL     1       0.322  10.806  21.707  0.00  0.00    +0.000 C 
ATOM     21  C   UNL     1       0.736  11.744  20.575  0.00  0.00    +0.000 C 
ATOM     22  N   UNL     1       0.942  10.796  19.510  0.00  0.00    +0.000 N 
ATOM     23  H   UNL     1       1.526  11.053  18.720  0.00  0.00    +0.000 HD
ENDBRANCH  16  18
ENDBRANCH   6  13
TORSDOF 3
ENDMDL
