MODEL 1
REMARK VINA RESULT:      -8.2      0.000      0.000
REMARK  Name = 
REMARK  13 active torsions:
REMARK  status: ('A' for Active; 'I' for Inactive)
REMARK    1  A    between atoms: C_1  and  C_2
REMARK    2  A    between atoms: C_2  and  C_3
REMARK    3  A    between atoms: C_3  and  C_4
REMARK    4  A    between atoms: C_4  and  C_5
REMARK    5  A    between atoms: C_4  and  N_14
REMARK    6  A    between atoms: N_7  and  C_8
REMARK    7  A    between atoms: C_8  and  C_9
REMARK    8  A    between atoms: N_14  and  C_15
REMARK    9  A    between atoms: C_15  and  C_16
REMARK   10  A    between atoms: C_21  and  C_23
REMARK   11  A    between atoms: C_23  and  N_24
REMARK   12  A    between atoms: N_24  and  S_25
REMARK   13  A    between atoms: S_25  and  C_28
REMARK                            x       y       z     vdW  Elec       q    Type
REMARK                         _______ _______ _______ _____ _____    ______ ____
ROOT
ATOM      1  N   UNL     1       4.763   6.131  17.181  0.00  0.00    +0.000 N 
ATOM      2  C   UNL     1       3.887   6.855  17.992  0.00  0.00    +0.000 C 
ATOM      3  O   UNL     1       3.728   6.567  19.185  0.00  0.00    +0.000 OA
ENDROOT
BRANCH   1   4
ATOM      4  C   UNL     1       5.538   5.029  17.839  0.00  0.00    +0.000 C 
BRANCH   4   5
ATOM      5  C   UNL     1       4.638   3.791  18.077  0.00  0.00    +0.000 C 
ATOM      6  O   UNL     1       3.849   3.368  17.235  0.00  0.00    +0.000 OA
ATOM      7  N   UNL     1       4.826   3.162  19.290  0.00  0.00    +0.000 N 
ATOM      8  H   UNL     1       5.536   3.504  19.931  0.00  0.00    +0.000 HD
BRANCH   7   9
ATOM      9  C   UNL     1       4.005   2.039  19.724  0.00  0.00    +0.000 C 
BRANCH   9  10
ATOM     10  C   UNL     1       2.701   2.482  20.400  0.00  0.00    +0.000 C 
ATOM     11  C   UNL     1       1.496   2.597  19.476  0.00  0.00    +0.000 C 
ATOM     12  C   UNL     1       0.665   3.649  20.168  0.00  0.00    +0.000 C 
ATOM     13  C   UNL     1       1.720   4.573  20.739  0.00  0.00    +0.000 C 
ATOM     14  O   UNL     1       2.879   3.776  21.013  0.00  0.00    +0.000 OA
ENDBRANCH   9  10
ENDBRANCH   7   9
ENDBRANCH   4   5
BRANCH   4  15
ATOM     15  C   UNL     1       6.245   5.449  19.139  0.00  0.00    +0.000 C 
BRANCH  15  17
ATOM     16  C   UNL     1       7.929   7.137  18.168  0.00  0.00    +0.000 C 
ATOM     17  C   UNL     1       7.715   5.870  18.982  0.00  0.00    +0.000 C 
ENDBRANCH  15  17
ENDBRANCH   4  15
ENDBRANCH   1   4
BRANCH   1  18
ATOM     18  C   UNL     1       5.191   6.588  15.843  0.00  0.00    +0.000 C 
BRANCH  18  19
ATOM     19  C   UNL     1       5.760   5.504  14.989  0.00  0.00    +0.000 A 
ATOM     20  C   UNL     1       5.199   4.427  14.329  0.00  0.00    +0.000 A 
ATOM     21  C   UNL     1       6.243   3.791  13.614  0.00  0.00    +0.000 A 
ATOM     22  C   UNL     1       7.367   4.546  13.838  0.00  0.00    +0.000 A 
ATOM     23  O   UNL     1       7.082   5.584  14.660  0.00  0.00    +0.000 OA
ENDBRANCH  18  19
ENDBRANCH   1  18
BRANCH   2  24
ATOM     24  C   UNL     1       3.108   8.047  17.428  0.00  0.00    +0.000 C 
BRANCH  24  25
ATOM     25  N   UNL     1       1.710   8.087  17.887  0.00  0.00    +0.000 NA
ATOM     26  H   UNL     1       1.487   7.394  18.603  0.00  0.00    +0.000 HD
BRANCH  25  27
ATOM     27  S   UNL     1       1.071   9.609  18.234  0.00  0.00    +0.000 S 
ATOM     28  O   UNL     1       2.110  10.597  18.041  0.00  0.00    +0.000 OA
ATOM     29  O   UNL     1      -0.196   9.699  17.543  0.00  0.00    +0.000 OA
BRANCH  27  30
ATOM     30  C   UNL     1       0.703   9.522  19.973  0.00  0.00    +0.000 A 
ATOM     31  C   UNL     1       1.236   8.486  20.748  0.00  0.00    +0.000 A 
ATOM     32  C   UNL     1       1.025   8.485  22.129  0.00  0.00    +0.000 A 
ATOM     33  C   UNL     1       0.306   9.522  22.720  0.00  0.00    +0.000 A 
ATOM     34  F   UNL     1       0.127   9.527  24.046  0.00  0.00    +0.000 F 
ATOM     35  C   UNL     1      -0.214  10.561  21.957  0.00  0.00    +0.000 A 
ATOM     36  C   UNL     1      -0.014  10.568  20.575  0.00  0.00    +0.000 A 
ENDBRANCH  27  30
ENDBRANCH  25  27
ENDBRANCH  24  25
ENDBRANCH   2  24
TORSDOF 12
ENDMDL
MODEL 2
REMARK VINA RESULT:      -7.9      1.099      1.171
REMARK  Name = 
REMARK  13 active torsions:
REMARK  status: ('A' for Active; 'I' for Inactive)
REMARK    1  A    between atoms: C_1  and  C_2
REMARK    2  A    between atoms: C_2  and  C_3
REMARK    3  A    between atoms: C_3  and  C_4
REMARK    4  A    between atoms: C_4  and  C_5
REMARK    5  A    between atoms: C_4  and  N_14
REMARK    6  A    between atoms: N_7  and  C_8
REMARK    7  A    between atoms: C_8  and  C_9
REMARK    8  A    between atoms: N_14  and  C_15
REMARK    9  A    between atoms: C_15  and  C_16
REMARK   10  A    between atoms: C_21  and  C_23
REMARK   11  A    between atoms: C_23  and  N_24
REMARK   12  A    between atoms: N_24  and  S_25
REMARK   13  A    between atoms: S_25  and  C_28
REMARK                            x       y       z     vdW  Elec       q    Type
REMARK                         _______ _______ _______ _____ _____    ______ ____
ROOT
ATOM      1  N   UNL     1       4.466   5.821  17.623  0.00  0.00    +0.000 N 
ATOM      2  C   UNL     1       3.462   6.311  18.461  0.00  0.00    +0.000 C 
ATOM      3  O   UNL     1       3.361   5.930  19.634  0.00  0.00    +0.000 OA
ENDROOT
BRANCH   1   4
ATOM      4  C   UNL     1       5.442   4.858  18.230  0.00  0.00    +0.000 C 
BRANCH   4   5
ATOM      5  C   UNL     1       4.719   3.582  18.728  0.00  0.00    +0.000 C 
ATOM      6  O   UNL     1       4.978   3.045  19.802  0.00  0.00    +0.000 OA
ATOM      7  N   UNL     1       3.719   3.121  17.897  0.00  0.00    +0.000 N 
ATOM      8  H   UNL     1       3.491   3.633  17.049  0.00  0.00    +0.000 HD
BRANCH   7   9
ATOM      9  C   UNL     1       2.996   1.884  18.158  0.00  0.00    +0.000 C 
BRANCH   9  10
ATOM     10  C   UNL     1       1.765   2.090  19.048  0.00  0.00    +0.000 C 
ATOM     11  C   UNL     1       1.090   3.449  18.920  0.00  0.00    +0.000 C 
ATOM     12  C   UNL     1       0.468   3.625  20.282  0.00  0.00    +0.000 C 
ATOM     13  C   UNL     1       1.487   2.973  21.192  0.00  0.00    +0.000 C 
ATOM     14  O   UNL     1       2.129   1.938  20.436  0.00  0.00    +0.000 OA
ENDBRANCH   9  10
ENDBRANCH   7   9
ENDBRANCH   4   5
BRANCH   4  15
ATOM     15  C   UNL     1       6.310   5.466  19.346  0.00  0.00    +0.000 C 
BRANCH  15  17
ATOM     16  C   UNL     1       8.285   4.546  17.976  0.00  0.00    +0.000 C 
ATOM     17  C   UNL     1       7.818   5.508  19.058  0.00  0.00    +0.000 C 
ENDBRANCH  15  17
ENDBRANCH   4  15
ENDBRANCH   1   4
BRANCH   1  18
ATOM     18  C   UNL     1       4.799   6.429  16.318  0.00  0.00    +0.000 C 
BRANCH  18  19
ATOM     19  C   UNL     1       5.524   5.509  15.392  0.00  0.00    +0.000 A 
ATOM     20  C   UNL     1       5.135   4.402  14.662  0.00  0.00    +0.000 A 
ATOM     21  C   UNL     1       6.260   3.992  13.905  0.00  0.00    +0.000 A 
ATOM     22  C   UNL     1       7.251   4.900  14.179  0.00  0.00    +0.000 A 
ATOM     23  O   UNL     1       6.812   5.823  15.069  0.00  0.00    +0.000 OA
ENDBRANCH  18  19
ENDBRANCH   1  18
BRANCH   2  24
ATOM     24  C   UNL     1       2.464   7.356  17.953  0.00  0.00    +0.000 C 
BRANCH  24  25
ATOM     25  N   UNL     1       2.647   8.676  18.578  0.00  0.00    +0.000 NA
ATOM     26  H   UNL     1       3.581   9.069  18.455  0.00  0.00    +0.000 HD
BRANCH  25  27
ATOM     27  S   UNL     1       1.425   9.810  18.322  0.00  0.00    +0.000 S 
ATOM     28  O   UNL     1       2.038  11.089  18.040  0.00  0.00    +0.000 OA
ATOM     29  O   UNL     1       0.478   9.207  17.411  0.00  0.00    +0.000 OA
BRANCH  27  30
ATOM     30  C   UNL     1       0.617   9.919  19.905  0.00  0.00    +0.000 A 
ATOM     31  C   UNL     1       0.739   8.871  20.824  0.00  0.00    +0.000 A 
ATOM     32  C   UNL     1       0.187   9.012  22.100  0.00  0.00    +0.000 A 
ATOM     33  C   UNL     1      -0.459  10.196  22.448  0.00  0.00    +0.000 A 
ATOM     34  F   UNL     1      -0.965  10.333  23.679  0.00  0.00    +0.000 F 
ATOM     35  C   UNL     1      -0.571  11.246  21.543  0.00  0.00    +0.000 A 
ATOM     36  C   UNL     1      -0.028  11.113  20.263  0.00  0.00    +0.000 A 
ENDBRANCH  27  30
ENDBRANCH  25  27
ENDBRANCH  24  25
ENDBRANCH   2  24
TORSDOF 12
ENDMDL
MODEL 3
REMARK VINA RESULT:      -7.5      2.035      2.456
REMARK  Name = 
REMARK  13 active torsions:
REMARK  status: ('A' for Active; 'I' for Inactive)
REMARK    1  A    between atoms: C_1  and  C_2
REMARK    2  A    between atoms: C_2  and  C_3
REMARK    3  A    between atoms: C_3  and  C_4
REMARK    4  A    between atoms: C_4  and  C_5
REMARK    5  A    between atoms: C_4  and  N_14
REMARK    6  A    between atoms: N_7  and  C_8
REMARK    7  A    between atoms: C_8  and  C_9
REMARK    8  A    between atoms: N_14  and  C_15
REMARK    9  A    between atoms: C_15  and  C_16
REMARK   10  A    between atoms: C_21  and  C_23
REMARK   11  A    between atoms: C_23  and  N_24
REMARK   12  A    between atoms: N_24  and  S_25
REMARK   13  A    between atoms: S_25  and  C_28
REMARK                            x       y       z     vdW  Elec       q    Type
REMARK                         _______ _______ _______ _____ _____    ______ ____
ROOT
ATOM      1  N   UNL     1       4.648   6.057  17.218  0.00  0.00    +0.000 N 
ATOM      2  C   UNL     1       3.691   6.679  18.023  0.00  0.00    +0.000 C 
ATOM      3  O   UNL     1       3.588   6.407  19.226  0.00  0.00    +0.000 OA
ENDROOT
BRANCH   1   4
ATOM      4  C   UNL     1       5.574   5.091  17.893  0.00  0.00    +0.000 C 
BRANCH   4   5
ATOM      5  C   UNL     1       4.837   3.772  18.236  0.00  0.00    +0.000 C 
ATOM      6  O   UNL     1       4.216   3.119  17.400  0.00  0.00    +0.000 OA
ATOM      7  N   UNL     1       4.973   3.355  19.543  0.00  0.00    +0.000 N 
ATOM      8  H   UNL     1       5.550   3.889  20.186  0.00  0.00    +0.000 HD
BRANCH   7   9
ATOM      9  C   UNL     1       4.275   2.188  20.067  0.00  0.00    +0.000 C 
BRANCH   9  10
ATOM     10  C   UNL     1       2.928   2.540  20.710  0.00  0.00    +0.000 C 
ATOM     11  C   UNL     1       1.710   2.338  19.818  0.00  0.00    +0.000 C 
ATOM     12  C   UNL     1       0.741   3.356  20.369  0.00  0.00    +0.000 C 
ATOM     13  C   UNL     1       1.656   4.498  20.758  0.00  0.00    +0.000 C 
ATOM     14  O   UNL     1       2.921   3.926  21.113  0.00  0.00    +0.000 OA
ENDBRANCH   9  10
ENDBRANCH   7   9
ENDBRANCH   4   5
BRANCH   4  15
ATOM     15  C   UNL     1       6.280   5.662  19.135  0.00  0.00    +0.000 C 
BRANCH  15  17
ATOM     16  C   UNL     1       8.002   7.322  18.185  0.00  0.00    +0.000 C 
ATOM     17  C   UNL     1       7.760   6.025  18.942  0.00  0.00    +0.000 C 
ENDBRANCH  15  17
ENDBRANCH   4  15
ENDBRANCH   1   4
BRANCH   1  18
ATOM     18  C   UNL     1       4.994   6.530  15.862  0.00  0.00    +0.000 C 
BRANCH  18  19
ATOM     19  C   UNL     1       5.656   5.495  15.013  0.00  0.00    +0.000 A 
ATOM     20  C   UNL     1       5.185   4.394  14.326  0.00  0.00    +0.000 A 
ATOM     21  C   UNL     1       6.289   3.835  13.635  0.00  0.00    +0.000 A 
ATOM     22  C   UNL     1       7.355   4.657  13.902  0.00  0.00    +0.000 A 
ATOM     23  O   UNL     1       6.979   5.665  14.725  0.00  0.00    +0.000 OA
ENDBRANCH  18  19
ENDBRANCH   1  18
BRANCH   2  24
ATOM     24  C   UNL     1       2.750   7.738  17.440  0.00  0.00    +0.000 C 
BRANCH  24  25
ATOM     25  N   UNL     1       2.730   8.983  18.225  0.00  0.00    +0.000 NA
ATOM     26  H   UNL     1       3.328   9.721  17.849  0.00  0.00    +0.000 HD
BRANCH  25  27
ATOM     27  S   UNL     1       1.216   9.552  18.702  0.00  0.00    +0.000 S 
ATOM     28  O   UNL     1       0.274   9.298  17.634  0.00  0.00    +0.000 OA
ATOM     29  O   UNL     1       0.988   9.063  20.043  0.00  0.00    +0.000 OA
BRANCH  27  30
ATOM     30  C   UNL     1       1.451  11.312  18.829  0.00  0.00    +0.000 A 
ATOM     31  C   UNL     1       0.742  12.042  19.789  0.00  0.00    +0.000 A 
ATOM     32  C   UNL     1       1.011  13.404  19.948  0.00  0.00    +0.000 A 
ATOM     33  C   UNL     1       1.989  14.013  19.166  0.00  0.00    +0.000 A 
ATOM     34  F   UNL     1       2.257  15.313  19.339  0.00  0.00    +0.000 F 
ATOM     35  C   UNL     1       2.706  13.289  18.220  0.00  0.00    +0.000 A 
ATOM     36  C   UNL     1       2.441  11.928  18.049  0.00  0.00    +0.000 A 
ENDBRANCH  27  30
ENDBRANCH  25  27
ENDBRANCH  24  25
ENDBRANCH   2  24
TORSDOF 12
ENDMDL
MODEL 4
REMARK VINA RESULT:      -7.5      1.060      1.448
REMARK  Name = 
REMARK  13 active torsions:
REMARK  status: ('A' for Active; 'I' for Inactive)
REMARK    1  A    between atoms: C_1  and  C_2
REMARK    2  A    between atoms: C_2  and  C_3
REMARK    3  A    between atoms: C_3  and  C_4
REMARK    4  A    between atoms: C_4  and  C_5
REMARK    5  A    between atoms: C_4  and  N_14
REMARK    6  A    between atoms: N_7  and  C_8
REMARK    7  A    between atoms: C_8  and  C_9
REMARK    8  A    between atoms: N_14  and  C_15
REMARK    9  A    between atoms: C_15  and  C_16
REMARK   10  A    between atoms: C_21  and  C_23
REMARK   11  A    between atoms: C_23  and  N_24
REMARK   12  A    between atoms: N_24  and  S_25
REMARK   13  A    between atoms: S_25  and  C_28
REMARK                            x       y       z     vdW  Elec       q    Type
REMARK                         _______ _______ _______ _____ _____    ______ ____
ROOT
ATOM      1  N   UNL     1       4.854   5.890  17.095  0.00  0.00    +0.000 N 
ATOM      2  C   UNL     1       4.044   6.544  18.026  0.00  0.00    +0.000 C 
ATOM      3  O   UNL     1       4.058   6.229  19.223  0.00  0.00    +0.000 OA
ENDROOT
BRANCH   1   4
ATOM      4  C   UNL     1       5.776   4.833  17.625  0.00  0.00    +0.000 C 
BRANCH   4   5
ATOM      5  C   UNL     1       4.980   3.735  18.374  0.00  0.00    +0.000 C 
ATOM      6  O   UNL     1       5.272   3.355  19.506  0.00  0.00    +0.000 OA
ATOM      7  N   UNL     1       3.882   3.250  17.695  0.00  0.00    +0.000 N 
ATOM      8  H   UNL     1       3.636   3.639  16.789  0.00  0.00    +0.000 HD
BRANCH   7   9
ATOM      9  C   UNL     1       3.071   2.151  18.204  0.00  0.00    +0.000 C 
BRANCH   9  10
ATOM     10  C   UNL     1       1.948   2.622  19.135  0.00  0.00    +0.000 C 
ATOM     11  C   UNL     1       1.505   4.066  18.941  0.00  0.00    +0.000 C 
ATOM     12  C   UNL     1       1.004   4.432  20.316  0.00  0.00    +0.000 C 
ATOM     13  C   UNL     1       1.951   3.673  21.221  0.00  0.00    +0.000 C 
ATOM     14  O   UNL     1       2.364   2.498  20.511  0.00  0.00    +0.000 OA
ENDBRANCH   9  10
ENDBRANCH   7   9
ENDBRANCH   4   5
BRANCH   4  15
ATOM     15  C   UNL     1       6.915   5.378  18.504  0.00  0.00    +0.000 C 
BRANCH  15  17
ATOM     16  C   UNL     1       8.327   7.504  18.837  0.00  0.00    +0.000 C 
ATOM     17  C   UNL     1       7.774   6.478  17.861  0.00  0.00    +0.000 C 
ENDBRANCH  15  17
ENDBRANCH   4  15
ENDBRANCH   1   4
BRANCH   1  18
ATOM     18  C   UNL     1       5.078   6.393  15.724  0.00  0.00    +0.000 C 
BRANCH  18  19
ATOM     19  C   UNL     1       5.721   5.399  14.815  0.00  0.00    +0.000 A 
ATOM     20  C   UNL     1       7.028   5.179  14.426  0.00  0.00    +0.000 A 
ATOM     21  C   UNL     1       7.025   4.031  13.596  0.00  0.00    +0.000 A 
ATOM     22  C   UNL     1       5.726   3.589  13.569  0.00  0.00    +0.000 A 
ATOM     23  O   UNL     1       4.935   4.404  14.308  0.00  0.00    +0.000 OA
ENDBRANCH  18  19
ENDBRANCH   1  18
BRANCH   2  24
ATOM     24  C   UNL     1       3.125   7.689  17.592  0.00  0.00    +0.000 C 
BRANCH  24  25
ATOM     25  N   UNL     1       2.121   8.037  18.611  0.00  0.00    +0.000 NA
ATOM     26  H   UNL     1       2.426   7.864  19.570  0.00  0.00    +0.000 HD
BRANCH  25  27
ATOM     27  S   UNL     1       1.346   9.524  18.432  0.00  0.00    +0.000 S 
ATOM     28  O   UNL     1       2.345  10.530  18.150  0.00  0.00    +0.000 OA
ATOM     29  O   UNL     1       0.221   9.307  17.551  0.00  0.00    +0.000 OA
BRANCH  27  30
ATOM     30  C   UNL     1       0.677   9.844  20.051  0.00  0.00    +0.000 A 
ATOM     31  C   UNL     1      -0.131  10.967  20.262  0.00  0.00    +0.000 A 
ATOM     32  C   UNL     1      -0.734  11.152  21.508  0.00  0.00    +0.000 A 
ATOM     33  C   UNL     1      -0.541  10.212  22.517  0.00  0.00    +0.000 A 
ATOM     34  F   UNL     1      -1.139  10.383  23.702  0.00  0.00    +0.000 F 
ATOM     35  C   UNL     1       0.250   9.087  22.309  0.00  0.00    +0.000 A 
ATOM     36  C   UNL     1       0.862   8.895  21.068  0.00  0.00    +0.000 A 
ENDBRANCH  27  30
ENDBRANCH  25  27
ENDBRANCH  24  25
ENDBRANCH   2  24
TORSDOF 12
ENDMDL
MODEL 5
REMARK VINA RESULT:      -7.4      2.259      2.701
REMARK  Name = 
REMARK  13 active torsions:
REMARK  status: ('A' for Active; 'I' for Inactive)
REMARK    1  A    between atoms: C_1  and  C_2
REMARK    2  A    between atoms: C_2  and  C_3
REMARK    3  A    between atoms: C_3  and  C_4
REMARK    4  A    between atoms: C_4  and  C_5
REMARK    5  A    between atoms: C_4  and  N_14
REMARK    6  A    between atoms: N_7  and  C_8
REMARK    7  A    between atoms: C_8  and  C_9
REMARK    8  A    between atoms: N_14  and  C_15
REMARK    9  A    between atoms: C_15  and  C_16
REMARK   10  A    between atoms: C_21  and  C_23
REMARK   11  A    between atoms: C_23  and  N_24
REMARK   12  A    between atoms: N_24  and  S_25
REMARK   13  A    between atoms: S_25  and  C_28
REMARK                            x       y       z     vdW  Elec       q    Type
REMARK                         _______ _______ _______ _____ _____    ______ ____
ROOT
ATOM      1  N   UNL     1       4.498   6.029  17.377  0.00  0.00    +0.000 N 
ATOM      2  C   UNL     1       3.501   6.615  18.160  0.00  0.00    +0.000 C 
ATOM      3  O   UNL     1       3.356   6.310  19.350  0.00  0.00    +0.000 OA
ENDROOT
BRANCH   1   4
ATOM      4  C   UNL     1       5.414   5.061  18.063  0.00  0.00    +0.000 C 
BRANCH   4   5
ATOM      5  C   UNL     1       4.645   3.786  18.491  0.00  0.00    +0.000 C 
ATOM      6  O   UNL     1       4.897   3.173  19.527  0.00  0.00    +0.000 OA
ATOM      7  N   UNL     1       3.617   3.418  17.650  0.00  0.00    +0.000 N 
ATOM      8  H   UNL     1       3.398   3.991  16.839  0.00  0.00    +0.000 HD
BRANCH   7   9
ATOM      9  C   UNL     1       2.846   2.197  17.844  0.00  0.00    +0.000 C 
BRANCH   9  10
ATOM     10  C   UNL     1       1.665   2.385  18.804  0.00  0.00    +0.000 C 
ATOM     11  C   UNL     1       1.181   3.820  18.965  0.00  0.00    +0.000 C 
ATOM     12  C   UNL     1       0.603   3.805  20.359  0.00  0.00    +0.000 C 
ATOM     13  C   UNL     1       1.534   2.858  21.086  0.00  0.00    +0.000 C 
ATOM     14  O   UNL     1       2.021   1.917  20.121  0.00  0.00    +0.000 OA
ENDBRANCH   9  10
ENDBRANCH   7   9
ENDBRANCH   4   5
BRANCH   4  15
ATOM     15  C   UNL     1       6.184   5.661  19.252  0.00  0.00    +0.000 C 
BRANCH  15  17
ATOM     16  C   UNL     1       8.226   4.629  18.074  0.00  0.00    +0.000 C 
ATOM     17  C   UNL     1       7.714   5.557  19.165  0.00  0.00    +0.000 C 
ENDBRANCH  15  17
ENDBRANCH   4  15
ENDBRANCH   1   4
BRANCH   1  18
ATOM     18  C   UNL     1       4.886   6.541  16.047  0.00  0.00    +0.000 C 
BRANCH  18  19
ATOM     19  C   UNL     1       5.581   5.533  15.192  0.00  0.00    +0.000 A 
ATOM     20  C   UNL     1       5.148   4.414  14.508  0.00  0.00    +0.000 A 
ATOM     21  C   UNL     1       6.267   3.899  13.808  0.00  0.00    +0.000 A 
ATOM     22  C   UNL     1       7.303   4.763  14.066  0.00  0.00    +0.000 A 
ATOM     23  O   UNL     1       6.894   5.755  14.893  0.00  0.00    +0.000 OA
ENDBRANCH  18  19
ENDBRANCH   1  18
BRANCH   2  24
ATOM     24  C   UNL     1       2.564   7.672  17.567  0.00  0.00    +0.000 C 
BRANCH  24  25
ATOM     25  N   UNL     1       2.619   8.955  18.287  0.00  0.00    +0.000 NA
ATOM     26  H   UNL     1       3.223   9.652  17.848  0.00  0.00    +0.000 HD
BRANCH  25  27
ATOM     27  S   UNL     1       1.146   9.599  18.796  0.00  0.00    +0.000 S 
ATOM     28  O   UNL     1       0.156   9.345  17.773  0.00  0.00    +0.000 OA
ATOM     29  O   UNL     1       0.950   9.168  20.162  0.00  0.00    +0.000 OA
BRANCH  27  30
ATOM     30  C   UNL     1       1.452  11.352  18.850  0.00  0.00    +0.000 A 
ATOM     31  C   UNL     1       0.786  12.148  19.788  0.00  0.00    +0.000 A 
ATOM     32  C   UNL     1       1.110  13.504  19.890  0.00  0.00    +0.000 A 
ATOM     33  C   UNL     1       2.102  14.041  19.072  0.00  0.00    +0.000 A 
ATOM     34  F   UNL     1       2.423  15.335  19.190  0.00  0.00    +0.000 F 
ATOM     35  C   UNL     1       2.776  13.252  18.147  0.00  0.00    +0.000 A 
ATOM     36  C   UNL     1       2.456  11.897  18.034  0.00  0.00    +0.000 A 
ENDBRANCH  27  30
ENDBRANCH  25  27
ENDBRANCH  24  25
ENDBRANCH   2  24
TORSDOF 12
ENDMDL
MODEL 6
REMARK VINA RESULT:      -7.1      2.480      5.570
REMARK  Name = 
REMARK  13 active torsions:
REMARK  status: ('A' for Active; 'I' for Inactive)
REMARK    1  A    between atoms: C_1  and  C_2
REMARK    2  A    between atoms: C_2  and  C_3
REMARK    3  A    between atoms: C_3  and  C_4
REMARK    4  A    between atoms: C_4  and  C_5
REMARK    5  A    between atoms: C_4  and  N_14
REMARK    6  A    between atoms: N_7  and  C_8
REMARK    7  A    between atoms: C_8  and  C_9
REMARK    8  A    between atoms: N_14  and  C_15
REMARK    9  A    between atoms: C_15  and  C_16
REMARK   10  A    between atoms: C_21  and  C_23
REMARK   11  A    between atoms: C_23  and  N_24
REMARK   12  A    between atoms: N_24  and  S_25
REMARK   13  A    between atoms: S_25  and  C_28
REMARK                            x       y       z     vdW  Elec       q    Type
REMARK                         _______ _______ _______ _____ _____    ______ ____
ROOT
ATOM      1  N   UNL     1       3.280   6.001  18.090  0.00  0.00    +0.000 N 
ATOM      2  C   UNL     1       3.030   7.369  17.962  0.00  0.00    +0.000 C 
ATOM      3  O   UNL     1       3.948   8.175  17.766  0.00  0.00    +0.000 OA
ENDROOT
BRANCH   1   4
ATOM      4  C   UNL     1       4.702   5.556  17.922  0.00  0.00    +0.000 C 
BRANCH   4   5
ATOM      5  C   UNL     1       4.798   4.404  16.891  0.00  0.00    +0.000 C 
ATOM      6  O   UNL     1       4.700   3.219  17.205  0.00  0.00    +0.000 OA
ATOM      7  N   UNL     1       4.951   4.808  15.582  0.00  0.00    +0.000 N 
ATOM      8  H   UNL     1       4.961   5.799  15.358  0.00  0.00    +0.000 HD
BRANCH   7   9
ATOM      9  C   UNL     1       5.152   3.864  14.491  0.00  0.00    +0.000 C 
BRANCH   9  10
ATOM     10  C   UNL     1       6.555   3.951  13.880  0.00  0.00    +0.000 C 
ATOM     11  C   UNL     1       7.259   5.290  14.055  0.00  0.00    +0.000 C 
ATOM     12  C   UNL     1       8.169   5.330  12.852  0.00  0.00    +0.000 C 
ATOM     13  C   UNL     1       7.337   4.643  11.791  0.00  0.00    +0.000 C 
ATOM     14  O   UNL     1       6.491   3.699  12.460  0.00  0.00    +0.000 OA
ENDBRANCH   9  10
ENDBRANCH   7   9
ENDBRANCH   4   5
BRANCH   4  15
ATOM     15  C   UNL     1       5.397   5.171  19.240  0.00  0.00    +0.000 C 
BRANCH  15  17
ATOM     16  C   UNL     1       7.395   6.418  18.201  0.00  0.00    +0.000 C 
ATOM     17  C   UNL     1       6.891   5.522  19.321  0.00  0.00    +0.000 C 
ENDBRANCH  15  17
ENDBRANCH   4  15
ENDBRANCH   1   4
BRANCH   1  18
ATOM     18  C   UNL     1       2.215   4.978  18.054  0.00  0.00    +0.000 C 
BRANCH  18  19
ATOM     19  C   UNL     1       2.083   4.201  19.323  0.00  0.00    +0.000 A 
ATOM     20  C   UNL     1       1.978   2.852  19.599  0.00  0.00    +0.000 A 
ATOM     21  C   UNL     1       1.957   2.719  21.009  0.00  0.00    +0.000 A 
ATOM     22  C   UNL     1       2.101   3.989  21.509  0.00  0.00    +0.000 A 
ATOM     23  O   UNL     1       2.186   4.887  20.498  0.00  0.00    +0.000 OA
ENDBRANCH  18  19
ENDBRANCH   1  18
BRANCH   2  24
ATOM     24  C   UNL     1       1.600   7.911  18.042  0.00  0.00    +0.000 C 
BRANCH  24  25
ATOM     25  N   UNL     1       1.528   9.370  17.861  0.00  0.00    +0.000 NA
ATOM     26  H   UNL     1       1.167   9.659  16.951  0.00  0.00    +0.000 HD
BRANCH  25  27
ATOM     27  S   UNL     1       0.867  10.258  19.134  0.00  0.00    +0.000 S 
ATOM     28  O   UNL     1       0.831   9.417  20.310  0.00  0.00    +0.000 OA
ATOM     29  O   UNL     1       1.535  11.541  19.141  0.00  0.00    +0.000 OA
BRANCH  27  30
ATOM     30  C   UNL     1      -0.809  10.554  18.612  0.00  0.00    +0.000 A 
ATOM     31  C   UNL     1      -1.584  11.516  19.269  0.00  0.00    +0.000 A 
ATOM     32  C   UNL     1      -2.861  11.813  18.786  0.00  0.00    +0.000 A 
ATOM     33  C   UNL     1      -3.339  11.165  17.649  0.00  0.00    +0.000 A 
ATOM     34  F   UNL     1      -4.554  11.469  17.178  0.00  0.00    +0.000 F 
ATOM     35  C   UNL     1      -2.568  10.217  16.985  0.00  0.00    +0.000 A 
ATOM     36  C   UNL     1      -1.292   9.910  17.463  0.00  0.00    +0.000 A 
ENDBRANCH  27  30
ENDBRANCH  25  27
ENDBRANCH  24  25
ENDBRANCH   2  24
TORSDOF 12
ENDMDL
MODEL 7
REMARK VINA RESULT:      -7.1      0.988      1.393
REMARK  Name = 
REMARK  13 active torsions:
REMARK  status: ('A' for Active; 'I' for Inactive)
REMARK    1  A    between atoms: C_1  and  C_2
REMARK    2  A    between atoms: C_2  and  C_3
REMARK    3  A    between atoms: C_3  and  C_4
REMARK    4  A    between atoms: C_4  and  C_5
REMARK    5  A    between atoms: C_4  and  N_14
REMARK    6  A    between atoms: N_7  and  C_8
REMARK    7  A    between atoms: C_8  and  C_9
REMARK    8  A    between atoms: N_14  and  C_15
REMARK    9  A    between atoms: C_15  and  C_16
REMARK   10  A    between atoms: C_21  and  C_23
REMARK   11  A    between atoms: C_23  and  N_24
REMARK   12  A    between atoms: N_24  and  S_25
REMARK   13  A    between atoms: S_25  and  C_28
REMARK                            x       y       z     vdW  Elec       q    Type
REMARK                         _______ _______ _______ _____ _____    ______ ____
ROOT
ATOM      1  N   UNL     1       4.425   5.931  17.195  0.00  0.00    +0.000 N 
ATOM      2  C   UNL     1       3.480   6.564  18.007  0.00  0.00    +0.000 C 
ATOM      3  O   UNL     1       3.136   6.078  19.091  0.00  0.00    +0.000 OA
ENDROOT
BRANCH   1   4
ATOM      4  C   UNL     1       5.037   4.671  17.728  0.00  0.00    +0.000 C 
BRANCH   4   5
ATOM      5  C   UNL     1       4.021   3.503  17.679  0.00  0.00    +0.000 C 
ATOM      6  O   UNL     1       3.159   3.406  16.808  0.00  0.00    +0.000 OA
ATOM      7  N   UNL     1       4.189   2.547  18.658  0.00  0.00    +0.000 N 
ATOM      8  H   UNL     1       4.956   2.630  19.319  0.00  0.00    +0.000 HD
BRANCH   7   9
ATOM      9  C   UNL     1       3.271   1.427  18.823  0.00  0.00    +0.000 C 
BRANCH   9  10
ATOM     10  C   UNL     1       2.092   1.756  19.746  0.00  0.00    +0.000 C 
ATOM     11  C   UNL     1       0.985   2.591  19.117  0.00  0.00    +0.000 C 
ATOM     12  C   UNL     1       0.412   3.312  20.311  0.00  0.00    +0.000 C 
ATOM     13  C   UNL     1       1.639   3.555  21.164  0.00  0.00    +0.000 C 
ATOM     14  O   UNL     1       2.558   2.487  20.899  0.00  0.00    +0.000 OA
ENDBRANCH   9  10
ENDBRANCH   7   9
ENDBRANCH   4   5
BRANCH   4  15
ATOM     15  C   UNL     1       5.639   4.813  19.137  0.00  0.00    +0.000 C 
BRANCH  15  17
ATOM     16  C   UNL     1       8.082   5.118  18.385  0.00  0.00    +0.000 C 
ATOM     17  C   UNL     1       6.927   5.648  19.220  0.00  0.00    +0.000 C 
ENDBRANCH  15  17
ENDBRANCH   4  15
ENDBRANCH   1   4
BRANCH   1  18
ATOM     18  C   UNL     1       5.066   6.589  16.038  0.00  0.00    +0.000 C 
BRANCH  18  19
ATOM     19  C   UNL     1       5.752   5.641  15.111  0.00  0.00    +0.000 A 
ATOM     20  C   UNL     1       7.081   5.381  14.836  0.00  0.00    +0.000 A 
ATOM     21  C   UNL     1       7.110   4.310  13.910  0.00  0.00    +0.000 A 
ATOM     22  C   UNL     1       5.802   3.946  13.713  0.00  0.00    +0.000 A 
ATOM     23  O   UNL     1       4.978   4.739  14.440  0.00  0.00    +0.000 OA
ENDBRANCH  18  19
ENDBRANCH   1  18
BRANCH   2  24
ATOM     24  C   UNL     1       2.855   7.896  17.582  0.00  0.00    +0.000 C 
BRANCH  24  25
ATOM     25  N   UNL     1       2.532   8.768  18.724  0.00  0.00    +0.000 NA
ATOM     26  H   UNL     1       3.350   9.110  19.230  0.00  0.00    +0.000 HD
BRANCH  25  27
ATOM     27  S   UNL     1       1.383   9.973  18.453  0.00  0.00    +0.000 S 
ATOM     28  O   UNL     1       2.075  11.196  18.113  0.00  0.00    +0.000 OA
ATOM     29  O   UNL     1       0.377   9.405  17.584  0.00  0.00    +0.000 OA
BRANCH  27  30
ATOM     30  C   UNL     1       0.622  10.190  20.048  0.00  0.00    +0.000 A 
ATOM     31  C   UNL     1      -0.242  11.269  20.267  0.00  0.00    +0.000 A 
ATOM     32  C   UNL     1      -0.913  11.372  21.488  0.00  0.00    +0.000 A 
ATOM     33  C   UNL     1      -0.731  10.394  22.463  0.00  0.00    +0.000 A 
ATOM     34  F   UNL     1      -1.394  10.486  23.622  0.00  0.00    +0.000 F 
ATOM     35  C   UNL     1       0.116   9.313  22.245  0.00  0.00    +0.000 A 
ATOM     36  C   UNL     1       0.796   9.204  21.031  0.00  0.00    +0.000 A 
ENDBRANCH  27  30
ENDBRANCH  25  27
ENDBRANCH  24  25
ENDBRANCH   2  24
TORSDOF 12
ENDMDL
MODEL 8
REMARK VINA RESULT:      -7.1      3.548      7.553
REMARK  Name = 
REMARK  13 active torsions:
REMARK  status: ('A' for Active; 'I' for Inactive)
REMARK    1  A    between atoms: C_1  and  C_2
REMARK    2  A    between atoms: C_2  and  C_3
REMARK    3  A    between atoms: C_3  and  C_4
REMARK    4  A    between atoms: C_4  and  C_5
REMARK    5  A    between atoms: C_4  and  N_14
REMARK    6  A    between atoms: N_7  and  C_8
REMARK    7  A    between atoms: C_8  and  C_9
REMARK    8  A    between atoms: N_14  and  C_15
REMARK    9  A    between atoms: C_15  and  C_16
REMARK   10  A    between atoms: C_21  and  C_23
REMARK   11  A    between atoms: C_23  and  N_24
REMARK   12  A    between atoms: N_24  and  S_25
REMARK   13  A    between atoms: S_25  and  C_28
REMARK                            x       y       z     vdW  Elec       q    Type
REMARK                         _______ _______ _______ _____ _____    ______ ____
ROOT
ATOM      1  N   UNL     1       2.573   7.090  19.021  0.00  0.00    +0.000 N 
ATOM      2  C   UNL     1       3.762   6.452  18.659  0.00  0.00    +0.000 C 
ATOM      3  O   UNL     1       4.421   5.805  19.483  0.00  0.00    +0.000 OA
ENDROOT
BRANCH   1   4
ATOM      4  C   UNL     1       2.111   6.904  20.435  0.00  0.00    +0.000 C 
BRANCH   4   5
ATOM      5  C   UNL     1       1.630   5.450  20.670  0.00  0.00    +0.000 C 
ATOM      6  O   UNL     1       0.544   5.035  20.271  0.00  0.00    +0.000 OA
ATOM      7  N   UNL     1       2.537   4.637  21.315  0.00  0.00    +0.000 N 
ATOM      8  H   UNL     1       3.451   5.001  21.569  0.00  0.00    +0.000 HD
BRANCH   7   9
ATOM      9  C   UNL     1       2.221   3.268  21.702  0.00  0.00    +0.000 C 
BRANCH   9  10
ATOM     10  C   UNL     1       2.583   2.245  20.619  0.00  0.00    +0.000 C 
ATOM     11  C   UNL     1       3.872   2.530  19.860  0.00  0.00    +0.000 C 
ATOM     12  C   UNL     1       3.606   1.878  18.526  0.00  0.00    +0.000 C 
ATOM     13  C   UNL     1       2.125   2.127  18.332  0.00  0.00    +0.000 C 
ATOM     14  O   UNL     1       1.530   2.176  19.635  0.00  0.00    +0.000 OA
ENDBRANCH   9  10
ENDBRANCH   7   9
ENDBRANCH   4   5
BRANCH   4  15
ATOM     15  C   UNL     1       1.038   7.914  20.881  0.00  0.00    +0.000 C 
BRANCH  15  17
ATOM     16  C   UNL     1       0.279   9.533  22.733  0.00  0.00    +0.000 C 
ATOM     17  C   UNL     1       1.441   8.827  22.049  0.00  0.00    +0.000 C 
ENDBRANCH  15  17
ENDBRANCH   4  15
ENDBRANCH   1   4
BRANCH   1  18
ATOM     18  C   UNL     1       1.619   7.640  18.036  0.00  0.00    +0.000 C 
BRANCH  18  19
ATOM     19  C   UNL     1       1.464   9.123  18.112  0.00  0.00    +0.000 A 
ATOM     20  C   UNL     1       0.397   9.948  18.408  0.00  0.00    +0.000 A 
ATOM     21  C   UNL     1       0.886  11.278  18.393  0.00  0.00    +0.000 A 
ATOM     22  C   UNL     1       2.231  11.181  18.138  0.00  0.00    +0.000 A 
ATOM     23  O   UNL     1       2.588   9.885  17.976  0.00  0.00    +0.000 OA
ENDBRANCH  18  19
ENDBRANCH   1  18
BRANCH   2  24
ATOM     24  C   UNL     1       4.276   6.520  17.218  0.00  0.00    +0.000 C 
BRANCH  24  25
ATOM     25  N   UNL     1       4.991   5.301  16.805  0.00  0.00    +0.000 NA
ATOM     26  H   UNL     1       4.521   4.774  16.067  0.00  0.00    +0.000 HD
BRANCH  25  27
ATOM     27  S   UNL     1       6.650   5.449  16.544  0.00  0.00    +0.000 S 
ATOM     28  O   UNL     1       6.999   6.851  16.594  0.00  0.00    +0.000 OA
ATOM     29  O   UNL     1       7.297   4.478  17.398  0.00  0.00    +0.000 OA
BRANCH  27  30
ATOM     30  C   UNL     1       6.862   4.883  14.870  0.00  0.00    +0.000 A 
ATOM     31  C   UNL     1       6.013   3.898  14.354  0.00  0.00    +0.000 A 
ATOM     32  C   UNL     1       6.122   3.536  13.009  0.00  0.00    +0.000 A 
ATOM     33  C   UNL     1       7.058   4.169  12.195  0.00  0.00    +0.000 A 
ATOM     34  F   UNL     1       7.143   3.834  10.902  0.00  0.00    +0.000 F 
ATOM     35  C   UNL     1       7.895   5.159  12.699  0.00  0.00    +0.000 A 
ATOM     36  C   UNL     1       7.798   5.524  14.044  0.00  0.00    +0.000 A 
ENDBRANCH  27  30
ENDBRANCH  25  27
ENDBRANCH  24  25
ENDBRANCH   2  24
TORSDOF 12
ENDMDL
MODEL 9
REMARK VINA RESULT:      -7.0      1.627      4.796
REMARK  Name = 
REMARK  13 active torsions:
REMARK  status: ('A' for Active; 'I' for Inactive)
REMARK    1  A    between atoms: C_1  and  C_2
REMARK    2  A    between atoms: C_2  and  C_3
REMARK    3  A    between atoms: C_3  and  C_4
REMARK    4  A    between atoms: C_4  and  C_5
REMARK    5  A    between atoms: C_4  and  N_14
REMARK    6  A    between atoms: N_7  and  C_8
REMARK    7  A    between atoms: C_8  and  C_9
REMARK    8  A    between atoms: N_14  and  C_15
REMARK    9  A    between atoms: C_15  and  C_16
REMARK   10  A    between atoms: C_21  and  C_23
REMARK   11  A    between atoms: C_23  and  N_24
REMARK   12  A    between atoms: N_24  and  S_25
REMARK   13  A    between atoms: S_25  and  C_28
REMARK                            x       y       z     vdW  Elec       q    Type
REMARK                         _______ _______ _______ _____ _____    ______ ____
ROOT
ATOM      1  N   UNL     1       3.831   6.020  19.096  0.00  0.00    +0.000 N 
ATOM      2  C   UNL     1       3.058   7.039  18.535  0.00  0.00    +0.000 C 
ATOM      3  O   UNL     1       3.443   7.664  17.539  0.00  0.00    +0.000 OA
ENDROOT
BRANCH   1   4
ATOM      4  C   UNL     1       5.116   5.686  18.399  0.00  0.00    +0.000 C 
BRANCH   4   5
ATOM      5  C   UNL     1       4.849   4.840  17.129  0.00  0.00    +0.000 C 
ATOM      6  O   UNL     1       3.717   4.614  16.705  0.00  0.00    +0.000 OA
ATOM      7  N   UNL     1       5.981   4.403  16.475  0.00  0.00    +0.000 N 
ATOM      8  H   UNL     1       6.898   4.668  16.821  0.00  0.00    +0.000 HD
BRANCH   7   9
ATOM      9  C   UNL     1       5.922   3.520  15.318  0.00  0.00    +0.000 C 
BRANCH   9  10
ATOM     10  C   UNL     1       6.069   4.270  13.989  0.00  0.00    +0.000 C 
ATOM     11  C   UNL     1       6.389   3.398  12.782  0.00  0.00    +0.000 C 
ATOM     12  C   UNL     1       7.137   4.356  11.888  0.00  0.00    +0.000 C 
ATOM     13  C   UNL     1       7.905   5.198  12.884  0.00  0.00    +0.000 C 
ATOM     14  O   UNL     1       7.128   5.245  14.088  0.00  0.00    +0.000 OA
ENDBRANCH   9  10
ENDBRANCH   7   9
ENDBRANCH   4   5
BRANCH   4  15
ATOM     15  C   UNL     1       6.159   5.003  19.302  0.00  0.00    +0.000 C 
BRANCH  15  17
ATOM     16  C   UNL     1       7.825   6.711  18.335  0.00  0.00    +0.000 C 
ATOM     17  C   UNL     1       7.478   5.771  19.480  0.00  0.00    +0.000 C 
ENDBRANCH  15  17
ENDBRANCH   4  15
ENDBRANCH   1   4
BRANCH   1  18
ATOM     18  C   UNL     1       3.311   5.072  20.103  0.00  0.00    +0.000 C 
BRANCH  18  19
ATOM     19  C   UNL     1       2.582   3.909  19.517  0.00  0.00    +0.000 A 
ATOM     20  C   UNL     1       1.332   3.767  18.946  0.00  0.00    +0.000 A 
ATOM     21  C   UNL     1       1.231   2.425  18.502  0.00  0.00    +0.000 A 
ATOM     22  C   UNL     1       2.442   1.844  18.782  0.00  0.00    +0.000 A 
ATOM     23  O   UNL     1       3.264   2.734  19.386  0.00  0.00    +0.000 OA
ENDBRANCH  18  19
ENDBRANCH   1  18
BRANCH   2  24
ATOM     24  C   UNL     1       1.694   7.401  19.131  0.00  0.00    +0.000 C 
BRANCH  24  25
ATOM     25  N   UNL     1       1.716   8.662  19.890  0.00  0.00    +0.000 NA
ATOM     26  H   UNL     1       2.623   8.881  20.307  0.00  0.00    +0.000 HD
BRANCH  25  27
ATOM     27  S   UNL     1       0.999  10.000  19.154  0.00  0.00    +0.000 S 
ATOM     28  O   UNL     1       2.028  10.755  18.474  0.00  0.00    +0.000 OA
ATOM     29  O   UNL     1      -0.171   9.516  18.457  0.00  0.00    +0.000 OA
BRANCH  27  30
ATOM     30  C   UNL     1       0.415  10.970  20.528  0.00  0.00    +0.000 A 
ATOM     31  C   UNL     1       0.529  12.364  20.496  0.00  0.00    +0.000 A 
ATOM     32  C   UNL     1      -0.025  13.120  21.531  0.00  0.00    +0.000 A 
ATOM     33  C   UNL     1      -0.699  12.483  22.571  0.00  0.00    +0.000 A 
ATOM     34  F   UNL     1      -1.247  13.214  23.549  0.00  0.00    +0.000 F 
ATOM     35  C   UNL     1      -0.827  11.098  22.601  0.00  0.00    +0.000 A 
ATOM     36  C   UNL     1      -0.271  10.333  21.574  0.00  0.00    +0.000 A 
ENDBRANCH  27  30
ENDBRANCH  25  27
ENDBRANCH  24  25
ENDBRANCH   2  24
TORSDOF 12
ENDMDL
