MODEL 1
REMARK VINA RESULT:      -6.4      0.000      0.000
REMARK  Name = 
REMARK  4 active torsions:
REMARK  status: ('A' for Active; 'I' for Inactive)
REMARK    1  A    between atoms: C_1  and  C_2
REMARK    2  A    between atoms: C_10  and  C_12
REMARK    3  A    between atoms: C_17  and  C_18
REMARK    4  A    between atoms: N_21  and  C_22
REMARK                            x       y       z     vdW  Elec       q    Type
REMARK                         _______ _______ _______ _____ _____    ______ ____
ROOT
ATOM      1  C   UNL     1       0.378  11.034  19.537  0.00  0.00    +0.000 C 
ATOM      2  C   UNL     1      -0.222  11.355  20.869  0.00  0.00    +0.000 A 
ATOM      3  N   UNL     1      -0.311  12.661  21.207  0.00  0.00    +0.000 NA
ATOM      4  C   UNL     1      -0.778  12.976  22.431  0.00  0.00    +0.000 A 
ATOM      5  N   UNL     1      -0.797  14.297  22.782  0.00  0.00    +0.000 N 
ATOM      6  C   UNL     1      -0.957  15.308  21.750  0.00  0.00    +0.000 C 
ATOM      7  C   UNL     1      -1.703  16.468  22.430  0.00  0.00    +0.000 C 
ATOM      8  C   UNL     1      -3.036  16.800  21.759  0.00  0.00    +0.000 C 
ATOM      9  N   UNL     1      -3.991  15.880  22.354  0.00  0.00    +0.000 N 
ATOM     10  C   UNL     1      -5.153  15.500  21.678  0.00  0.00    +0.000 C 
ATOM     11  O   UNL     1      -5.476  16.033  20.618  0.00  0.00    +0.000 OA
ATOM     12  C   UNL     1      -3.547  15.503  23.686  0.00  0.00    +0.000 C 
ATOM     13  C   UNL     1      -2.094  15.941  23.816  0.00  0.00    +0.000 C 
ATOM     14  C   UNL     1      -1.180  14.755  24.095  0.00  0.00    +0.000 C 
ATOM     15  N   UNL     1      -1.173  12.048  23.321  0.00  0.00    +0.000 NA
ATOM     16  C   UNL     1      -1.102  10.754  22.939  0.00  0.00    +0.000 A 
ATOM     17  C   UNL     1      -0.621  10.352  21.720  0.00  0.00    +0.000 A 
ATOM     18  F   UNL     1      -0.525   9.057  21.397  0.00  0.00    +0.000 F 
ENDROOT
BRANCH  10  19
ATOM     19  C   UNL     1      -6.040  14.438  22.263  0.00  0.00    +0.000 A 
ATOM     20  C   UNL     1      -6.923  14.776  23.308  0.00  0.00    +0.000 A 
ATOM     21  C   UNL     1      -7.731  13.821  23.931  0.00  0.00    +0.000 A 
ATOM     22  C   UNL     1      -7.752  12.523  23.450  0.00  0.00    +0.000 A 
ATOM     23  C   UNL     1      -6.962  12.188  22.354  0.00  0.00    +0.000 A 
ATOM     24  C   UNL     1      -6.085  13.125  21.758  0.00  0.00    +0.000 A 
BRANCH  24  25
ATOM     25  C   UNL     1      -5.280  12.630  20.649  0.00  0.00    +0.000 A 
ATOM     26  N   UNL     1      -3.896  12.670  20.703  0.00  0.00    +0.000 NA
ATOM     27  C   UNL     1      -3.531  12.251  19.510  0.00  0.00    +0.000 A 
ATOM     28  N   UNL     1      -4.636  11.997  18.772  0.00  0.00    +0.000 N 
ATOM     29  C   UNL     1      -4.697  11.517  17.418  0.00  0.00    +0.000 C 
ATOM     30  N   UNL     1      -5.764  12.293  19.441  0.00  0.00    +0.000 NA
ENDBRANCH  24  25
ENDBRANCH  10  19
TORSDOF 2
ENDMDL
MODEL 2
REMARK VINA RESULT:      -6.4      8.836     11.541
REMARK  Name = 
REMARK  4 active torsions:
REMARK  status: ('A' for Active; 'I' for Inactive)
REMARK    1  A    between atoms: C_1  and  C_2
REMARK    2  A    between atoms: C_10  and  C_12
REMARK    3  A    between atoms: C_17  and  C_18
REMARK    4  A    between atoms: N_21  and  C_22
REMARK                            x       y       z     vdW  Elec       q    Type
REMARK                         _______ _______ _______ _____ _____    ______ ____
ROOT
ATOM      1  C   UNL     1      12.332  13.457  18.964  0.00  0.00    +0.000 C 
ATOM      2  C   UNL     1      11.099  12.711  19.363  0.00  0.00    +0.000 A 
ATOM      3  N   UNL     1      10.610  12.943  20.602  0.00  0.00    +0.000 NA
ATOM      4  C   UNL     1       9.546  12.230  21.016  0.00  0.00    +0.000 A 
ATOM      5  N   UNL     1       9.106  12.428  22.295  0.00  0.00    +0.000 N 
ATOM      6  C   UNL     1       9.297  13.726  22.923  0.00  0.00    +0.000 C 
ATOM      7  C   UNL     1       8.110  13.890  23.885  0.00  0.00    +0.000 C 
ATOM      8  C   UNL     1       7.255  15.120  23.579  0.00  0.00    +0.000 C 
ATOM      9  N   UNL     1       6.322  14.680  22.556  0.00  0.00    +0.000 N 
ATOM     10  C   UNL     1       5.747  15.583  21.658  0.00  0.00    +0.000 C 
ATOM     11  O   UNL     1       5.904  16.795  21.787  0.00  0.00    +0.000 OA
ATOM     12  C   UNL     1       6.103  13.248  22.672  0.00  0.00    +0.000 C 
ATOM     13  C   UNL     1       7.185  12.701  23.595  0.00  0.00    +0.000 C 
ATOM     14  C   UNL     1       8.042  11.658  22.888  0.00  0.00    +0.000 C 
ATOM     15  N   UNL     1       8.941  11.310  20.244  0.00  0.00    +0.000 NA
ATOM     16  C   UNL     1       9.434  11.125  19.000  0.00  0.00    +0.000 A 
ATOM     17  C   UNL     1      10.524  11.797  18.513  0.00  0.00    +0.000 A 
ATOM     18  F   UNL     1      11.009  11.553  17.289  0.00  0.00    +0.000 F 
ENDROOT
BRANCH  10  19
ATOM     19  C   UNL     1       4.904  15.070  20.525  0.00  0.00    +0.000 A 
ATOM     20  C   UNL     1       3.570  14.690  20.776  0.00  0.00    +0.000 A 
ATOM     21  C   UNL     1       2.755  14.153  19.777  0.00  0.00    +0.000 A 
ATOM     22  C   UNL     1       3.221  14.083  18.475  0.00  0.00    +0.000 A 
ATOM     23  C   UNL     1       4.502  14.546  18.183  0.00  0.00    +0.000 A 
ATOM     24  C   UNL     1       5.365  15.025  19.196  0.00  0.00    +0.000 A 
BRANCH  24  25
ATOM     25  C   UNL     1       6.695  15.433  18.760  0.00  0.00    +0.000 A 
ATOM     26  N   UNL     1       7.742  14.526  18.733  0.00  0.00    +0.000 NA
ATOM     27  C   UNL     1       8.779  15.265  18.400  0.00  0.00    +0.000 A 
ATOM     28  N   UNL     1       8.379  16.550  18.260  0.00  0.00    +0.000 N 
ATOM     29  C   UNL     1       9.184  17.686  17.898  0.00  0.00    +0.000 C 
ATOM     30  N   UNL     1       7.076  16.704  18.549  0.00  0.00    +0.000 NA
ENDBRANCH  24  25
ENDBRANCH  10  19
TORSDOF 2
ENDMDL
MODEL 3
REMARK VINA RESULT:      -6.2      1.358      1.926
REMARK  Name = 
REMARK  4 active torsions:
REMARK  status: ('A' for Active; 'I' for Inactive)
REMARK    1  A    between atoms: C_1  and  C_2
REMARK    2  A    between atoms: C_10  and  C_12
REMARK    3  A    between atoms: C_17  and  C_18
REMARK    4  A    between atoms: N_21  and  C_22
REMARK                            x       y       z     vdW  Elec       q    Type
REMARK                         _______ _______ _______ _____ _____    ______ ____
ROOT
ATOM      1  C   UNL     1       1.254  11.547  20.339  0.00  0.00    +0.000 C 
ATOM      2  C   UNL     1       0.192  11.534  21.392  0.00  0.00    +0.000 A 
ATOM      3  N   UNL     1      -0.357  12.723  21.729  0.00  0.00    +0.000 NA
ATOM      4  C   UNL     1      -1.261  12.751  22.727  0.00  0.00    +0.000 A 
ATOM      5  N   UNL     1      -1.755  13.969  23.102  0.00  0.00    +0.000 N 
ATOM      6  C   UNL     1      -1.844  15.037  22.119  0.00  0.00    +0.000 C 
ATOM      7  C   UNL     1      -3.057  15.880  22.543  0.00  0.00    +0.000 C 
ATOM      8  C   UNL     1      -4.140  15.960  21.466  0.00  0.00    +0.000 C 
ATOM      9  N   UNL     1      -4.944  14.765  21.657  0.00  0.00    +0.000 N 
ATOM     10  C   UNL     1      -5.674  14.204  20.605  0.00  0.00    +0.000 C 
ATOM     11  O   UNL     1      -5.769  14.775  19.521  0.00  0.00    +0.000 OA
ATOM     12  C   UNL     1      -4.869  14.336  23.043  0.00  0.00    +0.000 C 
ATOM     13  C   UNL     1      -3.715  15.096  23.686  0.00  0.00    +0.000 C 
ATOM     14  C   UNL     1      -2.652  14.144  24.217  0.00  0.00    +0.000 C 
ATOM     15  N   UNL     1      -1.651  11.647  23.388  0.00  0.00    +0.000 NA
ATOM     16  C   UNL     1      -1.108  10.471  23.003  0.00  0.00    +0.000 A 
ATOM     17  C   UNL     1      -0.169  10.362  22.012  0.00  0.00    +0.000 A 
ATOM     18  F   UNL     1       0.379   9.184  21.691  0.00  0.00    +0.000 F 
ENDROOT
BRANCH  10  19
ATOM     19  C   UNL     1      -6.374  12.890  20.805  0.00  0.00    +0.000 A 
ATOM     20  C   UNL     1      -7.271  12.743  21.882  0.00  0.00    +0.000 A 
ATOM     21  C   UNL     1      -7.908  11.530  22.152  0.00  0.00    +0.000 A 
ATOM     22  C   UNL     1      -7.745  10.461  21.287  0.00  0.00    +0.000 A 
ATOM     23  C   UNL     1      -6.941  10.613  20.160  0.00  0.00    +0.000 A 
ATOM     24  C   UNL     1      -6.233  11.811  19.911  0.00  0.00    +0.000 A 
BRANCH  24  25
ATOM     25  C   UNL     1      -5.390  11.819  18.722  0.00  0.00    +0.000 A 
ATOM     26  N   UNL     1      -5.932  12.058  17.469  0.00  0.00    +0.000 NA
ATOM     27  C   UNL     1      -4.913  11.882  16.656  0.00  0.00    +0.000 A 
ATOM     28  N   UNL     1      -3.825  11.532  17.379  0.00  0.00    +0.000 N 
ATOM     29  C   UNL     1      -2.500  11.252  16.894  0.00  0.00    +0.000 C 
ATOM     30  N   UNL     1      -4.109  11.416  18.687  0.00  0.00    +0.000 NA
ENDBRANCH  24  25
ENDBRANCH  10  19
TORSDOF 2
ENDMDL
MODEL 4
REMARK VINA RESULT:      -6.1      0.841      1.147
REMARK  Name = 
REMARK  4 active torsions:
REMARK  status: ('A' for Active; 'I' for Inactive)
REMARK    1  A    between atoms: C_1  and  C_2
REMARK    2  A    between atoms: C_10  and  C_12
REMARK    3  A    between atoms: C_17  and  C_18
REMARK    4  A    between atoms: N_21  and  C_22
REMARK                            x       y       z     vdW  Elec       q    Type
REMARK                         _______ _______ _______ _____ _____    ______ ____
ROOT
ATOM      1  C   UNL     1       0.581  10.685  19.735  0.00  0.00    +0.000 C 
ATOM      2  C   UNL     1      -0.099  11.067  21.011  0.00  0.00    +0.000 A 
ATOM      3  N   UNL     1      -0.272  12.386  21.247  0.00  0.00    +0.000 NA
ATOM      4  C   UNL     1      -0.813  12.763  22.422  0.00  0.00    +0.000 A 
ATOM      5  N   UNL     1      -0.918  14.102  22.672  0.00  0.00    +0.000 N 
ATOM      6  C   UNL     1      -1.081  15.026  21.562  0.00  0.00    +0.000 C 
ATOM      7  C   UNL     1      -1.918  16.188  22.119  0.00  0.00    +0.000 C 
ATOM      8  C   UNL     1      -3.232  16.397  21.367  0.00  0.00    +0.000 C 
ATOM      9  N   UNL     1      -4.166  15.471  21.986  0.00  0.00    +0.000 N 
ATOM     10  C   UNL     1      -5.273  14.979  21.289  0.00  0.00    +0.000 C 
ATOM     11  O   UNL     1      -5.571  15.415  20.179  0.00  0.00    +0.000 OA
ATOM     12  C   UNL     1      -3.768  15.215  23.360  0.00  0.00    +0.000 C 
ATOM     13  C   UNL     1      -2.348  15.742  23.522  0.00  0.00    +0.000 C 
ATOM     14  C   UNL     1      -1.388  14.631  23.929  0.00  0.00    +0.000 C 
ATOM     15  N   UNL     1      -1.202  11.881  23.360  0.00  0.00    +0.000 NA
ATOM     16  C   UNL     1      -1.045  10.569  23.079  0.00  0.00    +0.000 A 
ATOM     17  C   UNL     1      -0.486  10.107  21.916  0.00  0.00    +0.000 A 
ATOM     18  F   UNL     1      -0.307   8.800  21.695  0.00  0.00    +0.000 F 
ENDROOT
BRANCH  10  19
ATOM     19  C   UNL     1      -6.130  13.914  21.911  0.00  0.00    +0.000 A 
ATOM     20  C   UNL     1      -6.540  14.056  23.252  0.00  0.00    +0.000 A 
ATOM     21  C   UNL     1      -7.290  13.074  23.903  0.00  0.00    +0.000 A 
ATOM     22  C   UNL     1      -7.739  11.971  23.195  0.00  0.00    +0.000 A 
ATOM     23  C   UNL     1      -7.429  11.858  21.842  0.00  0.00    +0.000 A 
ATOM     24  C   UNL     1      -6.611  12.808  21.186  0.00  0.00    +0.000 A 
BRANCH  24  25
ATOM     25  C   UNL     1      -6.326  12.543  19.782  0.00  0.00    +0.000 A 
ATOM     26  N   UNL     1      -7.331  12.604  18.829  0.00  0.00    +0.000 NA
ATOM     27  C   UNL     1      -6.732  12.210  17.727  0.00  0.00    +0.000 A 
ATOM     28  N   UNL     1      -5.444  11.905  18.007  0.00  0.00    +0.000 N 
ATOM     29  C   UNL     1      -4.432  11.441  17.096  0.00  0.00    +0.000 C 
ATOM     30  N   UNL     1      -5.171  12.039  19.316  0.00  0.00    +0.000 NA
ENDBRANCH  24  25
ENDBRANCH  10  19
TORSDOF 2
ENDMDL
MODEL 5
REMARK VINA RESULT:      -6.0      4.290      7.786
REMARK  Name = 
REMARK  4 active torsions:
REMARK  status: ('A' for Active; 'I' for Inactive)
REMARK    1  A    between atoms: C_1  and  C_2
REMARK    2  A    between atoms: C_10  and  C_12
REMARK    3  A    between atoms: C_17  and  C_18
REMARK    4  A    between atoms: N_21  and  C_22
REMARK                            x       y       z     vdW  Elec       q    Type
REMARK                         _______ _______ _______ _____ _____    ______ ____
ROOT
ATOM      1  C   UNL     1      -3.842  10.717  15.016  0.00  0.00    +0.000 C 
ATOM      2  C   UNL     1      -3.566  11.003  16.458  0.00  0.00    +0.000 A 
ATOM      3  N   UNL     1      -2.400  10.545  16.965  0.00  0.00    +0.000 NA
ATOM      4  C   UNL     1      -2.159  10.721  18.279  0.00  0.00    +0.000 A 
ATOM      5  N   UNL     1      -1.006  10.192  18.789  0.00  0.00    +0.000 N 
ATOM      6  C   UNL     1       0.160  10.058  17.931  0.00  0.00    +0.000 C 
ATOM      7  C   UNL     1       1.371  10.222  18.862  0.00  0.00    +0.000 C 
ATOM      8  C   UNL     1       2.279  11.387  18.468  0.00  0.00    +0.000 C 
ATOM      9  N   UNL     1       1.680  12.554  19.094  0.00  0.00    +0.000 N 
ATOM     10  C   UNL     1       1.876  13.838  18.578  0.00  0.00    +0.000 C 
ATOM     11  O   UNL     1       2.668  14.041  17.660  0.00  0.00    +0.000 OA
ATOM     12  C   UNL     1       0.938  12.152  20.277  0.00  0.00    +0.000 C 
ATOM     13  C   UNL     1       0.786  10.637  20.218  0.00  0.00    +0.000 C 
ATOM     14  C   UNL     1      -0.681  10.227  20.193  0.00  0.00    +0.000 C 
ATOM     15  N   UNL     1      -3.021  11.346  19.099  0.00  0.00    +0.000 NA
ATOM     16  C   UNL     1      -4.162  11.821  18.554  0.00  0.00    +0.000 A 
ATOM     17  C   UNL     1      -4.489  11.664  17.232  0.00  0.00    +0.000 A 
ATOM     18  F   UNL     1      -5.651  12.110  16.740  0.00  0.00    +0.000 F 
ENDROOT
BRANCH  10  19
ATOM     19  C   UNL     1       1.124  14.998  19.166  0.00  0.00    +0.000 A 
ATOM     20  C   UNL     1      -0.141  15.335  18.644  0.00  0.00    +0.000 A 
ATOM     21  C   UNL     1      -0.863  16.436  19.110  0.00  0.00    +0.000 A 
ATOM     22  C   UNL     1      -0.383  17.166  20.184  0.00  0.00    +0.000 A 
ATOM     23  C   UNL     1       0.817  16.791  20.782  0.00  0.00    +0.000 A 
ATOM     24  C   UNL     1       1.595  15.723  20.277  0.00  0.00    +0.000 A 
BRANCH  24  25
ATOM     25  C   UNL     1       2.853  15.468  20.967  0.00  0.00    +0.000 A 
ATOM     26  N   UNL     1       2.876  14.779  22.169  0.00  0.00    +0.000 NA
ATOM     27  C   UNL     1       4.140  14.838  22.531  0.00  0.00    +0.000 A 
ATOM     28  N   UNL     1       4.832  15.545  21.608  0.00  0.00    +0.000 N 
ATOM     29  C   UNL     1       6.239  15.846  21.606  0.00  0.00    +0.000 C 
ATOM     30  N   UNL     1       4.034  16.019  20.637  0.00  0.00    +0.000 NA
ENDBRANCH  24  25
ENDBRANCH  10  19
TORSDOF 2
ENDMDL
MODEL 6
REMARK VINA RESULT:      -6.0      2.611      5.215
REMARK  Name = 
REMARK  4 active torsions:
REMARK  status: ('A' for Active; 'I' for Inactive)
REMARK    1  A    between atoms: C_1  and  C_2
REMARK    2  A    between atoms: C_10  and  C_12
REMARK    3  A    between atoms: C_17  and  C_18
REMARK    4  A    between atoms: N_21  and  C_22
REMARK                            x       y       z     vdW  Elec       q    Type
REMARK                         _______ _______ _______ _____ _____    ______ ____
ROOT
ATOM      1  C   UNL     1       1.003   9.877  20.858  0.00  0.00    +0.000 C 
ATOM      2  C   UNL     1       0.342  10.837  19.922  0.00  0.00    +0.000 A 
ATOM      3  N   UNL     1      -0.712  10.379  19.211  0.00  0.00    +0.000 NA
ATOM      4  C   UNL     1      -1.280  11.199  18.305  0.00  0.00    +0.000 A 
ATOM      5  N   UNL     1      -2.300  10.697  17.546  0.00  0.00    +0.000 N 
ATOM      6  C   UNL     1      -3.151   9.653  18.094  0.00  0.00    +0.000 C 
ATOM      7  C   UNL     1      -4.529   9.872  17.451  0.00  0.00    +0.000 C 
ATOM      8  C   UNL     1      -5.637  10.122  18.474  0.00  0.00    +0.000 C 
ATOM      9  N   UNL     1      -5.574  11.547  18.749  0.00  0.00    +0.000 N 
ATOM     10  C   UNL     1      -6.031  12.076  19.960  0.00  0.00    +0.000 C 
ATOM     11  O   UNL     1      -6.624  11.374  20.777  0.00  0.00    +0.000 OA
ATOM     12  C   UNL     1      -5.026  12.248  17.600  0.00  0.00    +0.000 C 
ATOM     13  C   UNL     1      -4.413  11.196  16.684  0.00  0.00    +0.000 C 
ATOM     14  C   UNL     1      -2.923  11.440  16.479  0.00  0.00    +0.000 C 
ATOM     15  N   UNL     1      -0.852  12.456  18.092  0.00  0.00    +0.000 NA
ATOM     16  C   UNL     1       0.183  12.893  18.842  0.00  0.00    +0.000 A 
ATOM     17  C   UNL     1       0.825  12.115  19.769  0.00  0.00    +0.000 A 
ATOM     18  F   UNL     1       1.876  12.572  20.461  0.00  0.00    +0.000 F 
ENDROOT
BRANCH  10  19
ATOM     19  C   UNL     1      -5.816  13.531  20.265  0.00  0.00    +0.000 A 
ATOM     20  C   UNL     1      -6.554  14.500  19.555  0.00  0.00    +0.000 A 
ATOM     21  C   UNL     1      -6.358  15.869  19.754  0.00  0.00    +0.000 A 
ATOM     22  C   UNL     1      -5.492  16.301  20.744  0.00  0.00    +0.000 A 
ATOM     23  C   UNL     1      -4.825  15.361  21.526  0.00  0.00    +0.000 A 
ATOM     24  C   UNL     1      -4.959  13.973  21.290  0.00  0.00    +0.000 A 
BRANCH  24  25
ATOM     25  C   UNL     1      -4.169  13.101  22.150  0.00  0.00    +0.000 A 
ATOM     26  N   UNL     1      -4.594  12.792  23.432  0.00  0.00    +0.000 NA
ATOM     27  C   UNL     1      -3.596  12.091  23.925  0.00  0.00    +0.000 A 
ATOM     28  N   UNL     1      -2.615  12.005  22.998  0.00  0.00    +0.000 N 
ATOM     29  C   UNL     1      -1.352  11.326  23.116  0.00  0.00    +0.000 C 
ATOM     30  N   UNL     1      -2.916  12.693  21.884  0.00  0.00    +0.000 NA
ENDBRANCH  24  25
ENDBRANCH  10  19
TORSDOF 2
ENDMDL
MODEL 7
REMARK VINA RESULT:      -6.0      2.695      6.561
REMARK  Name = 
REMARK  4 active torsions:
REMARK  status: ('A' for Active; 'I' for Inactive)
REMARK    1  A    between atoms: C_1  and  C_2
REMARK    2  A    between atoms: C_10  and  C_12
REMARK    3  A    between atoms: C_17  and  C_18
REMARK    4  A    between atoms: N_21  and  C_22
REMARK                            x       y       z     vdW  Elec       q    Type
REMARK                         _______ _______ _______ _____ _____    ______ ____
ROOT
ATOM      1  C   UNL     1      -7.866   9.787  21.340  0.00  0.00    +0.000 C 
ATOM      2  C   UNL     1      -7.053  10.751  20.538  0.00  0.00    +0.000 A 
ATOM      3  N   UNL     1      -6.559  11.830  21.185  0.00  0.00    +0.000 NA
ATOM      4  C   UNL     1      -5.887  12.754  20.472  0.00  0.00    +0.000 A 
ATOM      5  N   UNL     1      -5.453  13.872  21.129  0.00  0.00    +0.000 N 
ATOM      6  C   UNL     1      -5.130  13.788  22.544  0.00  0.00    +0.000 C 
ATOM      7  C   UNL     1      -4.014  14.821  22.768  0.00  0.00    +0.000 C 
ATOM      8  C   UNL     1      -2.726  14.205  23.314  0.00  0.00    +0.000 C 
ATOM      9  N   UNL     1      -2.011  13.734  22.140  0.00  0.00    +0.000 N 
ATOM     10  C   UNL     1      -1.089  12.687  22.220  0.00  0.00    +0.000 C 
ATOM     11  O   UNL     1      -0.750  12.220  23.306  0.00  0.00    +0.000 OA
ATOM     12  C   UNL     1      -2.390  14.526  20.982  0.00  0.00    +0.000 C 
ATOM     13  C   UNL     1      -3.634  15.317  21.367  0.00  0.00    +0.000 C 
ATOM     14  C   UNL     1      -4.810  14.976  20.461  0.00  0.00    +0.000 C 
ATOM     15  N   UNL     1      -5.674  12.639  19.149  0.00  0.00    +0.000 NA
ATOM     16  C   UNL     1      -6.152  11.533  18.539  0.00  0.00    +0.000 A 
ATOM     17  C   UNL     1      -6.862  10.559  19.190  0.00  0.00    +0.000 A 
ATOM     18  F   UNL     1      -7.358   9.499  18.541  0.00  0.00    +0.000 F 
ENDROOT
BRANCH  10  19
ATOM     19  C   UNL     1      -0.480  12.134  20.963  0.00  0.00    +0.000 A 
ATOM     20  C   UNL     1      -1.020  10.964  20.394  0.00  0.00    +0.000 A 
ATOM     21  C   UNL     1      -0.464  10.370  19.258  0.00  0.00    +0.000 A 
ATOM     22  C   UNL     1       0.585  10.994  18.602  0.00  0.00    +0.000 A 
ATOM     23  C   UNL     1       1.071  12.204  19.090  0.00  0.00    +0.000 A 
ATOM     24  C   UNL     1       0.566  12.781  20.278  0.00  0.00    +0.000 A 
BRANCH  24  25
ATOM     25  C   UNL     1       1.197  14.024  20.703  0.00  0.00    +0.000 A 
ATOM     26  N   UNL     1       1.888  14.096  21.902  0.00  0.00    +0.000 NA
ATOM     27  C   UNL     1       2.213  15.368  21.992  0.00  0.00    +0.000 A 
ATOM     28  N   UNL     1       1.723  16.027  20.917  0.00  0.00    +0.000 N 
ATOM     29  C   UNL     1       1.851  17.427  20.611  0.00  0.00    +0.000 C 
ATOM     30  N   UNL     1       1.013  15.218  20.113  0.00  0.00    +0.000 NA
ENDBRANCH  24  25
ENDBRANCH  10  19
TORSDOF 2
ENDMDL
MODEL 8
REMARK VINA RESULT:      -6.0      2.704      6.866
REMARK  Name = 
REMARK  4 active torsions:
REMARK  status: ('A' for Active; 'I' for Inactive)
REMARK    1  A    between atoms: C_1  and  C_2
REMARK    2  A    between atoms: C_10  and  C_12
REMARK    3  A    between atoms: C_17  and  C_18
REMARK    4  A    between atoms: N_21  and  C_22
REMARK                            x       y       z     vdW  Elec       q    Type
REMARK                         _______ _______ _______ _____ _____    ______ ____
ROOT
ATOM      1  C   UNL     1      -7.104  15.647  20.354  0.00  0.00    +0.000 C 
ATOM      2  C   UNL     1      -6.817  14.187  20.501  0.00  0.00    +0.000 A 
ATOM      3  N   UNL     1      -6.363  13.534  19.408  0.00  0.00    +0.000 NA
ATOM      4  C   UNL     1      -6.168  12.204  19.490  0.00  0.00    +0.000 A 
ATOM      5  N   UNL     1      -5.774  11.549  18.357  0.00  0.00    +0.000 N 
ATOM      6  C   UNL     1      -4.987  12.256  17.360  0.00  0.00    +0.000 C 
ATOM      7  C   UNL     1      -4.093  11.186  16.714  0.00  0.00    +0.000 C 
ATOM      8  C   UNL     1      -2.600  11.484  16.858  0.00  0.00    +0.000 C 
ATOM      9  N   UNL     1      -2.239  10.954  18.162  0.00  0.00    +0.000 N 
ATOM     10  C   UNL     1      -1.152  11.462  18.878  0.00  0.00    +0.000 C 
ATOM     11  O   UNL     1      -0.384  12.279  18.375  0.00  0.00    +0.000 OA
ATOM     12  C   UNL     1      -3.134   9.865  18.516  0.00  0.00    +0.000 C 
ATOM     13  C   UNL     1      -4.310   9.918  17.549  0.00  0.00    +0.000 C 
ATOM     14  C   UNL     1      -5.627  10.116  18.290  0.00  0.00    +0.000 C 
ATOM     15  N   UNL     1      -6.390  11.504  20.617  0.00  0.00    +0.000 NA
ATOM     16  C   UNL     1      -6.812  12.192  21.700  0.00  0.00    +0.000 A 
ATOM     17  C   UNL     1      -7.052  13.540  21.691  0.00  0.00    +0.000 A 
ATOM     18  F   UNL     1      -7.512  14.178  22.774  0.00  0.00    +0.000 F 
ENDROOT
BRANCH  10  19
ATOM     19  C   UNL     1      -0.900  10.988  20.282  0.00  0.00    +0.000 A 
ATOM     20  C   UNL     1      -0.259   9.750  20.486  0.00  0.00    +0.000 A 
ATOM     21  C   UNL     1      -0.047   9.230  21.765  0.00  0.00    +0.000 A 
ATOM     22  C   UNL     1      -0.378   9.987  22.877  0.00  0.00    +0.000 A 
ATOM     23  C   UNL     1      -0.922  11.257  22.700  0.00  0.00    +0.000 A 
ATOM     24  C   UNL     1      -1.208  11.768  21.412  0.00  0.00    +0.000 A 
BRANCH  24  25
ATOM     25  C   UNL     1      -1.820  13.090  21.372  0.00  0.00    +0.000 A 
ATOM     26  N   UNL     1      -3.198  13.233  21.335  0.00  0.00    +0.000 NA
ATOM     27  C   UNL     1      -3.367  14.531  21.198  0.00  0.00    +0.000 A 
ATOM     28  N   UNL     1      -2.156  15.130  21.131  0.00  0.00    +0.000 N 
ATOM     29  C   UNL     1      -1.878  16.534  20.988  0.00  0.00    +0.000 C 
ATOM     30  N   UNL     1      -1.152  14.238  21.169  0.00  0.00    +0.000 NA
ENDBRANCH  24  25
ENDBRANCH  10  19
TORSDOF 2
ENDMDL
MODEL 9
REMARK VINA RESULT:      -6.0      4.141      7.262
REMARK  Name = 
REMARK  4 active torsions:
REMARK  status: ('A' for Active; 'I' for Inactive)
REMARK    1  A    between atoms: C_1  and  C_2
REMARK    2  A    between atoms: C_10  and  C_12
REMARK    3  A    between atoms: C_17  and  C_18
REMARK    4  A    between atoms: N_21  and  C_22
REMARK                            x       y       z     vdW  Elec       q    Type
REMARK                         _______ _______ _______ _____ _____    ______ ____
ROOT
ATOM      1  C   UNL     1       2.417   7.092  20.495  0.00  0.00    +0.000 C 
ATOM      2  C   UNL     1       1.750   8.125  19.645  0.00  0.00    +0.000 A 
ATOM      3  N   UNL     1       0.832   8.917  20.242  0.00  0.00    +0.000 NA
ATOM      4  C   UNL     1       0.161   9.806  19.484  0.00  0.00    +0.000 A 
ATOM      5  N   UNL     1      -0.812  10.551  20.091  0.00  0.00    +0.000 N 
ATOM      6  C   UNL     1      -0.691  10.869  21.504  0.00  0.00    +0.000 C 
ATOM      7  C   UNL     1      -1.375  12.235  21.673  0.00  0.00    +0.000 C 
ATOM      8  C   UNL     1      -0.440  13.310  22.229  0.00  0.00    +0.000 C 
ATOM      9  N   UNL     1       0.254  13.837  21.067  0.00  0.00    +0.000 N 
ATOM     10  C   UNL     1       1.515  14.430  21.179  0.00  0.00    +0.000 C 
ATOM     11  O   UNL     1       2.020  14.647  22.279  0.00  0.00    +0.000 OA
ATOM     12  C   UNL     1      -0.571  13.670  19.882  0.00  0.00    +0.000 C 
ATOM     13  C   UNL     1      -1.693  12.707  20.249  0.00  0.00    +0.000 C 
ATOM     14  C   UNL     1      -1.665  11.463  19.371  0.00  0.00    +0.000 C 
ATOM     15  N   UNL     1       0.378   9.948  18.165  0.00  0.00    +0.000 NA
ATOM     16  C   UNL     1       1.326   9.165  17.605  0.00  0.00    +0.000 A 
ATOM     17  C   UNL     1       2.037   8.225  18.304  0.00  0.00    +0.000 A 
ATOM     18  F   UNL     1       2.936   7.436  17.703  0.00  0.00    +0.000 F 
ENDROOT
BRANCH  10  19
ATOM     19  C   UNL     1       2.261  14.830  19.939  0.00  0.00    +0.000 A 
ATOM     20  C   UNL     1       3.173  13.924  19.361  0.00  0.00    +0.000 A 
ATOM     21  C   UNL     1       3.938  14.259  18.241  0.00  0.00    +0.000 A 
ATOM     22  C   UNL     1       3.732  15.473  17.607  0.00  0.00    +0.000 A 
ATOM     23  C   UNL     1       2.764  16.344  18.102  0.00  0.00    +0.000 A 
ATOM     24  C   UNL     1       2.032  16.050  19.276  0.00  0.00    +0.000 A 
BRANCH  24  25
ATOM     25  C   UNL     1       1.086  17.070  19.710  0.00  0.00    +0.000 A 
ATOM     26  N   UNL     1       1.409  17.950  20.731  0.00  0.00    +0.000 NA
ATOM     27  C   UNL     1       0.297  18.631  20.910  0.00  0.00    +0.000 A 
ATOM     28  N   UNL     1      -0.648  18.168  20.060  0.00  0.00    +0.000 N 
ATOM     29  C   UNL     1      -2.003  18.630  19.917  0.00  0.00    +0.000 C 
ATOM     30  N   UNL     1      -0.203  17.130  19.332  0.00  0.00    +0.000 NA
ENDBRANCH  24  25
ENDBRANCH  10  19
TORSDOF 2
ENDMDL
