MODEL 1
REMARK VINA RESULT:      -8.7      0.000      0.000
REMARK  Name = 
REMARK  6 active torsions:
REMARK  status: ('A' for Active; 'I' for Inactive)
REMARK    1  A    between atoms: C_2  and  C_3
REMARK    2  A    between atoms: C_2  and  C_20
REMARK    3  A    between atoms: C_3  and  C_4
REMARK    4  A    between atoms: C_4  and  C_5
REMARK    5  A    between atoms: C_4  and  N_14
REMARK    6  A    between atoms: N_7  and  C_8
REMARK                            x       y       z     vdW  Elec       q    Type
REMARK                         _______ _______ _______ _____ _____    ______ ____
ROOT
ATOM      1  C   UNL     1       3.053   4.048  18.777  0.00  0.00    +0.000 C 
ENDROOT
BRANCH   1   2
ATOM      2  N   UNL     1       3.066   2.646  19.321  0.00  0.00    +0.000 NA
ATOM      3  C   UNL     1       1.757   1.958  19.219  0.00  0.00    +0.000 C 
ATOM      4  C   UNL     1       0.692   2.519  20.179  0.00  0.00    +0.000 C 
ATOM      5  O   UNL     1       1.132   2.451  21.541  0.00  0.00    +0.000 OA
ATOM      6  C   UNL     1       2.388   3.119  21.715  0.00  0.00    +0.000 C 
ATOM      7  C   UNL     1       3.455   2.569  20.752  0.00  0.00    +0.000 C 
ENDBRANCH   1   2
BRANCH   1   8
ATOM      8  C   UNL     1       4.142   4.212  17.662  0.00  0.00    +0.000 C 
ATOM      9  O   UNL     1       3.920   4.010  16.471  0.00  0.00    +0.000 OA
ATOM     10  N   UNL     1       5.383   4.613  18.140  0.00  0.00    +0.000 N 
ATOM     11  H   UNL     1       5.459   4.893  19.106  0.00  0.00    +0.000 HD
BRANCH  10  12
ATOM     12  C   UNL     1       6.540   4.814  17.275  0.00  0.00    +0.000 C 
ATOM     13  C   UNL     1       6.390   6.088  16.433  0.00  0.00    +0.000 C 
ATOM     14  C   UNL     1       6.542   7.363  17.263  0.00  0.00    +0.000 C 
ATOM     15  C   UNL     1       7.854   7.379  18.038  0.00  0.00    +0.000 C 
ATOM     16  C   UNL     1       8.005   6.137  18.909  0.00  0.00    +0.000 C 
ATOM     17  C   UNL     1       7.841   4.852  18.095  0.00  0.00    +0.000 C 
ENDBRANCH  10  12
ENDBRANCH   1   8
BRANCH   1  18
ATOM     18  C   UNL     1       3.352   5.092  19.882  0.00  0.00    +0.000 C 
BRANCH  18  20
ATOM     19  O   UNL     1       1.270   5.703  20.893  0.00  0.00    +0.000 OA
ATOM     20  C   UNL     1       2.157   6.007  20.102  0.00  0.00    +0.000 C 
BRANCH  20  21
ATOM     21  C   UNL     1       2.114   7.329  19.400  0.00  0.00    +0.000 A 
ATOM     22  C   UNL     1       2.688   7.454  18.127  0.00  0.00    +0.000 A 
ATOM     23  C   UNL     1       2.626   8.666  17.441  0.00  0.00    +0.000 A 
ATOM     24  C   UNL     1       1.981   9.757  18.014  0.00  0.00    +0.000 A 
ATOM     25  C   UNL     1       1.390   9.657  19.280  0.00  0.00    +0.000 A 
ATOM     26  C   UNL     1       1.479   8.445  20.002  0.00  0.00    +0.000 A 
ATOM     27  C   UNL     1       0.856   8.342  21.382  0.00  0.00    +0.000 C 
ATOM     28  C   UNL     1       0.495   9.676  22.023  0.00  0.00    +0.000 C 
ATOM     29  C   UNL     1      -0.224  10.558  21.017  0.00  0.00    +0.000 C 
ATOM     30  C   UNL     1       0.710  10.879  19.855  0.00  0.00    +0.000 C 
ENDBRANCH  20  21
ENDBRANCH  18  20
ENDBRANCH   1  18
TORSDOF 6
ENDMDL
MODEL 2
REMARK VINA RESULT:      -8.7      0.925      1.188
REMARK  Name = 
REMARK  6 active torsions:
REMARK  status: ('A' for Active; 'I' for Inactive)
REMARK    1  A    between atoms: C_2  and  C_3
REMARK    2  A    between atoms: C_2  and  C_20
REMARK    3  A    between atoms: C_3  and  C_4
REMARK    4  A    between atoms: C_4  and  C_5
REMARK    5  A    between atoms: C_4  and  N_14
REMARK    6  A    between atoms: N_7  and  C_8
REMARK                            x       y       z     vdW  Elec       q    Type
REMARK                         _______ _______ _______ _____ _____    ______ ____
ROOT
ATOM      1  C   UNL     1       3.076   4.640  18.945  0.00  0.00    +0.000 C 
ENDROOT
BRANCH   1   2
ATOM      2  N   UNL     1       3.129   3.341  19.699  0.00  0.00    +0.000 NA
ATOM      3  C   UNL     1       3.344   2.159  18.830  0.00  0.00    +0.000 C 
ATOM      4  C   UNL     1       2.128   1.814  17.951  0.00  0.00    +0.000 C 
ATOM      5  O   UNL     1       0.960   1.581  18.748  0.00  0.00    +0.000 OA
ATOM      6  C   UNL     1       0.681   2.699  19.601  0.00  0.00    +0.000 C 
ATOM      7  C   UNL     1       1.896   3.054  20.475  0.00  0.00    +0.000 C 
ENDBRANCH   1   2
BRANCH   1   8
ATOM      8  C   UNL     1       4.193   4.681  17.846  0.00  0.00    +0.000 C 
ATOM      9  O   UNL     1       3.967   4.509  16.651  0.00  0.00    +0.000 OA
ATOM     10  N   UNL     1       5.465   4.934  18.343  0.00  0.00    +0.000 N 
ATOM     11  H   UNL     1       5.559   5.201  19.311  0.00  0.00    +0.000 HD
BRANCH  10  12
ATOM     12  C   UNL     1       6.650   5.003  17.495  0.00  0.00    +0.000 C 
ATOM     13  C   UNL     1       6.605   6.232  16.577  0.00  0.00    +0.000 C 
ATOM     14  C   UNL     1       6.831   7.541  17.334  0.00  0.00    +0.000 C 
ATOM     15  C   UNL     1       8.126   7.513  18.137  0.00  0.00    +0.000 C 
ATOM     16  C   UNL     1       8.172   6.317  19.083  0.00  0.00    +0.000 C 
ATOM     17  C   UNL     1       7.934   5.000  18.342  0.00  0.00    +0.000 C 
ENDBRANCH  10  12
ENDBRANCH   1   8
BRANCH   1  18
ATOM     18  C   UNL     1       3.298   5.853  19.883  0.00  0.00    +0.000 C 
BRANCH  18  20
ATOM     19  O   UNL     1       1.137   6.036  20.896  0.00  0.00    +0.000 OA
ATOM     20  C   UNL     1       1.983   6.559  20.179  0.00  0.00    +0.000 C 
BRANCH  20  21
ATOM     21  C   UNL     1       1.764   7.942  19.648  0.00  0.00    +0.000 A 
ATOM     22  C   UNL     1       2.209   8.265  18.358  0.00  0.00    +0.000 A 
ATOM     23  C   UNL     1       1.982   9.536  17.831  0.00  0.00    +0.000 A 
ATOM     24  C   UNL     1       1.301  10.488  18.582  0.00  0.00    +0.000 A 
ATOM     25  C   UNL     1       0.837  10.189  19.870  0.00  0.00    +0.000 A 
ATOM     26  C   UNL     1       1.094   8.917  20.429  0.00  0.00    +0.000 A 
ATOM     27  C   UNL     1       0.608   8.599  21.832  0.00  0.00    +0.000 C 
ATOM     28  C   UNL     1       0.195   9.812  22.656  0.00  0.00    +0.000 C 
ATOM     29  C   UNL     1      -0.685  10.729  21.825  0.00  0.00    +0.000 C 
ATOM     30  C   UNL     1       0.110  11.267  20.640  0.00  0.00    +0.000 C 
ENDBRANCH  20  21
ENDBRANCH  18  20
ENDBRANCH   1  18
TORSDOF 6
ENDMDL
MODEL 3
REMARK VINA RESULT:      -8.7      1.453      4.681
REMARK  Name = 
REMARK  6 active torsions:
REMARK  status: ('A' for Active; 'I' for Inactive)
REMARK    1  A    between atoms: C_2  and  C_3
REMARK    2  A    between atoms: C_2  and  C_20
REMARK    3  A    between atoms: C_3  and  C_4
REMARK    4  A    between atoms: C_4  and  C_5
REMARK    5  A    between atoms: C_4  and  N_14
REMARK    6  A    between atoms: N_7  and  C_8
REMARK                            x       y       z     vdW  Elec       q    Type
REMARK                         _______ _______ _______ _____ _____    ______ ____
ROOT
ATOM      1  C   UNL     1       4.451   6.227  17.879  0.00  0.00    +0.000 C 
ENDROOT
BRANCH   1   2
ATOM      2  N   UNL     1       5.549   6.370  16.862  0.00  0.00    +0.000 NA
ATOM      3  C   UNL     1       6.170   5.080  16.475  0.00  0.00    +0.000 C 
ATOM      4  C   UNL     1       7.029   4.453  17.588  0.00  0.00    +0.000 C 
ATOM      5  O   UNL     1       8.068   5.345  18.007  0.00  0.00    +0.000 OA
ATOM      6  C   UNL     1       7.534   6.610  18.418  0.00  0.00    +0.000 C 
ATOM      7  C   UNL     1       6.667   7.238  17.312  0.00  0.00    +0.000 C 
ENDBRANCH   1   2
BRANCH   1   8
ATOM      8  C   UNL     1       3.801   4.804  17.787  0.00  0.00    +0.000 C 
ATOM      9  O   UNL     1       3.391   4.320  16.735  0.00  0.00    +0.000 OA
ATOM     10  N   UNL     1       3.734   4.133  19.002  0.00  0.00    +0.000 N 
ATOM     11  H   UNL     1       4.212   4.530  19.796  0.00  0.00    +0.000 HD
BRANCH  10  12
ATOM     12  C   UNL     1       3.156   2.802  19.143  0.00  0.00    +0.000 C 
ATOM     13  C   UNL     1       3.455   2.210  20.527  0.00  0.00    +0.000 C 
ATOM     14  C   UNL     1       2.658   2.889  21.642  0.00  0.00    +0.000 C 
ATOM     15  C   UNL     1       1.161   2.870  21.358  0.00  0.00    +0.000 C 
ATOM     16  C   UNL     1       0.841   3.488  20.001  0.00  0.00    +0.000 C 
ATOM     17  C   UNL     1       1.641   2.829  18.876  0.00  0.00    +0.000 C 
ENDBRANCH  10  12
ENDBRANCH   1   8
BRANCH   1  18
ATOM     18  C   UNL     1       3.328   7.270  17.655  0.00  0.00    +0.000 C 
BRANCH  18  20
ATOM     19  O   UNL     1       2.682   6.746  19.900  0.00  0.00    +0.000 OA
ATOM     20  C   UNL     1       2.502   7.459  18.919  0.00  0.00    +0.000 C 
BRANCH  20  21
ATOM     21  C   UNL     1       1.515   8.584  18.982  0.00  0.00    +0.000 A 
ATOM     22  C   UNL     1       1.078   9.187  17.793  0.00  0.00    +0.000 A 
ATOM     23  C   UNL     1       0.132  10.210  17.828  0.00  0.00    +0.000 A 
ATOM     24  C   UNL     1      -0.393  10.631  19.045  0.00  0.00    +0.000 A 
ATOM     25  C   UNL     1       0.019  10.040  20.246  0.00  0.00    +0.000 A 
ATOM     26  C   UNL     1       1.005   9.027  20.228  0.00  0.00    +0.000 A 
ATOM     27  C   UNL     1       1.465   8.400  21.531  0.00  0.00    +0.000 C 
ATOM     28  C   UNL     1       1.080   9.174  22.785  0.00  0.00    +0.000 C 
ATOM     29  C   UNL     1      -0.379   9.590  22.710  0.00  0.00    +0.000 C 
ATOM     30  C   UNL     1      -0.581  10.545  21.538  0.00  0.00    +0.000 C 
ENDBRANCH  20  21
ENDBRANCH  18  20
ENDBRANCH   1  18
TORSDOF 6
ENDMDL
MODEL 4
REMARK VINA RESULT:      -8.5      1.454      2.174
REMARK  Name = 
REMARK  6 active torsions:
REMARK  status: ('A' for Active; 'I' for Inactive)
REMARK    1  A    between atoms: C_2  and  C_3
REMARK    2  A    between atoms: C_2  and  C_20
REMARK    3  A    between atoms: C_3  and  C_4
REMARK    4  A    between atoms: C_4  and  C_5
REMARK    5  A    between atoms: C_4  and  N_14
REMARK    6  A    between atoms: N_7  and  C_8
REMARK                            x       y       z     vdW  Elec       q    Type
REMARK                         _______ _______ _______ _____ _____    ______ ____
ROOT
ATOM      1  C   UNL     1       3.540   4.748  19.558  0.00  0.00    +0.000 C 
ENDROOT
BRANCH   1   2
ATOM      2  N   UNL     1       3.822   3.368  20.083  0.00  0.00    +0.000 NA
ATOM      3  C   UNL     1       4.079   2.370  19.017  0.00  0.00    +0.000 C 
ATOM      4  C   UNL     1       2.825   2.006  18.202  0.00  0.00    +0.000 C 
ATOM      5  O   UNL     1       1.783   1.504  19.048  0.00  0.00    +0.000 OA
ATOM      6  C   UNL     1       1.468   2.433  20.093  0.00  0.00    +0.000 C 
ATOM      7  C   UNL     1       2.720   2.808  20.905  0.00  0.00    +0.000 C 
ENDBRANCH   1   2
BRANCH   1   8
ATOM      8  C   UNL     1       4.842   5.383  18.960  0.00  0.00    +0.000 C 
ATOM      9  O   UNL     1       5.866   5.559  19.615  0.00  0.00    +0.000 OA
ATOM     10  N   UNL     1       4.738   5.726  17.617  0.00  0.00    +0.000 N 
ATOM     11  H   UNL     1       3.920   5.429  17.108  0.00  0.00    +0.000 HD
BRANCH  10  12
ATOM     12  C   UNL     1       5.828   6.340  16.868  0.00  0.00    +0.000 C 
ATOM     13  C   UNL     1       7.126   5.534  17.014  0.00  0.00    +0.000 C 
ATOM     14  C   UNL     1       7.086   4.210  16.251  0.00  0.00    +0.000 C 
ATOM     15  C   UNL     1       6.740   4.417  14.780  0.00  0.00    +0.000 C 
ATOM     16  C   UNL     1       5.433   5.185  14.616  0.00  0.00    +0.000 C 
ATOM     17  C   UNL     1       5.452   6.506  15.386  0.00  0.00    +0.000 C 
ENDBRANCH  10  12
ENDBRANCH   1   8
BRANCH   1  18
ATOM     18  C   UNL     1       3.032   5.691  20.678  0.00  0.00    +0.000 C 
BRANCH  18  20
ATOM     19  O   UNL     1       0.642   5.681  20.542  0.00  0.00    +0.000 OA
ATOM     20  C   UNL     1       1.682   6.290  20.313  0.00  0.00    +0.000 C 
BRANCH  20  21
ATOM     21  C   UNL     1       1.631   7.674  19.742  0.00  0.00    +0.000 A 
ATOM     22  C   UNL     1       2.136   7.909  18.455  0.00  0.00    +0.000 A 
ATOM     23  C   UNL     1       2.063   9.182  17.892  0.00  0.00    +0.000 A 
ATOM     24  C   UNL     1       1.477  10.225  18.601  0.00  0.00    +0.000 A 
ATOM     25  C   UNL     1       0.955  10.015  19.884  0.00  0.00    +0.000 A 
ATOM     26  C   UNL     1       1.056   8.738  20.482  0.00  0.00    +0.000 A 
ATOM     27  C   UNL     1       0.508   8.515  21.880  0.00  0.00    +0.000 C 
ATOM     28  C   UNL     1       0.216   9.789  22.663  0.00  0.00    +0.000 C 
ATOM     29  C   UNL     1      -0.539  10.775  21.788  0.00  0.00    +0.000 C 
ATOM     30  C   UNL     1       0.336  11.188  20.609  0.00  0.00    +0.000 C 
ENDBRANCH  20  21
ENDBRANCH  18  20
ENDBRANCH   1  18
TORSDOF 6
ENDMDL
MODEL 5
REMARK VINA RESULT:      -8.5      1.770      5.161
REMARK  Name = 
REMARK  6 active torsions:
REMARK  status: ('A' for Active; 'I' for Inactive)
REMARK    1  A    between atoms: C_2  and  C_3
REMARK    2  A    between atoms: C_2  and  C_20
REMARK    3  A    between atoms: C_3  and  C_4
REMARK    4  A    between atoms: C_4  and  C_5
REMARK    5  A    between atoms: C_4  and  N_14
REMARK    6  A    between atoms: N_7  and  C_8
REMARK                            x       y       z     vdW  Elec       q    Type
REMARK                         _______ _______ _______ _____ _____    ______ ____
ROOT
ATOM      1  C   UNL     1       5.017   5.601  18.188  0.00  0.00    +0.000 C 
ENDROOT
BRANCH   1   2
ATOM      2  N   UNL     1       6.220   5.527  17.289  0.00  0.00    +0.000 NA
ATOM      3  C   UNL     1       7.456   5.096  17.985  0.00  0.00    +0.000 C 
ATOM      4  C   UNL     1       8.014   6.153  18.955  0.00  0.00    +0.000 C 
ATOM      5  O   UNL     1       8.284   7.388  18.280  0.00  0.00    +0.000 OA
ATOM      6  C   UNL     1       7.120   7.874  17.599  0.00  0.00    +0.000 C 
ATOM      7  C   UNL     1       6.553   6.818  16.635  0.00  0.00    +0.000 C 
ENDBRANCH   1   2
BRANCH   1   8
ATOM      8  C   UNL     1       4.779   4.223  18.895  0.00  0.00    +0.000 C 
ATOM      9  O   UNL     1       5.610   3.690  19.626  0.00  0.00    +0.000 OA
ATOM     10  N   UNL     1       3.538   3.657  18.627  0.00  0.00    +0.000 N 
ATOM     11  H   UNL     1       2.855   4.210  18.133  0.00  0.00    +0.000 HD
BRANCH  10  12
ATOM     12  C   UNL     1       3.116   2.373  19.174  0.00  0.00    +0.000 C 
ATOM     13  C   UNL     1       3.415   2.284  20.677  0.00  0.00    +0.000 C 
ATOM     14  C   UNL     1       2.490   3.167  21.514  0.00  0.00    +0.000 C 
ATOM     15  C   UNL     1       1.021   2.869  21.237  0.00  0.00    +0.000 C 
ATOM     16  C   UNL     1       0.697   2.988  19.751  0.00  0.00    +0.000 C 
ATOM     17  C   UNL     1       1.624   2.121  18.899  0.00  0.00    +0.000 C 
ENDBRANCH  10  12
ENDBRANCH   1   8
BRANCH   1  18
ATOM     18  C   UNL     1       3.733   5.948  17.394  0.00  0.00    +0.000 C 
BRANCH  18  20
ATOM     19  O   UNL     1       3.499   8.299  17.005  0.00  0.00    +0.000 OA
ATOM     20  C   UNL     1       3.245   7.348  17.736  0.00  0.00    +0.000 C 
BRANCH  20  21
ATOM     21  C   UNL     1       2.376   7.541  18.941  0.00  0.00    +0.000 A 
ATOM     22  C   UNL     1       2.218   6.488  19.855  0.00  0.00    +0.000 A 
ATOM     23  C   UNL     1       1.444   6.660  21.001  0.00  0.00    +0.000 A 
ATOM     24  C   UNL     1       0.832   7.884  21.251  0.00  0.00    +0.000 A 
ATOM     25  C   UNL     1       0.981   8.955  20.359  0.00  0.00    +0.000 A 
ATOM     26  C   UNL     1       1.732   8.782  19.175  0.00  0.00    +0.000 A 
ATOM     27  C   UNL     1       1.877   9.936  18.200  0.00  0.00    +0.000 C 
ATOM     28  C   UNL     1       0.895  11.081  18.412  0.00  0.00    +0.000 C 
ATOM     29  C   UNL     1       0.828  11.442  19.885  0.00  0.00    +0.000 C 
ATOM     30  C   UNL     1       0.286  10.258  20.680  0.00  0.00    +0.000 C 
ENDBRANCH  20  21
ENDBRANCH  18  20
ENDBRANCH   1  18
TORSDOF 6
ENDMDL
MODEL 6
REMARK VINA RESULT:      -8.4      1.784      3.125
REMARK  Name = 
REMARK  6 active torsions:
REMARK  status: ('A' for Active; 'I' for Inactive)
REMARK    1  A    between atoms: C_2  and  C_3
REMARK    2  A    between atoms: C_2  and  C_20
REMARK    3  A    between atoms: C_3  and  C_4
REMARK    4  A    between atoms: C_4  and  C_5
REMARK    5  A    between atoms: C_4  and  N_14
REMARK    6  A    between atoms: N_7  and  C_8
REMARK                            x       y       z     vdW  Elec       q    Type
REMARK                         _______ _______ _______ _____ _____    ______ ____
ROOT
ATOM      1  C   UNL     1       2.779   5.261  19.402  0.00  0.00    +0.000 C 
ENDROOT
BRANCH   1   2
ATOM      2  N   UNL     1       2.819   3.859  19.943  0.00  0.00    +0.000 NA
ATOM      3  C   UNL     1       3.317   2.860  18.966  0.00  0.00    +0.000 C 
ATOM      4  C   UNL     1       2.334   2.587  17.813  0.00  0.00    +0.000 C 
ATOM      5  O   UNL     1       1.065   2.140  18.307  0.00  0.00    +0.000 OA
ATOM      6  C   UNL     1       0.514   3.074  19.245  0.00  0.00    +0.000 C 
ATOM      7  C   UNL     1       1.496   3.359  20.395  0.00  0.00    +0.000 C 
ENDBRANCH   1   2
BRANCH   1   8
ATOM      8  C   UNL     1       4.210   5.714  18.952  0.00  0.00    +0.000 C 
ATOM      9  O   UNL     1       5.169   5.774  19.719  0.00  0.00    +0.000 OA
ATOM     10  N   UNL     1       4.303   6.039  17.605  0.00  0.00    +0.000 N 
ATOM     11  H   UNL     1       3.516   5.837  17.007  0.00  0.00    +0.000 HD
BRANCH  10  12
ATOM     12  C   UNL     1       5.539   6.497  16.981  0.00  0.00    +0.000 C 
ATOM     13  C   UNL     1       6.731   5.627  17.407  0.00  0.00    +0.000 C 
ATOM     14  C   UNL     1       6.697   4.234  16.778  0.00  0.00    +0.000 C 
ATOM     15  C   UNL     1       6.594   4.303  15.259  0.00  0.00    +0.000 C 
ATOM     16  C   UNL     1       5.394   5.133  14.817  0.00  0.00    +0.000 C 
ATOM     17  C   UNL     1       5.405   6.526  15.449  0.00  0.00    +0.000 C 
ENDBRANCH  10  12
ENDBRANCH   1   8
BRANCH   1  18
ATOM     18  C   UNL     1       2.282   6.269  20.468  0.00  0.00    +0.000 C 
BRANCH  18  20
ATOM     19  O   UNL     1       2.296   7.865  18.684  0.00  0.00    +0.000 OA
ATOM     20  C   UNL     1       1.954   7.613  19.834  0.00  0.00    +0.000 C 
BRANCH  20  21
ATOM     21  C   UNL     1       1.134   8.600  20.606  0.00  0.00    +0.000 A 
ATOM     22  C   UNL     1       1.206   8.613  22.007  0.00  0.00    +0.000 A 
ATOM     23  C   UNL     1       0.479   9.549  22.741  0.00  0.00    +0.000 A 
ATOM     24  C   UNL     1      -0.314  10.485  22.085  0.00  0.00    +0.000 A 
ATOM     25  C   UNL     1      -0.396  10.500  20.686  0.00  0.00    +0.000 A 
ATOM     26  C   UNL     1       0.306   9.533  19.932  0.00  0.00    +0.000 A 
ATOM     27  C   UNL     1       0.202   9.538  18.418  0.00  0.00    +0.000 C 
ATOM     28  C   UNL     1      -0.945  10.369  17.858  0.00  0.00    +0.000 C 
ATOM     29  C   UNL     1      -0.989  11.723  18.545  0.00  0.00    +0.000 C 
ATOM     30  C   UNL     1      -1.280  11.535  20.030  0.00  0.00    +0.000 C 
ENDBRANCH  20  21
ENDBRANCH  18  20
ENDBRANCH   1  18
TORSDOF 6
ENDMDL
MODEL 7
REMARK VINA RESULT:      -8.4      1.819      2.801
REMARK  Name = 
REMARK  6 active torsions:
REMARK  status: ('A' for Active; 'I' for Inactive)
REMARK    1  A    between atoms: C_2  and  C_3
REMARK    2  A    between atoms: C_2  and  C_20
REMARK    3  A    between atoms: C_3  and  C_4
REMARK    4  A    between atoms: C_4  and  C_5
REMARK    5  A    between atoms: C_4  and  N_14
REMARK    6  A    between atoms: N_7  and  C_8
REMARK                            x       y       z     vdW  Elec       q    Type
REMARK                         _______ _______ _______ _____ _____    ______ ____
ROOT
ATOM      1  C   UNL     1       2.759   5.325  19.278  0.00  0.00    +0.000 C 
ENDROOT
BRANCH   1   2
ATOM      2  N   UNL     1       2.547   4.123  20.155  0.00  0.00    +0.000 NA
ATOM      3  C   UNL     1       3.291   2.921  19.706  0.00  0.00    +0.000 C 
ATOM      4  C   UNL     1       2.736   2.305  18.409  0.00  0.00    +0.000 C 
ATOM      5  O   UNL     1       1.354   1.952  18.551  0.00  0.00    +0.000 OA
ATOM      6  C   UNL     1       0.570   3.078  18.965  0.00  0.00    +0.000 C 
ATOM      7  C   UNL     1       1.126   3.705  20.256  0.00  0.00    +0.000 C 
ENDBRANCH   1   2
BRANCH   1   8
ATOM      8  C   UNL     1       4.280   5.494  18.941  0.00  0.00    +0.000 C 
ATOM      9  O   UNL     1       5.153   5.588  19.801  0.00  0.00    +0.000 OA
ATOM     10  N   UNL     1       4.558   5.525  17.580  0.00  0.00    +0.000 N 
ATOM     11  H   UNL     1       3.816   5.306  16.933  0.00  0.00    +0.000 HD
BRANCH  10  12
ATOM     12  C   UNL     1       5.906   5.688  17.048  0.00  0.00    +0.000 C 
ATOM     13  C   UNL     1       6.610   4.332  16.895  0.00  0.00    +0.000 C 
ATOM     14  C   UNL     1       6.043   3.502  15.743  0.00  0.00    +0.000 C 
ATOM     15  C   UNL     1       6.063   4.273  14.428  0.00  0.00    +0.000 C 
ATOM     16  C   UNL     1       5.336   5.607  14.551  0.00  0.00    +0.000 C 
ATOM     17  C   UNL     1       5.882   6.445  15.709  0.00  0.00    +0.000 C 
ENDBRANCH  10  12
ENDBRANCH   1   8
BRANCH   1  18
ATOM     18  C   UNL     1       2.285   6.627  19.970  0.00  0.00    +0.000 C 
BRANCH  18  20
ATOM     19  O   UNL     1       2.990   7.812  18.013  0.00  0.00    +0.000 OA
ATOM     20  C   UNL     1       2.238   7.782  18.981  0.00  0.00    +0.000 C 
BRANCH  20  21
ATOM     21  C   UNL     1       1.201   8.849  19.158  0.00  0.00    +0.000 A 
ATOM     22  C   UNL     1       0.619   9.441  18.028  0.00  0.00    +0.000 A 
ATOM     23  C   UNL     1      -0.373  10.409  18.171  0.00  0.00    +0.000 A 
ATOM     24  C   UNL     1      -0.801  10.784  19.440  0.00  0.00    +0.000 A 
ATOM     25  C   UNL     1      -0.243  10.202  20.587  0.00  0.00    +0.000 A 
ATOM     26  C   UNL     1       0.790   9.247  20.455  0.00  0.00    +0.000 A 
ATOM     27  C   UNL     1       1.408   8.630  21.697  0.00  0.00    +0.000 C 
ATOM     28  C   UNL     1       1.103   9.365  22.996  0.00  0.00    +0.000 C 
ATOM     29  C   UNL     1      -0.377   9.699  23.069  0.00  0.00    +0.000 C 
ATOM     30  C   UNL     1      -0.743  10.656  21.939  0.00  0.00    +0.000 C 
ENDBRANCH  20  21
ENDBRANCH  18  20
ENDBRANCH   1  18
TORSDOF 6
ENDMDL
MODEL 8
REMARK VINA RESULT:      -8.3      1.434      4.787
REMARK  Name = 
REMARK  6 active torsions:
REMARK  status: ('A' for Active; 'I' for Inactive)
REMARK    1  A    between atoms: C_2  and  C_3
REMARK    2  A    between atoms: C_2  and  C_20
REMARK    3  A    between atoms: C_3  and  C_4
REMARK    4  A    between atoms: C_4  and  C_5
REMARK    5  A    between atoms: C_4  and  N_14
REMARK    6  A    between atoms: N_7  and  C_8
REMARK                            x       y       z     vdW  Elec       q    Type
REMARK                         _______ _______ _______ _____ _____    ______ ____
ROOT
ATOM      1  C   UNL     1       4.860   5.642  18.139  0.00  0.00    +0.000 C 
ENDROOT
BRANCH   1   2
ATOM      2  N   UNL     1       6.059   5.653  17.233  0.00  0.00    +0.000 NA
ATOM      3  C   UNL     1       7.267   5.043  17.840  0.00  0.00    +0.000 C 
ATOM      4  C   UNL     1       7.880   5.890  18.970  0.00  0.00    +0.000 C 
ATOM      5  O   UNL     1       8.222   7.203  18.509  0.00  0.00    +0.000 OA
ATOM      6  C   UNL     1       7.089   7.861  17.928  0.00  0.00    +0.000 C 
ATOM      7  C   UNL     1       6.466   7.015  16.803  0.00  0.00    +0.000 C 
ENDBRANCH   1   2
BRANCH   1   8
ATOM      8  C   UNL     1       4.263   4.196  18.238  0.00  0.00    +0.000 C 
ATOM      9  O   UNL     1       4.002   3.508  17.255  0.00  0.00    +0.000 OA
ATOM     10  N   UNL     1       4.060   3.757  19.541  0.00  0.00    +0.000 N 
ATOM     11  H   UNL     1       4.423   4.315  20.298  0.00  0.00    +0.000 HD
BRANCH  10  12
ATOM     12  C   UNL     1       3.502   2.447  19.859  0.00  0.00    +0.000 C 
ATOM     13  C   UNL     1       3.166   2.334  21.352  0.00  0.00    +0.000 C 
ATOM     14  C   UNL     1       1.946   3.168  21.745  0.00  0.00    +0.000 C 
ATOM     15  C   UNL     1       0.731   2.828  20.891  0.00  0.00    +0.000 C 
ATOM     16  C   UNL     1       1.035   2.970  19.403  0.00  0.00    +0.000 C 
ATOM     17  C   UNL     1       2.263   2.153  18.997  0.00  0.00    +0.000 C 
ENDBRANCH  10  12
ENDBRANCH   1   8
BRANCH   1  18
ATOM     18  C   UNL     1       3.740   6.575  17.615  0.00  0.00    +0.000 C 
BRANCH  18  20
ATOM     19  O   UNL     1       2.508   6.128  19.618  0.00  0.00    +0.000 OA
ATOM     20  C   UNL     1       2.763   6.930  18.726  0.00  0.00    +0.000 C 
BRANCH  20  21
ATOM     21  C   UNL     1       2.174   8.306  18.765  0.00  0.00    +0.000 A 
ATOM     22  C   UNL     1       2.305   9.145  17.648  0.00  0.00    +0.000 A 
ATOM     23  C   UNL     1       1.732  10.416  17.651  0.00  0.00    +0.000 A 
ATOM     24  C   UNL     1       1.015  10.854  18.759  0.00  0.00    +0.000 A 
ATOM     25  C   UNL     1       0.860  10.032  19.883  0.00  0.00    +0.000 A 
ATOM     26  C   UNL     1       1.468   8.756  19.908  0.00  0.00    +0.000 A 
ATOM     27  C   UNL     1       1.317   7.874  21.134  0.00  0.00    +0.000 C 
ATOM     28  C   UNL     1       0.817   8.592  22.382  0.00  0.00    +0.000 C 
ATOM     29  C   UNL     1      -0.367   9.477  22.033  0.00  0.00    +0.000 C 
ATOM     30  C   UNL     1       0.076  10.565  21.060  0.00  0.00    +0.000 C 
ENDBRANCH  20  21
ENDBRANCH  18  20
ENDBRANCH   1  18
TORSDOF 6
ENDMDL
MODEL 9
REMARK VINA RESULT:      -8.3      1.344      2.365
REMARK  Name = 
REMARK  6 active torsions:
REMARK  status: ('A' for Active; 'I' for Inactive)
REMARK    1  A    between atoms: C_2  and  C_3
REMARK    2  A    between atoms: C_2  and  C_20
REMARK    3  A    between atoms: C_3  and  C_4
REMARK    4  A    between atoms: C_4  and  C_5
REMARK    5  A    between atoms: C_4  and  N_14
REMARK    6  A    between atoms: N_7  and  C_8
REMARK                            x       y       z     vdW  Elec       q    Type
REMARK                         _______ _______ _______ _____ _____    ______ ____
ROOT
ATOM      1  C   UNL     1       2.904   5.191  19.018  0.00  0.00    +0.000 C 
ENDROOT
BRANCH   1   2
ATOM      2  N   UNL     1       2.956   4.036  19.978  0.00  0.00    +0.000 NA
ATOM      3  C   UNL     1       3.048   2.714  19.312  0.00  0.00    +0.000 C 
ATOM      4  C   UNL     1       1.752   2.299  18.593  0.00  0.00    +0.000 C 
ATOM      5  O   UNL     1       0.641   2.271  19.497  0.00  0.00    +0.000 OA
ATOM      6  C   UNL     1       0.481   3.531  20.163  0.00  0.00    +0.000 C 
ATOM      7  C   UNL     1       1.777   3.956  20.876  0.00  0.00    +0.000 C 
ENDBRANCH   1   2
BRANCH   1   8
ATOM      8  C   UNL     1       4.033   5.058  17.940  0.00  0.00    +0.000 C 
ATOM      9  O   UNL     1       3.813   4.759  16.769  0.00  0.00    +0.000 OA
ATOM     10  N   UNL     1       5.310   5.312  18.425  0.00  0.00    +0.000 N 
ATOM     11  H   UNL     1       5.405   5.684  19.357  0.00  0.00    +0.000 HD
BRANCH  10  12
ATOM     12  C   UNL     1       6.506   5.232  17.593  0.00  0.00    +0.000 C 
ATOM     13  C   UNL     1       6.619   6.449  16.663  0.00  0.00    +0.000 C 
ATOM     14  C   UNL     1       6.986   7.730  17.413  0.00  0.00    +0.000 C 
ATOM     15  C   UNL     1       8.259   7.558  18.234  0.00  0.00    +0.000 C 
ATOM     16  C   UNL     1       8.151   6.375  19.191  0.00  0.00    +0.000 C 
ATOM     17  C   UNL     1       7.769   5.088  18.458  0.00  0.00    +0.000 C 
ENDBRANCH  10  12
ENDBRANCH   1   8
BRANCH   1  18
ATOM     18  C   UNL     1       3.107   6.545  19.743  0.00  0.00    +0.000 C 
BRANCH  18  20
ATOM     19  O   UNL     1       2.058   7.738  17.953  0.00  0.00    +0.000 OA
ATOM     20  C   UNL     1       2.191   7.614  19.165  0.00  0.00    +0.000 C 
BRANCH  20  21
ATOM     21  C   UNL     1       1.387   8.465  20.099  0.00  0.00    +0.000 A 
ATOM     22  C   UNL     1       1.558   8.322  21.484  0.00  0.00    +0.000 A 
ATOM     23  C   UNL     1       0.846   9.131  22.369  0.00  0.00    +0.000 A 
ATOM     24  C   UNL     1      -0.029  10.095  21.880  0.00  0.00    +0.000 A 
ATOM     25  C   UNL     1      -0.211  10.266  20.501  0.00  0.00    +0.000 A 
ATOM     26  C   UNL     1       0.476   9.426  19.594  0.00  0.00    +0.000 A 
ATOM     27  C   UNL     1       0.265   9.599  18.101  0.00  0.00    +0.000 C 
ATOM     28  C   UNL     1      -0.952  10.431  17.719  0.00  0.00    +0.000 C 
ATOM     29  C   UNL     1      -1.003  11.694  18.561  0.00  0.00    +0.000 C 
ATOM     30  C   UNL     1      -1.181  11.324  20.030  0.00  0.00    +0.000 C 
ENDBRANCH  20  21
ENDBRANCH  18  20
ENDBRANCH   1  18
TORSDOF 6
ENDMDL
