MODEL 1
REMARK VINA RESULT:      -8.3      0.000      0.000
REMARK  Name = 
REMARK  5 active torsions:
REMARK  status: ('A' for Active; 'I' for Inactive)
REMARK    1  A    between atoms: C_1  and  C_2
REMARK    2  A    between atoms: C_5  and  C_6
REMARK    3  A    between atoms: C_9  and  C_10
REMARK    4  A    between atoms: C_11  and  C_12
REMARK    5  A    between atoms: N_20  and  C_21
REMARK                            x       y       z     vdW  Elec       q    Type
REMARK                         _______ _______ _______ _____ _____    ______ ____
ROOT
ATOM      1  C   UNL     1       8.526   8.919  18.520  0.00  0.00    +0.000 C 
ATOM      2  C   UNL     1       7.756   8.602  17.464  0.00  0.00    +0.000 C 
ENDROOT
BRANCH   1  11
ATOM      3  C   UNL     1       9.422  12.791  22.297  0.00  0.00    +0.000 C 
ATOM      4  C   UNL     1      10.017  12.875  20.920  0.00  0.00    +0.000 A 
ATOM      5  N   UNL     1      10.748  13.926  20.633  0.00  0.00    +0.000 NA
ATOM      6  C   UNL     1      11.289  14.016  19.364  0.00  0.00    +0.000 A 
ATOM      7  C   UNL     1      11.117  13.096  18.401  0.00  0.00    +0.000 A 
ATOM      8  C   UNL     1      11.719  13.241  17.038  0.00  0.00    +0.000 C 
ATOM      9  N   UNL     1      10.341  11.963  18.694  0.00  0.00    +0.000 N 
ATOM     10  N   UNL     1       9.984  10.882  17.933  0.00  0.00    +0.000 NA
ATOM     11  C   UNL     1       9.218  10.165  18.779  0.00  0.00    +0.000 A 
ATOM     12  N   UNL     1       9.082  10.728  20.033  0.00  0.00    +0.000 NA
ATOM     13  C   UNL     1       9.782  11.837  19.946  0.00  0.00    +0.000 A 
ENDBRANCH   1  11
BRANCH   2  14
ATOM     14  C   UNL     1       7.061   7.354  17.228  0.00  0.00    +0.000 A 
ATOM     15  N   UNL     1       5.793   7.083  17.726  0.00  0.00    +0.000 NA
ATOM     16  C   UNL     1       5.530   5.845  17.328  0.00  0.00    +0.000 A 
ATOM     17  N   UNL     1       4.412   5.070  17.509  0.00  0.00    +0.000 N 
ATOM     18  C   UNL     1       3.119   5.659  17.839  0.00  0.00    +0.000 C 
ATOM     19  C   UNL     1       2.582   4.807  18.987  0.00  0.00    +0.000 C 
ATOM     20  C   UNL     1       3.145   3.430  18.699  0.00  0.00    +0.000 C 
ATOM     21  C   UNL     1       4.501   3.707  18.049  0.00  0.00    +0.000 C 
ATOM     22  N   UNL     1       6.595   5.429  16.556  0.00  0.00    +0.000 N 
ATOM     23  C   UNL     1       6.739   4.234  15.768  0.00  0.00    +0.000 C 
ATOM     24  N   UNL     1       7.574   6.359  16.501  0.00  0.00    +0.000 NA
ENDBRANCH   2  14
TORSDOF 2
ENDMDL
MODEL 2
REMARK VINA RESULT:      -8.2      0.679      2.066
REMARK  Name = 
REMARK  5 active torsions:
REMARK  status: ('A' for Active; 'I' for Inactive)
REMARK    1  A    between atoms: C_1  and  C_2
REMARK    2  A    between atoms: C_5  and  C_6
REMARK    3  A    between atoms: C_9  and  C_10
REMARK    4  A    between atoms: C_11  and  C_12
REMARK    5  A    between atoms: N_20  and  C_21
REMARK                            x       y       z     vdW  Elec       q    Type
REMARK                         _______ _______ _______ _____ _____    ______ ____
ROOT
ATOM      1  C   UNL     1       8.597   9.135  18.545  0.00  0.00    +0.000 C 
ATOM      2  C   UNL     1       7.676   8.868  17.602  0.00  0.00    +0.000 C 
ENDROOT
BRANCH   1  11
ATOM      3  C   UNL     1      11.819  13.154  16.665  0.00  0.00    +0.000 C 
ATOM      4  C   UNL     1      11.235  13.188  18.049  0.00  0.00    +0.000 A 
ATOM      5  N   UNL     1      11.540  14.208  18.816  0.00  0.00    +0.000 NA
ATOM      6  C   UNL     1      11.017  14.240  20.096  0.00  0.00    +0.000 A 
ATOM      7  C   UNL     1      10.213  13.295  20.608  0.00  0.00    +0.000 A 
ATOM      8  C   UNL     1       9.676  13.371  22.004  0.00  0.00    +0.000 C 
ATOM      9  N   UNL     1       9.874  12.199  19.799  0.00  0.00    +0.000 N 
ATOM     10  N   UNL     1       9.101  11.095  20.038  0.00  0.00    +0.000 NA
ATOM     11  C   UNL     1       9.189  10.414  18.878  0.00  0.00    +0.000 A 
ATOM     12  N   UNL     1       9.966  11.033  17.918  0.00  0.00    +0.000 NA
ATOM     13  C   UNL     1      10.377  12.128  18.519  0.00  0.00    +0.000 A 
ENDBRANCH   1  11
BRANCH   2  14
ATOM     14  C   UNL     1       7.086   7.583  17.292  0.00  0.00    +0.000 A 
ATOM     15  N   UNL     1       5.831   7.194  17.742  0.00  0.00    +0.000 NA
ATOM     16  C   UNL     1       5.673   5.959  17.282  0.00  0.00    +0.000 A 
ATOM     17  N   UNL     1       4.615   5.094  17.398  0.00  0.00    +0.000 N 
ATOM     18  C   UNL     1       3.272   5.567  17.718  0.00  0.00    +0.000 C 
ATOM     19  C   UNL     1       2.775   4.624  18.812  0.00  0.00    +0.000 C 
ATOM     20  C   UNL     1       3.450   3.308  18.479  0.00  0.00    +0.000 C 
ATOM     21  C   UNL     1       4.795   3.718  17.879  0.00  0.00    +0.000 C 
ATOM     22  N   UNL     1       6.786   5.661  16.522  0.00  0.00    +0.000 N 
ATOM     23  C   UNL     1       7.041   4.518  15.686  0.00  0.00    +0.000 C 
ATOM     24  N   UNL     1       7.692   6.664  16.536  0.00  0.00    +0.000 NA
ENDBRANCH   2  14
TORSDOF 2
ENDMDL
MODEL 3
REMARK VINA RESULT:      -8.1      1.666      9.319
REMARK  Name = 
REMARK  5 active torsions:
REMARK  status: ('A' for Active; 'I' for Inactive)
REMARK    1  A    between atoms: C_1  and  C_2
REMARK    2  A    between atoms: C_5  and  C_6
REMARK    3  A    between atoms: C_9  and  C_10
REMARK    4  A    between atoms: C_11  and  C_12
REMARK    5  A    between atoms: N_20  and  C_21
REMARK                            x       y       z     vdW  Elec       q    Type
REMARK                         _______ _______ _______ _____ _____    ______ ____
ROOT
ATOM      1  C   UNL     1       8.251   8.191  18.301  0.00  0.00    +0.000 C 
ATOM      2  C   UNL     1       8.233   9.445  17.816  0.00  0.00    +0.000 C 
ENDROOT
BRANCH   1  11
ATOM      3  C   UNL     1       7.231   5.067  13.912  0.00  0.00    +0.000 C 
ATOM      4  C   UNL     1       6.570   4.812  15.237  0.00  0.00    +0.000 A 
ATOM      5  N   UNL     1       5.711   3.823  15.312  0.00  0.00    +0.000 NA
ATOM      6  C   UNL     1       5.089   3.590  16.524  0.00  0.00    +0.000 A 
ATOM      7  C   UNL     1       5.306   4.311  17.636  0.00  0.00    +0.000 A 
ATOM      8  C   UNL     1       4.602   4.024  18.926  0.00  0.00    +0.000 C 
ATOM      9  N   UNL     1       6.225   5.371  17.574  0.00  0.00    +0.000 N 
ATOM     10  N   UNL     1       6.641   6.272  18.517  0.00  0.00    +0.000 NA
ATOM     11  C   UNL     1       7.510   7.040  17.830  0.00  0.00    +0.000 A 
ATOM     12  N   UNL     1       7.673   6.665  16.511  0.00  0.00    +0.000 NA
ATOM     13  C   UNL     1       6.864   5.637  16.384  0.00  0.00    +0.000 A 
ENDBRANCH   1  11
BRANCH   2  14
ATOM     14  C   UNL     1       8.992  10.581  18.294  0.00  0.00    +0.000 A 
ATOM     15  N   UNL     1       8.637  11.898  18.031  0.00  0.00    +0.000 NA
ATOM     16  C   UNL     1       9.590  12.626  18.601  0.00  0.00    +0.000 A 
ATOM     17  N   UNL     1       9.742  13.987  18.682  0.00  0.00    +0.000 N 
ATOM     18  C   UNL     1       8.616  14.896  18.492  0.00  0.00    +0.000 C 
ATOM     19  C   UNL     1       9.136  15.973  17.543  0.00  0.00    +0.000 C 
ATOM     20  C   UNL     1      10.608  16.071  17.893  0.00  0.00    +0.000 C 
ATOM     21  C   UNL     1      10.995  14.646  18.290  0.00  0.00    +0.000 C 
ATOM     22  N   UNL     1      10.445  11.752  19.240  0.00  0.00    +0.000 N 
ATOM     23  C   UNL     1      11.544  12.034  20.125  0.00  0.00    +0.000 C 
ATOM     24  N   UNL     1      10.093  10.462  19.039  0.00  0.00    +0.000 NA
ENDBRANCH   2  14
TORSDOF 2
ENDMDL
MODEL 4
REMARK VINA RESULT:      -8.1      1.333      1.695
REMARK  Name = 
REMARK  5 active torsions:
REMARK  status: ('A' for Active; 'I' for Inactive)
REMARK    1  A    between atoms: C_1  and  C_2
REMARK    2  A    between atoms: C_5  and  C_6
REMARK    3  A    between atoms: C_9  and  C_10
REMARK    4  A    between atoms: C_11  and  C_12
REMARK    5  A    between atoms: N_20  and  C_21
REMARK                            x       y       z     vdW  Elec       q    Type
REMARK                         _______ _______ _______ _____ _____    ______ ____
ROOT
ATOM      1  C   UNL     1       7.830   9.505  17.548  0.00  0.00    +0.000 C 
ATOM      2  C   UNL     1       7.999   8.199  17.822  0.00  0.00    +0.000 C 
ENDROOT
BRANCH   1  11
ATOM      3  C   UNL     1       8.039  14.977  17.812  0.00  0.00    +0.000 C 
ATOM      4  C   UNL     1       9.138  14.115  18.364  0.00  0.00    +0.000 A 
ATOM      5  N   UNL     1      10.176  14.714  18.898  0.00  0.00    +0.000 NA
ATOM      6  C   UNL     1      11.198  13.927  19.397  0.00  0.00    +0.000 A 
ATOM      7  C   UNL     1      11.199  12.585  19.374  0.00  0.00    +0.000 A 
ATOM      8  C   UNL     1      12.333  11.775  19.922  0.00  0.00    +0.000 C 
ATOM      9  N   UNL     1      10.094  11.928  18.810  0.00  0.00    +0.000 N 
ATOM     10  N   UNL     1       9.816  10.599  18.635  0.00  0.00    +0.000 NA
ATOM     11  C   UNL     1       8.618  10.625  18.017  0.00  0.00    +0.000 A 
ATOM     12  N   UNL     1       8.121  11.896  17.803  0.00  0.00    +0.000 NA
ATOM     13  C   UNL     1       9.057  12.676  18.299  0.00  0.00    +0.000 A 
ENDBRANCH   1  11
BRANCH   2  14
ATOM     14  C   UNL     1       7.207   7.090  17.333  0.00  0.00    +0.000 A 
ATOM     15  N   UNL     1       5.941   6.788  17.816  0.00  0.00    +0.000 NA
ATOM     16  C   UNL     1       5.573   5.701  17.149  0.00  0.00    +0.000 A 
ATOM     17  N   UNL     1       4.409   4.977  17.198  0.00  0.00    +0.000 N 
ATOM     18  C   UNL     1       3.174   5.550  17.724  0.00  0.00    +0.000 C 
ATOM     19  C   UNL     1       2.616   4.482  18.663  0.00  0.00    +0.000 C 
ATOM     20  C   UNL     1       3.066   3.182  18.028  0.00  0.00    +0.000 C 
ATOM     21  C   UNL     1       4.415   3.522  17.393  0.00  0.00    +0.000 C 
ATOM     22  N   UNL     1       6.578   5.416  16.247  0.00  0.00    +0.000 N 
ATOM     23  C   UNL     1       6.606   4.439  15.191  0.00  0.00    +0.000 C 
ATOM     24  N   UNL     1       7.620   6.269  16.364  0.00  0.00    +0.000 NA
ENDBRANCH   2  14
TORSDOF 2
ENDMDL
MODEL 5
REMARK VINA RESULT:      -7.9      1.162      8.903
REMARK  Name = 
REMARK  5 active torsions:
REMARK  status: ('A' for Active; 'I' for Inactive)
REMARK    1  A    between atoms: C_1  and  C_2
REMARK    2  A    between atoms: C_5  and  C_6
REMARK    3  A    between atoms: C_9  and  C_10
REMARK    4  A    between atoms: C_11  and  C_12
REMARK    5  A    between atoms: N_20  and  C_21
REMARK                            x       y       z     vdW  Elec       q    Type
REMARK                         _______ _______ _______ _____ _____    ______ ____
ROOT
ATOM      1  C   UNL     1       8.303   8.085  18.245  0.00  0.00    +0.000 C 
ATOM      2  C   UNL     1       8.312   9.387  17.909  0.00  0.00    +0.000 C 
ENDROOT
BRANCH   1  11
ATOM      3  C   UNL     1       4.494   4.280  19.280  0.00  0.00    +0.000 C 
ATOM      4  C   UNL     1       5.122   4.424  17.922  0.00  0.00    +0.000 A 
ATOM      5  N   UNL     1       4.747   3.587  16.983  0.00  0.00    +0.000 NA
ATOM      6  C   UNL     1       5.329   3.706  15.735  0.00  0.00    +0.000 A 
ATOM      7  C   UNL     1       6.256   4.624  15.417  0.00  0.00    +0.000 A 
ATOM      8  C   UNL     1       6.864   4.708  14.051  0.00  0.00    +0.000 C 
ATOM      9  N   UNL     1       6.666   5.528  16.409  0.00  0.00    +0.000 N 
ATOM     10  N   UNL     1       7.580   6.547  16.392  0.00  0.00    +0.000 NA
ATOM     11  C   UNL     1       7.526   7.015  17.655  0.00  0.00    +0.000 A 
ATOM     12  N   UNL     1       6.621   6.355  18.463  0.00  0.00    +0.000 NA
ATOM     13  C   UNL     1       6.111   5.442  17.667  0.00  0.00    +0.000 A 
ENDBRANCH   1  11
BRANCH   2  14
ATOM     14  C   UNL     1       9.107  10.441  18.503  0.00  0.00    +0.000 A 
ATOM     15  N   UNL     1       8.820  11.006  19.739  0.00  0.00    +0.000 NA
ATOM     16  C   UNL     1       9.743  11.944  19.907  0.00  0.00    +0.000 A 
ATOM     17  N   UNL     1       9.963  12.800  20.956  0.00  0.00    +0.000 N 
ATOM     18  C   UNL     1       9.435  12.528  22.289  0.00  0.00    +0.000 C 
ATOM     19  C   UNL     1       8.813  13.848  22.741  0.00  0.00    +0.000 C 
ATOM     20  C   UNL     1       9.681  14.895  22.072  0.00  0.00    +0.000 C 
ATOM     21  C   UNL     1      10.099  14.248  20.751  0.00  0.00    +0.000 C 
ATOM     22  N   UNL     1      10.593  11.879  18.821  0.00  0.00    +0.000 N 
ATOM     23  C   UNL     1      11.834  12.570  18.591  0.00  0.00    +0.000 C 
ATOM     24  N   UNL     1      10.194  10.953  17.921  0.00  0.00    +0.000 NA
ENDBRANCH   2  14
TORSDOF 2
ENDMDL
MODEL 6
REMARK VINA RESULT:      -7.6      1.721      3.192
REMARK  Name = 
REMARK  5 active torsions:
REMARK  status: ('A' for Active; 'I' for Inactive)
REMARK    1  A    between atoms: C_1  and  C_2
REMARK    2  A    between atoms: C_5  and  C_6
REMARK    3  A    between atoms: C_9  and  C_10
REMARK    4  A    between atoms: C_11  and  C_12
REMARK    5  A    between atoms: N_20  and  C_21
REMARK                            x       y       z     vdW  Elec       q    Type
REMARK                         _______ _______ _______ _____ _____    ______ ____
ROOT
ATOM      1  C   UNL     1       8.869   9.326  18.891  0.00  0.00    +0.000 C 
ATOM      2  C   UNL     1       8.179   8.883  17.824  0.00  0.00    +0.000 C 
ENDROOT
BRANCH   1  11
ATOM      3  C   UNL     1      11.897  13.356  16.734  0.00  0.00    +0.000 C 
ATOM      4  C   UNL     1      11.294  13.465  18.106  0.00  0.00    +0.000 A 
ATOM      5  N   UNL     1      11.535  14.556  18.794  0.00  0.00    +0.000 NA
ATOM      6  C   UNL     1      10.993  14.658  20.063  0.00  0.00    +0.000 A 
ATOM      7  C   UNL     1      10.234  13.713  20.640  0.00  0.00    +0.000 A 
ATOM      8  C   UNL     1       9.676  13.867  22.020  0.00  0.00    +0.000 C 
ATOM      9  N   UNL     1       9.965  12.541  19.915  0.00  0.00    +0.000 N 
ATOM     10  N   UNL     1       9.248  11.419  20.231  0.00  0.00    +0.000 NA
ATOM     11  C   UNL     1       9.388  10.656  19.129  0.00  0.00    +0.000 A 
ATOM     12  N   UNL     1      10.143  11.241  18.131  0.00  0.00    +0.000 NA
ATOM     13  C   UNL     1      10.487  12.399  18.649  0.00  0.00    +0.000 A 
ENDBRANCH   1  11
BRANCH   2  14
ATOM     14  C   UNL     1       7.657   7.550  17.610  0.00  0.00    +0.000 A 
ATOM     15  N   UNL     1       7.586   6.952  16.358  0.00  0.00    +0.000 NA
ATOM     16  C   UNL     1       7.024   5.771  16.577  0.00  0.00    +0.000 A 
ATOM     17  N   UNL     1       6.732   4.749  15.710  0.00  0.00    +0.000 N 
ATOM     18  C   UNL     1       7.390   4.635  14.413  0.00  0.00    +0.000 C 
ATOM     19  C   UNL     1       6.260   4.362  13.422  0.00  0.00    +0.000 C 
ATOM     20  C   UNL     1       5.254   3.578  14.240  0.00  0.00    +0.000 C 
ATOM     21  C   UNL     1       5.393   4.148  15.652  0.00  0.00    +0.000 C 
ATOM     22  N   UNL     1       6.835   5.654  17.939  0.00  0.00    +0.000 N 
ATOM     23  C   UNL     1       6.404   4.516  18.707  0.00  0.00    +0.000 C 
ATOM     24  N   UNL     1       7.209   6.773  18.600  0.00  0.00    +0.000 NA
ENDBRANCH   2  14
TORSDOF 2
ENDMDL
MODEL 7
REMARK VINA RESULT:      -7.6      6.607     10.203
REMARK  Name = 
REMARK  5 active torsions:
REMARK  status: ('A' for Active; 'I' for Inactive)
REMARK    1  A    between atoms: C_1  and  C_2
REMARK    2  A    between atoms: C_5  and  C_6
REMARK    3  A    between atoms: C_9  and  C_10
REMARK    4  A    between atoms: C_11  and  C_12
REMARK    5  A    between atoms: N_20  and  C_21
REMARK                            x       y       z     vdW  Elec       q    Type
REMARK                         _______ _______ _______ _____ _____    ______ ____
ROOT
ATOM      1  C   UNL     1       1.494   7.910  20.302  0.00  0.00    +0.000 C 
ATOM      2  C   UNL     1       1.345   8.936  19.445  0.00  0.00    +0.000 C 
ENDROOT
BRANCH   1  11
ATOM      3  C   UNL     1       1.643   2.589  21.614  0.00  0.00    +0.000 C 
ATOM      4  C   UNL     1       2.678   3.214  20.723  0.00  0.00    +0.000 A 
ATOM      5  N   UNL     1       3.646   2.448  20.279  0.00  0.00    +0.000 NA
ATOM      6  C   UNL     1       4.609   3.019  19.468  0.00  0.00    +0.000 A 
ATOM      7  C   UNL     1       4.621   4.311  19.101  0.00  0.00    +0.000 A 
ATOM      8  C   UNL     1       5.690   4.886  18.226  0.00  0.00    +0.000 C 
ATOM      9  N   UNL     1       3.589   5.143  19.565  0.00  0.00    +0.000 N 
ATOM     10  N   UNL     1       3.339   6.476  19.375  0.00  0.00    +0.000 NA
ATOM     11  C   UNL     1       2.219   6.673  20.098  0.00  0.00    +0.000 A 
ATOM     12  N   UNL     1       1.742   5.537  20.721  0.00  0.00    +0.000 NA
ATOM     13  C   UNL     1       2.612   4.613  20.377  0.00  0.00    +0.000 A 
ENDBRANCH   1  11
BRANCH   2  14
ATOM     14  C   UNL     1       0.626  10.172  19.673  0.00  0.00    +0.000 A 
ATOM     15  N   UNL     1      -0.081  10.437  20.839  0.00  0.00    +0.000 NA
ATOM     16  C   UNL     1      -0.618  11.635  20.646  0.00  0.00    +0.000 A 
ATOM     17  N   UNL     1      -1.395  12.406  21.472  0.00  0.00    +0.000 N 
ATOM     18  C   UNL     1      -1.422  12.194  22.915  0.00  0.00    +0.000 C 
ATOM     19  C   UNL     1      -2.903  12.207  23.286  0.00  0.00    +0.000 C 
ATOM     20  C   UNL     1      -3.510  13.169  22.284  0.00  0.00    +0.000 C 
ATOM     21  C   UNL     1      -2.674  12.971  21.020  0.00  0.00    +0.000 C 
ATOM     22  N   UNL     1      -0.176  12.087  19.419  0.00  0.00    +0.000 N 
ATOM     23  C   UNL     1      -0.341  13.380  18.810  0.00  0.00    +0.000 C 
ATOM     24  N   UNL     1       0.591  11.170  18.788  0.00  0.00    +0.000 NA
ENDBRANCH   2  14
TORSDOF 2
ENDMDL
MODEL 8
REMARK VINA RESULT:      -7.6      6.579     10.443
REMARK  Name = 
REMARK  5 active torsions:
REMARK  status: ('A' for Active; 'I' for Inactive)
REMARK    1  A    between atoms: C_1  and  C_2
REMARK    2  A    between atoms: C_5  and  C_6
REMARK    3  A    between atoms: C_9  and  C_10
REMARK    4  A    between atoms: C_11  and  C_12
REMARK    5  A    between atoms: N_20  and  C_21
REMARK                            x       y       z     vdW  Elec       q    Type
REMARK                         _______ _______ _______ _____ _____    ______ ____
ROOT
ATOM      1  C   UNL     1       1.771   7.831  19.914  0.00  0.00    +0.000 C 
ATOM      2  C   UNL     1       1.083   8.497  20.859  0.00  0.00    +0.000 C 
ENDROOT
BRANCH   1  11
ATOM      3  C   UNL     1       5.979   4.720  18.279  0.00  0.00    +0.000 C 
ATOM      4  C   UNL     1       4.874   4.171  19.137  0.00  0.00    +0.000 A 
ATOM      5  N   UNL     1       4.931   2.903  19.469  0.00  0.00    +0.000 NA
ATOM      6  C   UNL     1       3.911   2.388  20.249  0.00  0.00    +0.000 A 
ATOM      7  C   UNL     1       2.863   3.101  20.690  0.00  0.00    +0.000 A 
ATOM      8  C   UNL     1       1.778   2.496  21.527  0.00  0.00    +0.000 C 
ATOM      9  N   UNL     1       2.789   4.460  20.346  0.00  0.00    +0.000 N 
ATOM     10  N   UNL     1       1.859   5.423  20.631  0.00  0.00    +0.000 NA
ATOM     11  C   UNL     1       2.349   6.506  19.997  0.00  0.00    +0.000 A 
ATOM     12  N   UNL     1       3.543   6.282  19.339  0.00  0.00    +0.000 NA
ATOM     13  C   UNL     1       3.784   5.011  19.569  0.00  0.00    +0.000 A 
ENDBRANCH   1  11
BRANCH   2  14
ATOM     14  C   UNL     1       0.501   9.818  20.753  0.00  0.00    +0.000 A 
ATOM     15  N   UNL     1      -0.441  10.308  21.648  0.00  0.00    +0.000 NA
ATOM     16  C   UNL     1      -0.745  11.517  21.192  0.00  0.00    +0.000 A 
ATOM     17  N   UNL     1      -1.600  12.468  21.690  0.00  0.00    +0.000 N 
ATOM     18  C   UNL     1      -2.027  12.457  23.086  0.00  0.00    +0.000 C 
ATOM     19  C   UNL     1      -3.538  12.669  23.034  0.00  0.00    +0.000 C 
ATOM     20  C   UNL     1      -3.732  13.542  21.811  0.00  0.00    +0.000 C 
ATOM     21  C   UNL     1      -2.631  13.091  20.850  0.00  0.00    +0.000 C 
ATOM     22  N   UNL     1       0.055  11.752  20.093  0.00  0.00    +0.000 N 
ATOM     23  C   UNL     1       0.227  12.961  19.331  0.00  0.00    +0.000 C 
ATOM     24  N   UNL     1       0.829  10.685  19.793  0.00  0.00    +0.000 NA
ENDBRANCH   2  14
TORSDOF 2
ENDMDL
MODEL 9
REMARK VINA RESULT:      -7.5      6.657     10.390
REMARK  Name = 
REMARK  5 active torsions:
REMARK  status: ('A' for Active; 'I' for Inactive)
REMARK    1  A    between atoms: C_1  and  C_2
REMARK    2  A    between atoms: C_5  and  C_6
REMARK    3  A    between atoms: C_9  and  C_10
REMARK    4  A    between atoms: C_11  and  C_12
REMARK    5  A    between atoms: N_20  and  C_21
REMARK                            x       y       z     vdW  Elec       q    Type
REMARK                         _______ _______ _______ _____ _____    ______ ____
ROOT
ATOM      1  C   UNL     1       1.546   7.919  20.181  0.00  0.00    +0.000 C 
ATOM      2  C   UNL     1       1.327   8.620  21.308  0.00  0.00    +0.000 C 
ENDROOT
BRANCH   1  11
ATOM      3  C   UNL     1       1.493   2.637  21.651  0.00  0.00    +0.000 C 
ATOM      4  C   UNL     1       2.573   3.205  20.774  0.00  0.00    +0.000 A 
ATOM      5  N   UNL     1       3.531   2.398  20.384  0.00  0.00    +0.000 NA
ATOM      6  C   UNL     1       4.535   2.916  19.587  0.00  0.00    +0.000 A 
ATOM      7  C   UNL     1       4.597   4.195  19.183  0.00  0.00    +0.000 A 
ATOM      8  C   UNL     1       5.710   4.711  18.326  0.00  0.00    +0.000 C 
ATOM      9  N   UNL     1       3.578   5.071  19.590  0.00  0.00    +0.000 N 
ATOM     10  N   UNL     1       3.374   6.404  19.354  0.00  0.00    +0.000 NA
ATOM     11  C   UNL     1       2.239   6.656  20.035  0.00  0.00    +0.000 A 
ATOM     12  N   UNL     1       1.709   5.553  20.676  0.00  0.00    +0.000 NA
ATOM     13  C   UNL     1       2.560   4.594  20.386  0.00  0.00    +0.000 A 
ENDBRANCH   1  11
BRANCH   2  14
ATOM     14  C   UNL     1       0.620   9.877  21.435  0.00  0.00    +0.000 A 
ATOM     15  N   UNL     1       0.509  10.796  20.400  0.00  0.00    +0.000 NA
ATOM     16  C   UNL     1      -0.168  11.812  20.919  0.00  0.00    +0.000 A 
ATOM     17  N   UNL     1      -0.589  12.986  20.348  0.00  0.00    +0.000 N 
ATOM     18  C   UNL     1      -0.713  13.132  18.901  0.00  0.00    +0.000 C 
ATOM     19  C   UNL     1      -0.044  14.467  18.583  0.00  0.00    +0.000 C 
ATOM     20  C   UNL     1      -0.313  15.301  19.820  0.00  0.00    +0.000 C 
ATOM     21  C   UNL     1      -0.303  14.288  20.965  0.00  0.00    +0.000 C 
ATOM     22  N   UNL     1      -0.504  11.462  22.211  0.00  0.00    +0.000 N 
ATOM     23  C   UNL     1      -1.360  12.140  23.147  0.00  0.00    +0.000 C 
ATOM     24  N   UNL     1       0.002  10.257  22.556  0.00  0.00    +0.000 NA
ENDBRANCH   2  14
TORSDOF 2
ENDMDL
