MODEL 1
REMARK VINA RESULT:      -7.3      0.000      0.000
REMARK  Name = 
REMARK  9 active torsions:
REMARK  status: ('A' for Active; 'I' for Inactive)
REMARK    1  A    between atoms: C_1  and  O_2
REMARK    2  A    between atoms: O_2  and  C_3
REMARK    3  A    between atoms: N_5  and  C_6
REMARK    4  A    between atoms: C_9  and  N_10
REMARK    5  A    between atoms: N_10  and  C_11
REMARK    6  A    between atoms: C_11  and  C_12
REMARK    7  A    between atoms: C_13  and  C_14
REMARK    8  A    between atoms: N_16  and  C_17
REMARK    9  A    between atoms: C_18  and  C_19
REMARK                            x       y       z     vdW  Elec       q    Type
REMARK                         _______ _______ _______ _____ _____    ______ ____
ROOT
ATOM      1  C   UNL     1       7.917   6.908  18.356  0.00  0.00    +0.000 A 
ATOM      2  C   UNL     1       7.416   7.018  17.059  0.00  0.00    +0.000 A 
ATOM      3  C   UNL     1       6.677   5.983  16.486  0.00  0.00    +0.000 A 
ATOM      4  C   UNL     1       6.439   4.794  17.177  0.00  0.00    +0.000 A 
ATOM      5  C   UNL     1       6.927   4.687  18.484  0.00  0.00    +0.000 A 
ATOM      6  C   UNL     1       7.664   5.727  19.057  0.00  0.00    +0.000 A 
ATOM      7  F   UNL     1       8.097   5.594  20.321  0.00  0.00    +0.000 F 
ENDROOT
BRANCH   1  10
ATOM      8  C   UNL     1       8.610   9.260  18.605  0.00  0.00    +0.000 C 
ATOM      9  O   UNL     1       7.907   9.754  17.727  0.00  0.00    +0.000 OA
ATOM     10  N   UNL     1       8.655   7.943  18.968  0.00  0.00    +0.000 N 
ATOM     11  H   UNL     1       9.174   7.726  19.813  0.00  0.00    +0.000 HD
BRANCH   8  13
ATOM     12  C   UNL     1       9.515  11.357  18.930  0.00  0.00    +0.000 C 
ATOM     13  O   UNL     1       9.436  10.003  19.388  0.00  0.00    +0.000 OA
ENDBRANCH   8  13
ENDBRANCH   1  10
BRANCH   4  14
ATOM     14  N   UNL     1       5.697   3.808  16.552  0.00  0.00    +0.000 N 
ATOM     15  H   UNL     1       6.089   2.874  16.545  0.00  0.00    +0.000 HD
BRANCH  14  16
ATOM     16  C   UNL     1       4.243   3.843  16.490  0.00  0.00    +0.000 C 
BRANCH  16  17
ATOM     17  C   UNL     1       3.522   3.958  17.795  0.00  0.00    +0.000 A 
ATOM     18  C   UNL     1       3.197   2.886  18.674  0.00  0.00    +0.000 A 
ATOM     19  C   UNL     1       3.499   1.439  18.534  0.00  0.00    +0.000 C 
ATOM     20  N   UNL     1       2.541   3.313  19.757  0.00  0.00    +0.000 NA
ATOM     21  N   UNL     1       2.456   4.643  19.593  0.00  0.00    +0.000 N 
ATOM     22  C   UNL     1       1.799   5.433  20.608  0.00  0.00    +0.000 C 
ATOM     23  C   UNL     1       3.035   5.091  18.434  0.00  0.00    +0.000 A 
ATOM     24  C   UNL     1       3.090   6.522  18.039  0.00  0.00    +0.000 C 
ENDBRANCH  16  17
ENDBRANCH  14  16
ENDBRANCH   4  14
TORSDOF 5
ENDMDL
MODEL 2
REMARK VINA RESULT:      -7.2      3.798      6.038
REMARK  Name = 
REMARK  9 active torsions:
REMARK  status: ('A' for Active; 'I' for Inactive)
REMARK    1  A    between atoms: C_1  and  O_2
REMARK    2  A    between atoms: O_2  and  C_3
REMARK    3  A    between atoms: N_5  and  C_6
REMARK    4  A    between atoms: C_9  and  N_10
REMARK    5  A    between atoms: N_10  and  C_11
REMARK    6  A    between atoms: C_11  and  C_12
REMARK    7  A    between atoms: C_13  and  C_14
REMARK    8  A    between atoms: N_16  and  C_17
REMARK    9  A    between atoms: C_18  and  C_19
REMARK                            x       y       z     vdW  Elec       q    Type
REMARK                         _______ _______ _______ _____ _____    ______ ____
ROOT
ATOM      1  C   UNL     1       1.753   7.112  20.448  0.00  0.00    +0.000 A 
ATOM      2  C   UNL     1       1.524   5.775  20.773  0.00  0.00    +0.000 A 
ATOM      3  C   UNL     1       1.654   4.772  19.814  0.00  0.00    +0.000 A 
ATOM      4  C   UNL     1       1.988   5.072  18.493  0.00  0.00    +0.000 A 
ATOM      5  C   UNL     1       2.234   6.410  18.167  0.00  0.00    +0.000 A 
ATOM      6  C   UNL     1       2.105   7.414  19.131  0.00  0.00    +0.000 A 
ATOM      7  F   UNL     1       2.370   8.683  18.784  0.00  0.00    +0.000 F 
ENDROOT
BRANCH   1  10
ATOM      8  C   UNL     1       0.468   8.664  21.869  0.00  0.00    +0.000 C 
ATOM      9  O   UNL     1      -0.665   8.294  21.570  0.00  0.00    +0.000 OA
ATOM     10  N   UNL     1       1.644   8.148  21.401  0.00  0.00    +0.000 N 
ATOM     11  H   UNL     1       2.491   8.463  21.863  0.00  0.00    +0.000 HD
BRANCH   8  13
ATOM     12  C   UNL     1      -0.505  10.327  23.137  0.00  0.00    +0.000 C 
ATOM     13  O   UNL     1       0.702   9.648  22.775  0.00  0.00    +0.000 OA
ENDBRANCH   8  13
ENDBRANCH   1  10
BRANCH   4  14
ATOM     14  N   UNL     1       2.103   4.030  17.591  0.00  0.00    +0.000 N 
ATOM     15  H   UNL     1       1.294   3.832  17.013  0.00  0.00    +0.000 HD
BRANCH  14  16
ATOM     16  C   UNL     1       3.372   3.654  16.986  0.00  0.00    +0.000 C 
BRANCH  16  17
ATOM     17  C   UNL     1       4.608   4.168  17.653  0.00  0.00    +0.000 A 
ATOM     18  C   UNL     1       5.127   3.741  18.908  0.00  0.00    +0.000 A 
ATOM     19  C   UNL     1       4.603   2.700  19.830  0.00  0.00    +0.000 C 
ATOM     20  N   UNL     1       6.241   4.400  19.236  0.00  0.00    +0.000 NA
ATOM     21  N   UNL     1       6.454   5.230  18.202  0.00  0.00    +0.000 N 
ATOM     22  C   UNL     1       7.608   6.099  18.228  0.00  0.00    +0.000 C 
ATOM     23  C   UNL     1       5.509   5.131  17.216  0.00  0.00    +0.000 A 
ATOM     24  C   UNL     1       5.537   5.928  15.961  0.00  0.00    +0.000 C 
ENDBRANCH  16  17
ENDBRANCH  14  16
ENDBRANCH   4  14
TORSDOF 5
ENDMDL
MODEL 3
REMARK VINA RESULT:      -7.0      0.791      1.902
REMARK  Name = 
REMARK  9 active torsions:
REMARK  status: ('A' for Active; 'I' for Inactive)
REMARK    1  A    between atoms: C_1  and  O_2
REMARK    2  A    between atoms: O_2  and  C_3
REMARK    3  A    between atoms: N_5  and  C_6
REMARK    4  A    between atoms: C_9  and  N_10
REMARK    5  A    between atoms: N_10  and  C_11
REMARK    6  A    between atoms: C_11  and  C_12
REMARK    7  A    between atoms: C_13  and  C_14
REMARK    8  A    between atoms: N_16  and  C_17
REMARK    9  A    between atoms: C_18  and  C_19
REMARK                            x       y       z     vdW  Elec       q    Type
REMARK                         _______ _______ _______ _____ _____    ______ ____
ROOT
ATOM      1  C   UNL     1       7.797   7.032  18.300  0.00  0.00    +0.000 A 
ATOM      2  C   UNL     1       6.930   7.349  17.254  0.00  0.00    +0.000 A 
ATOM      3  C   UNL     1       6.074   6.389  16.717  0.00  0.00    +0.000 A 
ATOM      4  C   UNL     1       6.075   5.074  17.184  0.00  0.00    +0.000 A 
ATOM      5  C   UNL     1       6.932   4.757  18.243  0.00  0.00    +0.000 A 
ATOM      6  C   UNL     1       7.787   5.722  18.783  0.00  0.00    +0.000 A 
ATOM      7  F   UNL     1       8.579   5.383  19.813  0.00  0.00    +0.000 F 
ENDROOT
BRANCH   1  10
ATOM      8  C   UNL     1       8.671   9.320  18.578  0.00  0.00    +0.000 C 
ATOM      9  O   UNL     1       7.916   9.903  17.804  0.00  0.00    +0.000 OA
ATOM     10  N   UNL     1       8.664   7.986  18.875  0.00  0.00    +0.000 N 
ATOM     11  H   UNL     1       9.253   7.693  19.648  0.00  0.00    +0.000 HD
BRANCH   8  13
ATOM     12  C   UNL     1       9.149  11.229  19.780  0.00  0.00    +0.000 C 
ATOM     13  O   UNL     1       9.623   9.968  19.299  0.00  0.00    +0.000 OA
ENDBRANCH   8  13
ENDBRANCH   1  10
BRANCH   4  14
ATOM     14  N   UNL     1       5.200   4.171  16.609  0.00  0.00    +0.000 N 
ATOM     15  H   UNL     1       5.552   3.237  16.438  0.00  0.00    +0.000 HD
BRANCH  14  16
ATOM     16  C   UNL     1       3.760   4.236  16.815  0.00  0.00    +0.000 C 
BRANCH  16  17
ATOM     17  C   UNL     1       3.286   4.194  18.233  0.00  0.00    +0.000 A 
ATOM     18  C   UNL     1       2.887   5.311  19.021  0.00  0.00    +0.000 A 
ATOM     19  C   UNL     1       2.821   6.745  18.641  0.00  0.00    +0.000 C 
ATOM     20  N   UNL     1       2.524   4.946  20.253  0.00  0.00    +0.000 NA
ATOM     21  N   UNL     1       2.669   3.611  20.262  0.00  0.00    +0.000 N 
ATOM     22  C   UNL     1       2.347   2.879  21.465  0.00  0.00    +0.000 C 
ATOM     23  C   UNL     1       3.118   3.100  19.072  0.00  0.00    +0.000 A 
ATOM     24  C   UNL     1       3.336   1.651  18.825  0.00  0.00    +0.000 C 
ENDBRANCH  16  17
ENDBRANCH  14  16
ENDBRANCH   4  14
TORSDOF 5
ENDMDL
MODEL 4
REMARK VINA RESULT:      -7.0      3.673      6.132
REMARK  Name = 
REMARK  9 active torsions:
REMARK  status: ('A' for Active; 'I' for Inactive)
REMARK    1  A    between atoms: C_1  and  O_2
REMARK    2  A    between atoms: O_2  and  C_3
REMARK    3  A    between atoms: N_5  and  C_6
REMARK    4  A    between atoms: C_9  and  N_10
REMARK    5  A    between atoms: N_10  and  C_11
REMARK    6  A    between atoms: C_11  and  C_12
REMARK    7  A    between atoms: C_13  and  C_14
REMARK    8  A    between atoms: N_16  and  C_17
REMARK    9  A    between atoms: C_18  and  C_19
REMARK                            x       y       z     vdW  Elec       q    Type
REMARK                         _______ _______ _______ _____ _____    ______ ____
ROOT
ATOM      1  C   UNL     1       2.007   7.197  20.288  0.00  0.00    +0.000 A 
ATOM      2  C   UNL     1       1.868   5.849  20.616  0.00  0.00    +0.000 A 
ATOM      3  C   UNL     1       2.069   4.854  19.660  0.00  0.00    +0.000 A 
ATOM      4  C   UNL     1       2.386   5.173  18.339  0.00  0.00    +0.000 A 
ATOM      5  C   UNL     1       2.542   6.523  18.011  0.00  0.00    +0.000 A 
ATOM      6  C   UNL     1       2.342   7.519  18.971  0.00  0.00    +0.000 A 
ATOM      7  F   UNL     1       2.522   8.802  18.622  0.00  0.00    +0.000 F 
ENDROOT
BRANCH   1  10
ATOM      8  C   UNL     1       0.647   8.879  21.471  0.00  0.00    +0.000 C 
ATOM      9  O   UNL     1      -0.433   8.659  20.929  0.00  0.00    +0.000 OA
ATOM     10  N   UNL     1       1.824   8.225  21.237  0.00  0.00    +0.000 N 
ATOM     11  H   UNL     1       2.586   8.426  21.878  0.00  0.00    +0.000 HD
BRANCH   8  13
ATOM     12  C   UNL     1      -0.307   9.817  23.349  0.00  0.00    +0.000 C 
ATOM     13  O   UNL     1       0.801   9.814  22.445  0.00  0.00    +0.000 OA
ENDBRANCH   8  13
ENDBRANCH   1  10
BRANCH   4  14
ATOM     14  N   UNL     1       2.575   4.138  17.440  0.00  0.00    +0.000 N 
ATOM     15  H   UNL     1       1.960   4.112  16.636  0.00  0.00    +0.000 HD
BRANCH  14  16
ATOM     16  C   UNL     1       3.875   3.524  17.215  0.00  0.00    +0.000 C 
BRANCH  16  17
ATOM     17  C   UNL     1       5.025   4.456  17.000  0.00  0.00    +0.000 A 
ATOM     18  C   UNL     1       5.570   4.846  15.744  0.00  0.00    +0.000 A 
ATOM     19  C   UNL     1       5.136   4.458  14.378  0.00  0.00    +0.000 C 
ATOM     20  N   UNL     1       6.601   5.683  15.887  0.00  0.00    +0.000 NA
ATOM     21  N   UNL     1       6.714   5.848  17.215  0.00  0.00    +0.000 N 
ATOM     22  C   UNL     1       7.747   6.719  17.727  0.00  0.00    +0.000 C 
ATOM     23  C   UNL     1       5.789   5.141  17.937  0.00  0.00    +0.000 A 
ATOM     24  C   UNL     1       5.696   5.176  19.420  0.00  0.00    +0.000 C 
ENDBRANCH  16  17
ENDBRANCH  14  16
ENDBRANCH   4  14
TORSDOF 5
ENDMDL
MODEL 5
REMARK VINA RESULT:      -7.0      4.559      6.873
REMARK  Name = 
REMARK  9 active torsions:
REMARK  status: ('A' for Active; 'I' for Inactive)
REMARK    1  A    between atoms: C_1  and  O_2
REMARK    2  A    between atoms: O_2  and  C_3
REMARK    3  A    between atoms: N_5  and  C_6
REMARK    4  A    between atoms: C_9  and  N_10
REMARK    5  A    between atoms: N_10  and  C_11
REMARK    6  A    between atoms: C_11  and  C_12
REMARK    7  A    between atoms: C_13  and  C_14
REMARK    8  A    between atoms: N_16  and  C_17
REMARK    9  A    between atoms: C_18  and  C_19
REMARK                            x       y       z     vdW  Elec       q    Type
REMARK                         _______ _______ _______ _____ _____    ______ ____
ROOT
ATOM      1  C   UNL     1       1.190   9.587  19.013  0.00  0.00    +0.000 A 
ATOM      2  C   UNL     1       1.889   9.232  17.860  0.00  0.00    +0.000 A 
ATOM      3  C   UNL     1       2.619   8.045  17.801  0.00  0.00    +0.000 A 
ATOM      4  C   UNL     1       2.699   7.189  18.901  0.00  0.00    +0.000 A 
ATOM      5  C   UNL     1       1.986   7.535  20.053  0.00  0.00    +0.000 A 
ATOM      6  C   UNL     1       1.253   8.723  20.108  0.00  0.00    +0.000 A 
ATOM      7  F   UNL     1       0.565   9.009  21.225  0.00  0.00    +0.000 F 
ENDROOT
BRANCH   1  10
ATOM      8  C   UNL     1      -0.872  10.902  18.706  0.00  0.00    +0.000 C 
ATOM      9  O   UNL     1      -1.593  10.014  18.259  0.00  0.00    +0.000 OA
ATOM     10  N   UNL     1       0.431  10.774  19.097  0.00  0.00    +0.000 N 
ATOM     11  H   UNL     1       0.836  11.567  19.586  0.00  0.00    +0.000 HD
BRANCH   8  13
ATOM     12  C   UNL     1      -0.422  13.137  18.354  0.00  0.00    +0.000 C 
ATOM     13  O   UNL     1      -1.314  12.170  18.916  0.00  0.00    +0.000 OA
ENDBRANCH   8  13
ENDBRANCH   1  10
BRANCH   4  14
ATOM     14  N   UNL     1       3.437   6.026  18.776  0.00  0.00    +0.000 N 
ATOM     15  H   UNL     1       3.041   5.291  18.202  0.00  0.00    +0.000 HD
BRANCH  14  16
ATOM     16  C   UNL     1       4.891   6.012  18.841  0.00  0.00    +0.000 C 
BRANCH  16  17
ATOM     17  C   UNL     1       5.613   5.691  17.571  0.00  0.00    +0.000 A 
ATOM     18  C   UNL     1       6.784   6.336  17.082  0.00  0.00    +0.000 A 
ATOM     19  C   UNL     1       7.568   7.438  17.696  0.00  0.00    +0.000 C 
ATOM     20  N   UNL     1       7.182   5.826  15.913  0.00  0.00    +0.000 NA
ATOM     21  N   UNL     1       6.295   4.852  15.655  0.00  0.00    +0.000 N 
ATOM     22  C   UNL     1       6.440   4.074  14.446  0.00  0.00    +0.000 C 
ATOM     23  C   UNL     1       5.331   4.718  16.620  0.00  0.00    +0.000 A 
ATOM     24  C   UNL     1       4.252   3.697  16.574  0.00  0.00    +0.000 C 
ENDBRANCH  16  17
ENDBRANCH  14  16
ENDBRANCH   4  14
TORSDOF 5
ENDMDL
MODEL 6
REMARK VINA RESULT:      -6.9      3.914      5.998
REMARK  Name = 
REMARK  9 active torsions:
REMARK  status: ('A' for Active; 'I' for Inactive)
REMARK    1  A    between atoms: C_1  and  O_2
REMARK    2  A    between atoms: O_2  and  C_3
REMARK    3  A    between atoms: N_5  and  C_6
REMARK    4  A    between atoms: C_9  and  N_10
REMARK    5  A    between atoms: N_10  and  C_11
REMARK    6  A    between atoms: C_11  and  C_12
REMARK    7  A    between atoms: C_13  and  C_14
REMARK    8  A    between atoms: N_16  and  C_17
REMARK    9  A    between atoms: C_18  and  C_19
REMARK                            x       y       z     vdW  Elec       q    Type
REMARK                         _______ _______ _______ _____ _____    ______ ____
ROOT
ATOM      1  C   UNL     1       4.644   5.469  17.757  0.00  0.00    +0.000 A 
ATOM      2  C   UNL     1       3.900   6.609  17.456  0.00  0.00    +0.000 A 
ATOM      3  C   UNL     1       2.943   7.095  18.346  0.00  0.00    +0.000 A 
ATOM      4  C   UNL     1       2.677   6.444  19.551  0.00  0.00    +0.000 A 
ATOM      5  C   UNL     1       3.432   5.309  19.862  0.00  0.00    +0.000 A 
ATOM      6  C   UNL     1       4.393   4.825  18.970  0.00  0.00    +0.000 A 
ATOM      7  F   UNL     1       5.112   3.745  19.315  0.00  0.00    +0.000 F 
ENDROOT
BRANCH   1  10
ATOM      8  C   UNL     1       6.915   5.416  16.800  0.00  0.00    +0.000 C 
ATOM      9  O   UNL     1       7.424   6.301  17.484  0.00  0.00    +0.000 OA
ATOM     10  N   UNL     1       5.629   4.961  16.883  0.00  0.00    +0.000 N 
ATOM     11  H   UNL     1       5.412   4.123  16.353  0.00  0.00    +0.000 HD
BRANCH   8  13
ATOM     12  C   UNL     1       6.821   4.475  14.697  0.00  0.00    +0.000 C 
ATOM     13  O   UNL     1       7.612   4.721  15.864  0.00  0.00    +0.000 OA
ENDBRANCH   8  13
ENDBRANCH   1  10
BRANCH   4  14
ATOM     14  N   UNL     1       1.716   6.980  20.390  0.00  0.00    +0.000 N 
ATOM     15  H   UNL     1       1.145   6.325  20.911  0.00  0.00    +0.000 HD
BRANCH  14  16
ATOM     16  C   UNL     1       1.876   8.274  21.036  0.00  0.00    +0.000 C 
BRANCH  16  17
ATOM     17  C   UNL     1       0.781   9.269  20.817  0.00  0.00    +0.000 A 
ATOM     18  C   UNL     1      -0.085   9.802  21.814  0.00  0.00    +0.000 A 
ATOM     19  C   UNL     1      -0.106   9.530  23.274  0.00  0.00    +0.000 C 
ATOM     20  N   UNL     1      -0.966  10.663  21.298  0.00  0.00    +0.000 NA
ATOM     21  N   UNL     1      -0.667  10.704  19.990  0.00  0.00    +0.000 N 
ATOM     22  C   UNL     1      -1.438  11.563  19.121  0.00  0.00    +0.000 C 
ATOM     23  C   UNL     1       0.380   9.892  19.641  0.00  0.00    +0.000 A 
ATOM     24  C   UNL     1       0.914   9.780  18.259  0.00  0.00    +0.000 C 
ENDBRANCH  16  17
ENDBRANCH  14  16
ENDBRANCH   4  14
TORSDOF 5
ENDMDL
MODEL 7
REMARK VINA RESULT:      -6.9      3.332      8.333
REMARK  Name = 
REMARK  9 active torsions:
REMARK  status: ('A' for Active; 'I' for Inactive)
REMARK    1  A    between atoms: C_1  and  O_2
REMARK    2  A    between atoms: O_2  and  C_3
REMARK    3  A    between atoms: N_5  and  C_6
REMARK    4  A    between atoms: C_9  and  N_10
REMARK    5  A    between atoms: N_10  and  C_11
REMARK    6  A    between atoms: C_11  and  C_12
REMARK    7  A    between atoms: C_13  and  C_14
REMARK    8  A    between atoms: N_16  and  C_17
REMARK    9  A    between atoms: C_18  and  C_19
REMARK                            x       y       z     vdW  Elec       q    Type
REMARK                         _______ _______ _______ _____ _____    ______ ____
ROOT
ATOM      1  C   UNL     1       6.719   5.525  18.323  0.00  0.00    +0.000 A 
ATOM      2  C   UNL     1       7.791   5.964  19.099  0.00  0.00    +0.000 A 
ATOM      3  C   UNL     1       8.373   7.211  18.877  0.00  0.00    +0.000 A 
ATOM      4  C   UNL     1       7.924   8.049  17.856  0.00  0.00    +0.000 A 
ATOM      5  C   UNL     1       6.839   7.619  17.086  0.00  0.00    +0.000 A 
ATOM      6  C   UNL     1       6.256   6.369  17.311  0.00  0.00    +0.000 A 
ATOM      7  F   UNL     1       5.202   6.001  16.564  0.00  0.00    +0.000 F 
ENDROOT
BRANCH   1  10
ATOM      8  C   UNL     1       4.923   4.084  19.202  0.00  0.00    +0.000 C 
ATOM      9  O   UNL     1       4.208   4.955  19.690  0.00  0.00    +0.000 OA
ATOM     10  N   UNL     1       6.099   4.275  18.533  0.00  0.00    +0.000 N 
ATOM     11  H   UNL     1       6.487   3.464  18.060  0.00  0.00    +0.000 HD
BRANCH   8  13
ATOM     12  C   UNL     1       3.182   2.578  19.349  0.00  0.00    +0.000 C 
ATOM     13  O   UNL     1       4.596   2.765  19.232  0.00  0.00    +0.000 OA
ENDBRANCH   8  13
ENDBRANCH   1  10
BRANCH   4  14
ATOM     14  N   UNL     1       8.544   9.275  17.690  0.00  0.00    +0.000 N 
ATOM     15  H   UNL     1       8.340   9.780  16.837  0.00  0.00    +0.000 HD
BRANCH  14  16
ATOM     16  C   UNL     1       8.908  10.126  18.814  0.00  0.00    +0.000 C 
BRANCH  16  17
ATOM     17  C   UNL     1       9.491  11.461  18.478  0.00  0.00    +0.000 A 
ATOM     18  C   UNL     1       8.855  12.496  17.737  0.00  0.00    +0.000 A 
ATOM     19  C   UNL     1       7.491  12.520  17.148  0.00  0.00    +0.000 C 
ATOM     20  N   UNL     1       9.643  13.566  17.598  0.00  0.00    +0.000 NA
ATOM     21  N   UNL     1      10.768  13.238  18.255  0.00  0.00    +0.000 N 
ATOM     22  C   UNL     1      11.849  14.194  18.311  0.00  0.00    +0.000 C 
ATOM     23  C   UNL     1      10.733  11.987  18.812  0.00  0.00    +0.000 A 
ATOM     24  C   UNL     1      11.847  11.405  19.605  0.00  0.00    +0.000 C 
ENDBRANCH  16  17
ENDBRANCH  14  16
ENDBRANCH   4  14
TORSDOF 5
ENDMDL
MODEL 8
REMARK VINA RESULT:      -6.8      4.474      6.507
REMARK  Name = 
REMARK  9 active torsions:
REMARK  status: ('A' for Active; 'I' for Inactive)
REMARK    1  A    between atoms: C_1  and  O_2
REMARK    2  A    between atoms: O_2  and  C_3
REMARK    3  A    between atoms: N_5  and  C_6
REMARK    4  A    between atoms: C_9  and  N_10
REMARK    5  A    between atoms: N_10  and  C_11
REMARK    6  A    between atoms: C_11  and  C_12
REMARK    7  A    between atoms: C_13  and  C_14
REMARK    8  A    between atoms: N_16  and  C_17
REMARK    9  A    between atoms: C_18  and  C_19
REMARK                            x       y       z     vdW  Elec       q    Type
REMARK                         _______ _______ _______ _____ _____    ______ ____
ROOT
ATOM      1  C   UNL     1       1.229   9.557  18.745  0.00  0.00    +0.000 A 
ATOM      2  C   UNL     1       1.860   8.835  17.732  0.00  0.00    +0.000 A 
ATOM      3  C   UNL     1       2.440   7.594  17.991  0.00  0.00    +0.000 A 
ATOM      4  C   UNL     1       2.434   7.046  19.274  0.00  0.00    +0.000 A 
ATOM      5  C   UNL     1       1.788   7.760  20.289  0.00  0.00    +0.000 A 
ATOM      6  C   UNL     1       1.206   9.003  20.026  0.00  0.00    +0.000 A 
ATOM      7  F   UNL     1       0.577   9.647  21.022  0.00  0.00    +0.000 F 
ENDROOT
BRANCH   1  10
ATOM      8  C   UNL     1      -0.720  11.010  18.340  0.00  0.00    +0.000 C 
ATOM      9  O   UNL     1      -1.602  10.158  18.397  0.00  0.00    +0.000 OA
ATOM     10  N   UNL     1       0.621  10.809  18.511  0.00  0.00    +0.000 N 
ATOM     11  H   UNL     1       1.196  11.642  18.584  0.00  0.00    +0.000 HD
BRANCH   8  13
ATOM     12  C   UNL     1       0.060  13.159  18.644  0.00  0.00    +0.000 C 
ATOM     13  O   UNL     1      -0.986  12.327  18.133  0.00  0.00    +0.000 OA
ENDBRANCH   8  13
ENDBRANCH   1  10
BRANCH   4  14
ATOM     14  N   UNL     1       3.025   5.809  19.463  0.00  0.00    +0.000 N 
ATOM     15  H   UNL     1       2.481   4.996  19.198  0.00  0.00    +0.000 HD
BRANCH  14  16
ATOM     16  C   UNL     1       4.465   5.610  19.392  0.00  0.00    +0.000 C 
BRANCH  16  17
ATOM     17  C   UNL     1       5.006   5.105  18.093  0.00  0.00    +0.000 A 
ATOM     18  C   UNL     1       4.628   3.901  17.434  0.00  0.00    +0.000 A 
ATOM     19  C   UNL     1       3.622   2.889  17.845  0.00  0.00    +0.000 C 
ATOM     20  N   UNL     1       5.302   3.726  16.294  0.00  0.00    +0.000 NA
ATOM     21  N   UNL     1       6.092   4.808  16.203  0.00  0.00    +0.000 N 
ATOM     22  C   UNL     1       6.964   4.944  15.060  0.00  0.00    +0.000 C 
ATOM     23  C   UNL     1       5.954   5.678  17.253  0.00  0.00    +0.000 A 
ATOM     24  C   UNL     1       6.702   6.956  17.371  0.00  0.00    +0.000 C 
ENDBRANCH  16  17
ENDBRANCH  14  16
ENDBRANCH   4  14
TORSDOF 5
ENDMDL
MODEL 9
REMARK VINA RESULT:      -6.8      4.801      6.560
REMARK  Name = 
REMARK  9 active torsions:
REMARK  status: ('A' for Active; 'I' for Inactive)
REMARK    1  A    between atoms: C_1  and  O_2
REMARK    2  A    between atoms: O_2  and  C_3
REMARK    3  A    between atoms: N_5  and  C_6
REMARK    4  A    between atoms: C_9  and  N_10
REMARK    5  A    between atoms: N_10  and  C_11
REMARK    6  A    between atoms: C_11  and  C_12
REMARK    7  A    between atoms: C_13  and  C_14
REMARK    8  A    between atoms: N_16  and  C_17
REMARK    9  A    between atoms: C_18  and  C_19
REMARK                            x       y       z     vdW  Elec       q    Type
REMARK                         _______ _______ _______ _____ _____    ______ ____
ROOT
ATOM      1  C   UNL     1       0.505  10.057  19.800  0.00  0.00    +0.000 A 
ATOM      2  C   UNL     1       0.942  10.170  18.481  0.00  0.00    +0.000 A 
ATOM      3  C   UNL     1       1.803   9.224  17.928  0.00  0.00    +0.000 A 
ATOM      4  C   UNL     1       2.279   8.150  18.681  0.00  0.00    +0.000 A 
ATOM      5  C   UNL     1       1.830   8.025  20.000  0.00  0.00    +0.000 A 
ATOM      6  C   UNL     1       0.965   8.974  20.551  0.00  0.00    +0.000 A 
ATOM      7  F   UNL     1       0.540   8.807  21.814  0.00  0.00    +0.000 F 
ENDROOT
BRANCH   1  10
ATOM      8  C   UNL     1       0.001  12.065  21.139  0.00  0.00    +0.000 C 
ATOM      9  O   UNL     1       1.151  12.408  21.400  0.00  0.00    +0.000 OA
ATOM     10  N   UNL     1      -0.378  10.991  20.383  0.00  0.00    +0.000 N 
ATOM     11  H   UNL     1      -1.362  10.938  20.138  0.00  0.00    +0.000 HD
BRANCH   8  13
ATOM     12  C   UNL     1      -1.230  12.720  22.976  0.00  0.00    +0.000 C 
ATOM     13  O   UNL     1      -1.085  12.769  21.553  0.00  0.00    +0.000 OA
ENDBRANCH   8  13
ENDBRANCH   1  10
BRANCH   4  14
ATOM     14  N   UNL     1       3.129   7.245  18.071  0.00  0.00    +0.000 N 
ATOM     15  H   UNL     1       3.722   7.600  17.331  0.00  0.00    +0.000 HD
BRANCH  14  16
ATOM     16  C   UNL     1       3.677   6.092  18.771  0.00  0.00    +0.000 C 
BRANCH  16  17
ATOM     17  C   UNL     1       3.020   4.775  18.504  0.00  0.00    +0.000 A 
ATOM     18  C   UNL     1       3.364   3.855  17.473  0.00  0.00    +0.000 A 
ATOM     19  C   UNL     1       4.436   3.958  16.451  0.00  0.00    +0.000 C 
ATOM     20  N   UNL     1       2.582   2.772  17.492  0.00  0.00    +0.000 NA
ATOM     21  N   UNL     1       1.755   2.976  18.530  0.00  0.00    +0.000 N 
ATOM     22  C   UNL     1       0.766   1.971  18.845  0.00  0.00    +0.000 C 
ATOM     23  C   UNL     1       1.975   4.160  19.183  0.00  0.00    +0.000 A 
ATOM     24  C   UNL     1       1.205   4.602  20.375  0.00  0.00    +0.000 C 
ENDBRANCH  16  17
ENDBRANCH  14  16
ENDBRANCH   4  14
TORSDOF 5
ENDMDL
