MODEL 1
REMARK VINA RESULT:      -8.1      0.000      0.000
REMARK  Name = 
REMARK  7 active torsions:
REMARK  status: ('A' for Active; 'I' for Inactive)
REMARK    1  A    between atoms: C_1  and  O_2
REMARK    2  A    between atoms: O_2  and  C_3
REMARK    3  A    between atoms: C_6  and  N_7
REMARK    4  A    between atoms: N_7  and  C_8
REMARK    5  A    between atoms: C_11  and  N_12
REMARK    6  A    between atoms: CA_17  and  C_18
REMARK    7  A    between atoms: C_18  and  OXT_20
REMARK                            x       y       z     vdW  Elec       q    Type
REMARK                         _______ _______ _______ _____ _____    ______ ____
ROOT
ATOM      1  C   UNL     1       3.579   6.745  17.694  0.00  0.00    +0.000 A 
ATOM      2  C   UNL     1       4.769   7.423  17.337  0.00  0.00    +0.000 A 
ATOM      3  C   UNL     1       5.989   6.763  17.193  0.00  0.00    +0.000 A 
ATOM      4  C   UNL     1       6.075   5.382  17.405  0.00  0.00    +0.000 A 
ATOM      5  C   UNL     1       4.897   4.702  17.760  0.00  0.00    +0.000 A 
ATOM      6  N   UNL     1       4.701   3.366  18.025  0.00  0.00    +0.000 N 
ATOM      7  CA  UNL     1       3.397   3.102  18.363  0.00  0.00    +0.000 A 
ATOM      8  C   UNL     1       2.738   4.320  18.316  0.00  0.00    +0.000 A 
ATOM      9  C   UNL     1       3.664   5.340  17.911  0.00  0.00    +0.000 A 
ATOM     10  H   UNL     1       5.429   2.660  17.988  0.00  0.00    +0.000 HD
ENDROOT
BRANCH   4  11
ATOM     11  N   UNL     1       7.371   4.707  17.253  0.00  0.00    +0.000 N 
ATOM     12  O   UNL     1       7.813   4.547  16.108  0.00  0.00    +0.000 OA
ATOM     13  O   UNL     1       7.943   4.340  18.290  0.00  0.00    +0.000 OA
ENDBRANCH   4  11
BRANCH   1  14
ATOM     14  N   UNL     1       2.406   7.526  17.793  0.00  0.00    +0.000 N 
ATOM     15  H   UNL     1       1.956   7.696  16.900  0.00  0.00    +0.000 HD
BRANCH  14  19
ATOM     16  C   UNL     1       0.870   9.759  21.032  0.00  0.00    +0.000 A 
ATOM     17  C   UNL     1       1.346   8.463  21.222  0.00  0.00    +0.000 A 
ATOM     18  C   UNL     1       1.867   7.736  20.146  0.00  0.00    +0.000 A 
ATOM     19  C   UNL     1       1.899   8.284  18.859  0.00  0.00    +0.000 A 
ATOM     20  C   UNL     1       1.392   9.575  18.677  0.00  0.00    +0.000 A 
ATOM     21  C   UNL     1       0.880  10.309  19.751  0.00  0.00    +0.000 A 
BRANCH  16  23
ATOM     22  C   UNL     1       0.022   9.512  23.218  0.00  0.00    +0.000 C 
ATOM     23  O   UNL     1       0.389  10.382  22.150  0.00  0.00    +0.000 OA
ENDBRANCH  16  23
ENDBRANCH  14  19
ENDBRANCH   1  14
BRANCH   7  24
ATOM     24  C   UNL     1       3.011   1.746  18.675  0.00  0.00    +0.000 C 
ATOM     25  O   UNL     1       1.948   1.439  19.191  0.00  0.00    +0.000 OA
BRANCH  24  26
ATOM     26  OXT UNL     1       3.947   0.828  18.348  0.00  0.00    +0.000 OA
ATOM     27  HXT UNL     1       4.847   1.189  18.299  0.00  0.00    +0.000 HD
ENDBRANCH  24  26
ENDBRANCH   7  24
TORSDOF 6
ENDMDL
MODEL 2
REMARK VINA RESULT:      -8.1      1.132      1.447
REMARK  Name = 
REMARK  7 active torsions:
REMARK  status: ('A' for Active; 'I' for Inactive)
REMARK    1  A    between atoms: C_1  and  O_2
REMARK    2  A    between atoms: O_2  and  C_3
REMARK    3  A    between atoms: C_6  and  N_7
REMARK    4  A    between atoms: N_7  and  C_8
REMARK    5  A    between atoms: C_11  and  N_12
REMARK    6  A    between atoms: CA_17  and  C_18
REMARK    7  A    between atoms: C_18  and  OXT_20
REMARK                            x       y       z     vdW  Elec       q    Type
REMARK                         _______ _______ _______ _____ _____    ______ ____
ROOT
ATOM      1  C   UNL     1       3.600   6.529  17.869  0.00  0.00    +0.000 A 
ATOM      2  C   UNL     1       4.542   7.064  16.959  0.00  0.00    +0.000 A 
ATOM      3  C   UNL     1       5.787   6.474  16.741  0.00  0.00    +0.000 A 
ATOM      4  C   UNL     1       6.149   5.313  17.433  0.00  0.00    +0.000 A 
ATOM      5  C   UNL     1       5.218   4.777  18.340  0.00  0.00    +0.000 A 
ATOM      6  N   UNL     1       5.316   3.662  19.142  0.00  0.00    +0.000 N 
ATOM      7  CA  UNL     1       4.190   3.489  19.909  0.00  0.00    +0.000 A 
ATOM      8  C   UNL     1       3.345   4.539  19.586  0.00  0.00    +0.000 A 
ATOM      9  C   UNL     1       3.966   5.349  18.576  0.00  0.00    +0.000 A 
ATOM     10  H   UNL     1       6.122   3.047  19.174  0.00  0.00    +0.000 HD
ENDROOT
BRANCH   4  11
ATOM     11  N   UNL     1       7.468   4.710  17.194  0.00  0.00    +0.000 N 
ATOM     12  O   UNL     1       8.125   4.340  18.175  0.00  0.00    +0.000 OA
ATOM     13  O   UNL     1       7.839   4.611  16.015  0.00  0.00    +0.000 OA
ENDBRANCH   4  11
BRANCH   1  14
ATOM     14  N   UNL     1       2.369   7.214  17.988  0.00  0.00    +0.000 N 
ATOM     15  H   UNL     1       1.826   7.221  17.132  0.00  0.00    +0.000 HD
BRANCH  14  19
ATOM     16  C   UNL     1       0.914   9.731  21.050  0.00  0.00    +0.000 A 
ATOM     17  C   UNL     1       1.364   8.444  21.339  0.00  0.00    +0.000 A 
ATOM     18  C   UNL     1       1.858   7.622  20.320  0.00  0.00    +0.000 A 
ATOM     19  C   UNL     1       1.890   8.065  18.994  0.00  0.00    +0.000 A 
ATOM     20  C   UNL     1       1.409   9.349  18.713  0.00  0.00    +0.000 A 
ATOM     21  C   UNL     1       0.924  10.178  19.730  0.00  0.00    +0.000 A 
BRANCH  16  23
ATOM     22  C   UNL     1      -0.108   9.678  23.174  0.00  0.00    +0.000 C 
ATOM     23  O   UNL     1       0.458  10.451  22.119  0.00  0.00    +0.000 OA
ENDBRANCH  16  23
ENDBRANCH  14  19
ENDBRANCH   1  14
BRANCH   7  24
ATOM     24  C   UNL     1       4.121   2.366  20.814  0.00  0.00    +0.000 C 
ATOM     25  O   UNL     1       5.057   1.619  21.049  0.00  0.00    +0.000 OA
BRANCH  24  26
ATOM     26  OXT UNL     1       2.906   2.204  21.383  0.00  0.00    +0.000 OA
ATOM     27  HXT UNL     1       2.540   1.311  21.273  0.00  0.00    +0.000 HD
ENDBRANCH  24  26
ENDBRANCH   7  24
TORSDOF 6
ENDMDL
MODEL 3
REMARK VINA RESULT:      -8.0      0.244      1.191
REMARK  Name = 
REMARK  7 active torsions:
REMARK  status: ('A' for Active; 'I' for Inactive)
REMARK    1  A    between atoms: C_1  and  O_2
REMARK    2  A    between atoms: O_2  and  C_3
REMARK    3  A    between atoms: C_6  and  N_7
REMARK    4  A    between atoms: N_7  and  C_8
REMARK    5  A    between atoms: C_11  and  N_12
REMARK    6  A    between atoms: CA_17  and  C_18
REMARK    7  A    between atoms: C_18  and  OXT_20
REMARK                            x       y       z     vdW  Elec       q    Type
REMARK                         _______ _______ _______ _____ _____    ______ ____
ROOT
ATOM      1  C   UNL     1       3.759   6.880  17.599  0.00  0.00    +0.000 A 
ATOM      2  C   UNL     1       4.984   7.497  17.254  0.00  0.00    +0.000 A 
ATOM      3  C   UNL     1       6.176   6.781  17.151  0.00  0.00    +0.000 A 
ATOM      4  C   UNL     1       6.197   5.403  17.395  0.00  0.00    +0.000 A 
ATOM      5  C   UNL     1       4.983   4.784  17.740  0.00  0.00    +0.000 A 
ATOM      6  N   UNL     1       4.722   3.464  18.029  0.00  0.00    +0.000 N 
ATOM      7  CA  UNL     1       3.400   3.265  18.345  0.00  0.00    +0.000 A 
ATOM      8  C   UNL     1       2.798   4.509  18.256  0.00  0.00    +0.000 A 
ATOM      9  C   UNL     1       3.776   5.478  17.849  0.00  0.00    +0.000 A 
ATOM     10  H   UNL     1       5.419   2.726  18.024  0.00  0.00    +0.000 HD
ENDROOT
BRANCH   4  11
ATOM     11  N   UNL     1       7.465   4.668  17.287  0.00  0.00    +0.000 N 
ATOM     12  O   UNL     1       8.012   4.296  18.334  0.00  0.00    +0.000 OA
ATOM     13  O   UNL     1       7.908   4.467  16.147  0.00  0.00    +0.000 OA
ENDBRANCH   4  11
BRANCH   1  14
ATOM     14  N   UNL     1       2.619   7.714  17.655  0.00  0.00    +0.000 N 
ATOM     15  H   UNL     1       2.358   8.103  16.756  0.00  0.00    +0.000 HD
BRANCH  14  19
ATOM     16  C   UNL     1       0.592   9.440  20.933  0.00  0.00    +0.000 A 
ATOM     17  C   UNL     1       0.586  10.059  19.685  0.00  0.00    +0.000 A 
ATOM     18  C   UNL     1       1.248   9.473  18.601  0.00  0.00    +0.000 A 
ATOM     19  C   UNL     1       1.945   8.270  18.753  0.00  0.00    +0.000 A 
ATOM     20  C   UNL     1       1.968   7.673  20.018  0.00  0.00    +0.000 A 
ATOM     21  C   UNL     1       1.299   8.250  21.101  0.00  0.00    +0.000 A 
BRANCH  16  23
ATOM     22  C   UNL     1       0.002   9.505  23.215  0.00  0.00    +0.000 C 
ATOM     23  O   UNL     1      -0.090  10.094  21.921  0.00  0.00    +0.000 OA
ENDBRANCH  16  23
ENDBRANCH  14  19
ENDBRANCH   1  14
BRANCH   7  24
ATOM     24  C   UNL     1       2.948   1.935  18.678  0.00  0.00    +0.000 C 
ATOM     25  O   UNL     1       1.880   1.691  19.215  0.00  0.00    +0.000 OA
BRANCH  24  26
ATOM     26  OXT UNL     1       3.828   0.965  18.346  0.00  0.00    +0.000 OA
ATOM     27  HXT UNL     1       3.592   0.486  17.535  0.00  0.00    +0.000 HD
ENDBRANCH  24  26
ENDBRANCH   7  24
TORSDOF 6
ENDMDL
MODEL 4
REMARK VINA RESULT:      -8.0      1.159      1.634
REMARK  Name = 
REMARK  7 active torsions:
REMARK  status: ('A' for Active; 'I' for Inactive)
REMARK    1  A    between atoms: C_1  and  O_2
REMARK    2  A    between atoms: O_2  and  C_3
REMARK    3  A    between atoms: C_6  and  N_7
REMARK    4  A    between atoms: N_7  and  C_8
REMARK    5  A    between atoms: C_11  and  N_12
REMARK    6  A    between atoms: CA_17  and  C_18
REMARK    7  A    between atoms: C_18  and  OXT_20
REMARK                            x       y       z     vdW  Elec       q    Type
REMARK                         _______ _______ _______ _____ _____    ______ ____
ROOT
ATOM      1  C   UNL     1       3.356   6.600  18.035  0.00  0.00    +0.000 A 
ATOM      2  C   UNL     1       4.195   7.266  17.112  0.00  0.00    +0.000 A 
ATOM      3  C   UNL     1       5.448   6.771  16.751  0.00  0.00    +0.000 A 
ATOM      4  C   UNL     1       5.923   5.577  17.306  0.00  0.00    +0.000 A 
ATOM      5  C   UNL     1       5.094   4.911  18.225  0.00  0.00    +0.000 A 
ATOM      6  N   UNL     1       5.311   3.738  18.912  0.00  0.00    +0.000 N 
ATOM      7  CA  UNL     1       4.259   3.433  19.741  0.00  0.00    +0.000 A 
ATOM      8  C   UNL     1       3.338   4.455  19.577  0.00  0.00    +0.000 A 
ATOM      9  C   UNL     1       3.836   5.385  18.603  0.00  0.00    +0.000 A 
ATOM     10  H   UNL     1       6.148   3.170  18.830  0.00  0.00    +0.000 HD
ENDROOT
BRANCH   4  11
ATOM     11  N   UNL     1       7.248   5.076  16.918  0.00  0.00    +0.000 N 
ATOM     12  O   UNL     1       7.860   4.364  17.724  0.00  0.00    +0.000 OA
ATOM     13  O   UNL     1       7.671   5.401  15.798  0.00  0.00    +0.000 OA
ENDBRANCH   4  11
BRANCH   1  14
ATOM     14  N   UNL     1       2.104   7.198  18.305  0.00  0.00    +0.000 N 
ATOM     15  H   UNL     1       1.445   7.121  17.538  0.00  0.00    +0.000 HD
BRANCH  14  19
ATOM     16  C   UNL     1       0.915   9.849  21.369  0.00  0.00    +0.000 A 
ATOM     17  C   UNL     1       0.866  10.238  20.031  0.00  0.00    +0.000 A 
ATOM     18  C   UNL     1       1.248   9.348  19.022  0.00  0.00    +0.000 A 
ATOM     19  C   UNL     1       1.707   8.063  19.334  0.00  0.00    +0.000 A 
ATOM     20  C   UNL     1       1.778   7.696  20.682  0.00  0.00    +0.000 A 
ATOM     21  C   UNL     1       1.387   8.579  21.694  0.00  0.00    +0.000 A 
BRANCH  16  23
ATOM     22  C   UNL     1      -0.766  10.570  22.856  0.00  0.00    +0.000 C 
ATOM     23  O   UNL     1       0.515  10.793  22.274  0.00  0.00    +0.000 OA
ENDBRANCH  16  23
ENDBRANCH  14  19
ENDBRANCH   1  14
BRANCH   7  24
ATOM     24  C   UNL     1       4.318   2.233  20.541  0.00  0.00    +0.000 C 
ATOM     25  O   UNL     1       3.641   2.043  21.540  0.00  0.00    +0.000 OA
BRANCH  24  26
ATOM     26  OXT UNL     1       5.206   1.322  20.087  0.00  0.00    +0.000 OA
ATOM     27  HXT UNL     1       5.140   1.154  19.133  0.00  0.00    +0.000 HD
ENDBRANCH  24  26
ENDBRANCH   7  24
TORSDOF 6
ENDMDL
MODEL 5
REMARK VINA RESULT:      -7.9      1.330      1.396
REMARK  Name = 
REMARK  7 active torsions:
REMARK  status: ('A' for Active; 'I' for Inactive)
REMARK    1  A    between atoms: C_1  and  O_2
REMARK    2  A    between atoms: O_2  and  C_3
REMARK    3  A    between atoms: C_6  and  N_7
REMARK    4  A    between atoms: N_7  and  C_8
REMARK    5  A    between atoms: C_11  and  N_12
REMARK    6  A    between atoms: CA_17  and  C_18
REMARK    7  A    between atoms: C_18  and  OXT_20
REMARK                            x       y       z     vdW  Elec       q    Type
REMARK                         _______ _______ _______ _____ _____    ______ ____
ROOT
ATOM      1  C   UNL     1       3.521   6.308  17.802  0.00  0.00    +0.000 A 
ATOM      2  C   UNL     1       4.406   6.910  16.877  0.00  0.00    +0.000 A 
ATOM      3  C   UNL     1       5.675   6.396  16.616  0.00  0.00    +0.000 A 
ATOM      4  C   UNL     1       6.122   5.246  17.278  0.00  0.00    +0.000 A 
ATOM      5  C   UNL     1       5.248   4.643  18.199  0.00  0.00    +0.000 A 
ATOM      6  N   UNL     1       5.430   3.523  18.978  0.00  0.00    +0.000 N 
ATOM      7  CA  UNL     1       4.337   3.274  19.772  0.00  0.00    +0.000 A 
ATOM      8  C   UNL     1       3.426   4.279  19.490  0.00  0.00    +0.000 A 
ATOM      9  C   UNL     1       3.973   5.139  18.478  0.00  0.00    +0.000 A 
ATOM     10  H   UNL     1       6.271   2.954  18.979  0.00  0.00    +0.000 HD
ENDROOT
BRANCH   4  11
ATOM     11  N   UNL     1       7.465   4.723  16.993  0.00  0.00    +0.000 N 
ATOM     12  O   UNL     1       7.816   4.635  15.809  0.00  0.00    +0.000 OA
ATOM     13  O   UNL     1       8.166   4.403  17.964  0.00  0.00    +0.000 OA
ENDBRANCH   4  11
BRANCH   1  14
ATOM     14  N   UNL     1       2.257   6.920  17.965  0.00  0.00    +0.000 N 
ATOM     15  H   UNL     1       1.527   6.496  17.403  0.00  0.00    +0.000 HD
BRANCH  14  19
ATOM     16  C   UNL     1       1.148  10.533  19.848  0.00  0.00    +0.000 A 
ATOM     17  C   UNL     1       1.152   9.332  20.556  0.00  0.00    +0.000 A 
ATOM     18  C   UNL     1       1.535   8.142  19.928  0.00  0.00    +0.000 A 
ATOM     19  C   UNL     1       1.898   8.129  18.577  0.00  0.00    +0.000 A 
ATOM     20  C   UNL     1       1.863   9.337  17.871  0.00  0.00    +0.000 A 
ATOM     21  C   UNL     1       1.491  10.530  18.498  0.00  0.00    +0.000 A 
BRANCH  16  23
ATOM     22  C   UNL     1      -0.105  11.377  21.658  0.00  0.00    +0.000 C 
ATOM     23  O   UNL     1       0.763  11.636  20.559  0.00  0.00    +0.000 OA
ENDBRANCH  16  23
ENDBRANCH  14  19
ENDBRANCH   1  14
BRANCH   7  24
ATOM     24  C   UNL     1       4.356   2.135  20.658  0.00  0.00    +0.000 C 
ATOM     25  O   UNL     1       3.600   1.992  21.605  0.00  0.00    +0.000 OA
BRANCH  24  26
ATOM     26  OXT UNL     1       5.305   1.224  20.349  0.00  0.00    +0.000 OA
ATOM     27  HXT UNL     1       5.093   0.324  20.645  0.00  0.00    +0.000 HD
ENDBRANCH  24  26
ENDBRANCH   7  24
TORSDOF 6
ENDMDL
MODEL 6
REMARK VINA RESULT:      -7.8      1.547      3.631
REMARK  Name = 
REMARK  7 active torsions:
REMARK  status: ('A' for Active; 'I' for Inactive)
REMARK    1  A    between atoms: C_1  and  O_2
REMARK    2  A    between atoms: O_2  and  C_3
REMARK    3  A    between atoms: C_6  and  N_7
REMARK    4  A    between atoms: N_7  and  C_8
REMARK    5  A    between atoms: C_11  and  N_12
REMARK    6  A    between atoms: CA_17  and  C_18
REMARK    7  A    between atoms: C_18  and  OXT_20
REMARK                            x       y       z     vdW  Elec       q    Type
REMARK                         _______ _______ _______ _____ _____    ______ ____
ROOT
ATOM      1  C   UNL     1       2.827   6.114  18.711  0.00  0.00    +0.000 A 
ATOM      2  C   UNL     1       2.022   5.484  19.689  0.00  0.00    +0.000 A 
ATOM      3  C   UNL     1       2.409   4.307  20.328  0.00  0.00    +0.000 A 
ATOM      4  C   UNL     1       3.631   3.700  20.012  0.00  0.00    +0.000 A 
ATOM      5  C   UNL     1       4.435   4.320  19.041  0.00  0.00    +0.000 A 
ATOM      6  N   UNL     1       5.663   3.942  18.546  0.00  0.00    +0.000 N 
ATOM      7  CA  UNL     1       6.109   4.810  17.580  0.00  0.00    +0.000 A 
ATOM      8  C   UNL     1       5.124   5.775  17.452  0.00  0.00    +0.000 A 
ATOM      9  C   UNL     1       4.069   5.498  18.386  0.00  0.00    +0.000 A 
ATOM     10  H   UNL     1       6.174   3.118  18.846  0.00  0.00    +0.000 HD
ENDROOT
BRANCH   4  11
ATOM     11  N   UNL     1       4.017   2.456  20.693  0.00  0.00    +0.000 N 
ATOM     12  O   UNL     1       4.967   1.811  20.231  0.00  0.00    +0.000 OA
ATOM     13  O   UNL     1       3.362   2.132  21.695  0.00  0.00    +0.000 OA
ENDBRANCH   4  11
BRANCH   1  14
ATOM     14  N   UNL     1       2.327   7.310  18.148  0.00  0.00    +0.000 N 
ATOM     15  H   UNL     1       2.502   7.392  17.152  0.00  0.00    +0.000 HD
BRANCH  14  19
ATOM     16  C   UNL     1       0.865  10.799  20.025  0.00  0.00    +0.000 A 
ATOM     17  C   UNL     1       0.903   9.584  20.708  0.00  0.00    +0.000 A 
ATOM     18  C   UNL     1       1.403   8.437  20.083  0.00  0.00    +0.000 A 
ATOM     19  C   UNL     1       1.851   8.480  18.758  0.00  0.00    +0.000 A 
ATOM     20  C   UNL     1       1.782   9.698  18.075  0.00  0.00    +0.000 A 
ATOM     21  C   UNL     1       1.292  10.850  18.700  0.00  0.00    +0.000 A 
BRANCH  16  23
ATOM     22  C   UNL     1      -0.391  11.513  21.888  0.00  0.00    +0.000 C 
ATOM     23  O   UNL     1       0.364  11.858  20.730  0.00  0.00    +0.000 OA
ENDBRANCH  16  23
ENDBRANCH  14  19
ENDBRANCH   1  14
BRANCH   7  24
ATOM     24  C   UNL     1       7.384   4.564  16.949  0.00  0.00    +0.000 C 
ATOM     25  O   UNL     1       7.624   4.803  15.776  0.00  0.00    +0.000 OA
BRANCH  24  26
ATOM     26  OXT UNL     1       8.306   4.032  17.780  0.00  0.00    +0.000 OA
ATOM     27  HXT UNL     1       9.133   3.782  17.337  0.00  0.00    +0.000 HD
ENDBRANCH  24  26
ENDBRANCH   7  24
TORSDOF 6
ENDMDL
MODEL 7
REMARK VINA RESULT:      -7.8      1.697      3.954
REMARK  Name = 
REMARK  7 active torsions:
REMARK  status: ('A' for Active; 'I' for Inactive)
REMARK    1  A    between atoms: C_1  and  O_2
REMARK    2  A    between atoms: O_2  and  C_3
REMARK    3  A    between atoms: C_6  and  N_7
REMARK    4  A    between atoms: N_7  and  C_8
REMARK    5  A    between atoms: C_11  and  N_12
REMARK    6  A    between atoms: CA_17  and  C_18
REMARK    7  A    between atoms: C_18  and  OXT_20
REMARK                            x       y       z     vdW  Elec       q    Type
REMARK                         _______ _______ _______ _____ _____    ______ ____
ROOT
ATOM      1  C   UNL     1       3.004   6.301  18.872  0.00  0.00    +0.000 A 
ATOM      2  C   UNL     1       2.126   5.677  19.789  0.00  0.00    +0.000 A 
ATOM      3  C   UNL     1       2.419   4.451  20.385  0.00  0.00    +0.000 A 
ATOM      4  C   UNL     1       3.614   3.787  20.084  0.00  0.00    +0.000 A 
ATOM      5  C   UNL     1       4.490   4.401  19.173  0.00  0.00    +0.000 A 
ATOM      6  N   UNL     1       5.712   3.973  18.706  0.00  0.00    +0.000 N 
ATOM      7  CA  UNL     1       6.246   4.856  17.799  0.00  0.00    +0.000 A 
ATOM      8  C   UNL     1       5.324   5.884  17.682  0.00  0.00    +0.000 A 
ATOM      9  C   UNL     1       4.219   5.628  18.563  0.00  0.00    +0.000 A 
ATOM     10  H   UNL     1       6.162   3.107  18.984  0.00  0.00    +0.000 HD
ENDROOT
BRANCH   4  11
ATOM     11  N   UNL     1       3.901   2.493  20.719  0.00  0.00    +0.000 N 
ATOM     12  O   UNL     1       3.233   2.170  21.710  0.00  0.00    +0.000 OA
ATOM     13  O   UNL     1       4.799   1.803  20.216  0.00  0.00    +0.000 OA
ENDBRANCH   4  11
BRANCH   1  14
ATOM     14  N   UNL     1       2.596   7.550  18.349  0.00  0.00    +0.000 N 
ATOM     15  H   UNL     1       3.178   7.878  17.586  0.00  0.00    +0.000 HD
BRANCH  14  19
ATOM     16  C   UNL     1      -0.123  10.438  19.797  0.00  0.00    +0.000 A 
ATOM     17  C   UNL     1       0.109  10.300  18.430  0.00  0.00    +0.000 A 
ATOM     18  C   UNL     1       1.001   9.330  17.958  0.00  0.00    +0.000 A 
ATOM     19  C   UNL     1       1.692   8.499  18.847  0.00  0.00    +0.000 A 
ATOM     20  C   UNL     1       1.471   8.668  20.218  0.00  0.00    +0.000 A 
ATOM     21  C   UNL     1       0.573   9.629  20.693  0.00  0.00    +0.000 A 
BRANCH  16  23
ATOM     22  C   UNL     1      -1.644  12.082  19.059  0.00  0.00    +0.000 C 
ATOM     23  O   UNL     1      -1.017  11.412  20.149  0.00  0.00    +0.000 OA
ENDBRANCH  16  23
ENDBRANCH  14  19
ENDBRANCH   1  14
BRANCH   7  24
ATOM     24  C   UNL     1       7.528   4.563  17.203  0.00  0.00    +0.000 C 
ATOM     25  O   UNL     1       8.474   4.092  17.814  0.00  0.00    +0.000 OA
BRANCH  24  26
ATOM     26  OXT UNL     1       7.596   4.868  15.889  0.00  0.00    +0.000 OA
ATOM     27  HXT UNL     1       7.173   5.712  15.662  0.00  0.00    +0.000 HD
ENDBRANCH  24  26
ENDBRANCH   7  24
TORSDOF 6
ENDMDL
MODEL 8
REMARK VINA RESULT:      -7.8      1.330      1.885
REMARK  Name = 
REMARK  7 active torsions:
REMARK  status: ('A' for Active; 'I' for Inactive)
REMARK    1  A    between atoms: C_1  and  O_2
REMARK    2  A    between atoms: O_2  and  C_3
REMARK    3  A    between atoms: C_6  and  N_7
REMARK    4  A    between atoms: N_7  and  C_8
REMARK    5  A    between atoms: C_11  and  N_12
REMARK    6  A    between atoms: CA_17  and  C_18
REMARK    7  A    between atoms: C_18  and  OXT_20
REMARK                            x       y       z     vdW  Elec       q    Type
REMARK                         _______ _______ _______ _____ _____    ______ ____
ROOT
ATOM      1  C   UNL     1       3.537   6.202  17.808  0.00  0.00    +0.000 A 
ATOM      2  C   UNL     1       4.400   6.799  16.859  0.00  0.00    +0.000 A 
ATOM      3  C   UNL     1       5.671   6.296  16.587  0.00  0.00    +0.000 A 
ATOM      4  C   UNL     1       6.142   5.163  17.261  0.00  0.00    +0.000 A 
ATOM      5  C   UNL     1       5.290   4.566  18.206  0.00  0.00    +0.000 A 
ATOM      6  N   UNL     1       5.499   3.462  19.001  0.00  0.00    +0.000 N 
ATOM      7  CA  UNL     1       4.422   3.213  19.816  0.00  0.00    +0.000 A 
ATOM      8  C   UNL     1       3.494   4.201  19.531  0.00  0.00    +0.000 A 
ATOM      9  C   UNL     1       4.014   5.051  18.497  0.00  0.00    +0.000 A 
ATOM     10  H   UNL     1       6.346   2.903  18.998  0.00  0.00    +0.000 HD
ENDROOT
BRANCH   4  11
ATOM     11  N   UNL     1       7.488   4.652  16.964  0.00  0.00    +0.000 N 
ATOM     12  O   UNL     1       7.835   4.584  15.778  0.00  0.00    +0.000 OA
ATOM     13  O   UNL     1       8.193   4.321  17.928  0.00  0.00    +0.000 OA
ENDBRANCH   4  11
BRANCH   1  14
ATOM     14  N   UNL     1       2.268   6.801  17.981  0.00  0.00    +0.000 N 
ATOM     15  H   UNL     1       1.593   6.528  17.275  0.00  0.00    +0.000 HD
BRANCH  14  19
ATOM     16  C   UNL     1       1.063  10.036  20.412  0.00  0.00    +0.000 A 
ATOM     17  C   UNL     1       1.228  10.200  19.038  0.00  0.00    +0.000 A 
ATOM     18  C   UNL     1       1.614   9.119  18.238  0.00  0.00    +0.000 A 
ATOM     19  C   UNL     1       1.862   7.863  18.802  0.00  0.00    +0.000 A 
ATOM     20  C   UNL     1       1.720   7.719  20.186  0.00  0.00    +0.000 A 
ATOM     21  C   UNL     1       1.325   8.794  20.988  0.00  0.00    +0.000 A 
BRANCH  16  23
ATOM     22  C   UNL     1       1.271  12.372  20.655  0.00  0.00    +0.000 C 
ATOM     23  O   UNL     1       0.678  11.155  21.099  0.00  0.00    +0.000 OA
ENDBRANCH  16  23
ENDBRANCH  14  19
ENDBRANCH   1  14
BRANCH   7  24
ATOM     24  C   UNL     1       4.468   2.089  20.721  0.00  0.00    +0.000 C 
ATOM     25  O   UNL     1       5.308   1.205  20.670  0.00  0.00    +0.000 OA
BRANCH  24  26
ATOM     26  OXT UNL     1       3.480   2.094  21.643  0.00  0.00    +0.000 OA
ATOM     27  HXT UNL     1       3.442   1.285  22.178  0.00  0.00    +0.000 HD
ENDBRANCH  24  26
ENDBRANCH   7  24
TORSDOF 6
ENDMDL
MODEL 9
REMARK VINA RESULT:      -7.7      1.079      1.596
REMARK  Name = 
REMARK  7 active torsions:
REMARK  status: ('A' for Active; 'I' for Inactive)
REMARK    1  A    between atoms: C_1  and  O_2
REMARK    2  A    between atoms: O_2  and  C_3
REMARK    3  A    between atoms: C_6  and  N_7
REMARK    4  A    between atoms: N_7  and  C_8
REMARK    5  A    between atoms: C_11  and  N_12
REMARK    6  A    between atoms: CA_17  and  C_18
REMARK    7  A    between atoms: C_18  and  OXT_20
REMARK                            x       y       z     vdW  Elec       q    Type
REMARK                         _______ _______ _______ _____ _____    ______ ____
ROOT
ATOM      1  C   UNL     1       2.969   7.104  17.743  0.00  0.00    +0.000 A 
ATOM      2  C   UNL     1       4.221   7.553  17.261  0.00  0.00    +0.000 A 
ATOM      3  C   UNL     1       5.248   6.674  16.920  0.00  0.00    +0.000 A 
ATOM      4  C   UNL     1       5.068   5.292  17.049  0.00  0.00    +0.000 A 
ATOM      5  C   UNL     1       3.827   4.839  17.529  0.00  0.00    +0.000 A 
ATOM      6  N   UNL     1       3.388   3.553  17.752  0.00  0.00    +0.000 N 
ATOM      7  CA  UNL     1       2.109   3.533  18.252  0.00  0.00    +0.000 A 
ATOM      8  C   UNL     1       1.721   4.859  18.355  0.00  0.00    +0.000 A 
ATOM      9  C   UNL     1       2.783   5.699  17.878  0.00  0.00    +0.000 A 
ATOM     10  H   UNL     1       3.942   2.720  17.581  0.00  0.00    +0.000 HD
ENDROOT
BRANCH   4  11
ATOM     11  N   UNL     1       6.165   4.383  16.690  0.00  0.00    +0.000 N 
ATOM     12  O   UNL     1       7.260   4.546  17.244  0.00  0.00    +0.000 OA
ATOM     13  O   UNL     1       5.920   3.505  15.850  0.00  0.00    +0.000 OA
ENDBRANCH   4  11
BRANCH   1  14
ATOM     14  N   UNL     1       2.007   8.096  18.040  0.00  0.00    +0.000 N 
ATOM     15  H   UNL     1       1.683   8.603  17.223  0.00  0.00    +0.000 HD
BRANCH  14  19
ATOM     16  C   UNL     1       0.813   9.805  21.712  0.00  0.00    +0.000 A 
ATOM     17  C   UNL     1       0.733  10.534  20.527  0.00  0.00    +0.000 A 
ATOM     18  C   UNL     1       1.117   9.955  19.313  0.00  0.00    +0.000 A 
ATOM     19  C   UNL     1       1.609   8.646  19.267  0.00  0.00    +0.000 A 
ATOM     20  C   UNL     1       1.710   7.934  20.467  0.00  0.00    +0.000 A 
ATOM     21  C   UNL     1       1.318   8.506  21.681  0.00  0.00    +0.000 A 
BRANCH  16  23
ATOM     22  C   UNL     1      -1.000  10.473  23.063  0.00  0.00    +0.000 C 
ATOM     23  O   UNL     1       0.407  10.463  22.840  0.00  0.00    +0.000 OA
ENDBRANCH  16  23
ENDBRANCH  14  19
ENDBRANCH   1  14
BRANCH   7  24
ATOM     24  C   UNL     1       1.489   2.263  18.547  0.00  0.00    +0.000 C 
ATOM     25  O   UNL     1       0.289   2.110  18.714  0.00  0.00    +0.000 OA
BRANCH  24  26
ATOM     26  OXT UNL     1       2.366   1.239  18.631  0.00  0.00    +0.000 OA
ATOM     27  HXT UNL     1       2.131   0.579  19.303  0.00  0.00    +0.000 HD
ENDBRANCH  24  26
ENDBRANCH   7  24
TORSDOF 6
ENDMDL
