MODEL 1
REMARK VINA RESULT:      -7.4      0.000      0.000
REMARK  Name = 
REMARK  11 active torsions:
REMARK  status: ('A' for Active; 'I' for Inactive)
REMARK    1  A    between atoms: C_1  and  O_2
REMARK    2  A    between atoms: O_2  and  C_3
REMARK    3  A    between atoms: C_6  and  O_7
REMARK    4  A    between atoms: O_7  and  C_8
REMARK    5  A    between atoms: C_9  and  C_10
REMARK    6  A    between atoms: C_10  and  C_11
REMARK    7  A    between atoms: C_11  and  C_13
REMARK    8  A    between atoms: C_18  and  O_19
REMARK    9  A    between atoms: O_19  and  C_20
REMARK   10  A    between atoms: C_23  and  C_24
REMARK   11  A    between atoms: C_23  and  C_25
REMARK                            x       y       z     vdW  Elec       q    Type
REMARK                         _______ _______ _______ _____ _____    ______ ____
ROOT
ATOM      1  C   UNL     1       2.663   5.770  18.267  0.00  0.00    +0.000 A 
ATOM      2  C   UNL     1       3.322   6.751  17.519  0.00  0.00    +0.000 A 
ATOM      3  C   UNL     1       3.054   8.086  17.783  0.00  0.00    +0.000 A 
ATOM      4  C   UNL     1       2.255   8.397  18.871  0.00  0.00    +0.000 A 
ATOM      5  C   UNL     1       2.066   7.479  19.880  0.00  0.00    +0.000 A 
ATOM      6  C   UNL     1       2.058   6.144  19.489  0.00  0.00    +0.000 A 
ATOM      7  C   UNL     1       1.736   8.023  21.195  0.00  0.00    +0.000 C 
ATOM      8  C   UNL     1       0.962   9.114  21.200  0.00  0.00    +0.000 C 
ATOM      9  C   UNL     1       0.548   9.755  19.895  0.00  0.00    +0.000 C 
ATOM     10  C   UNL     1       0.575  11.275  19.982  0.00  0.00    +0.000 C 
ATOM     11  C   UNL     1      -0.883   9.283  19.570  0.00  0.00    +0.000 C 
ATOM     12  O   UNL     1       1.512   9.541  18.824  0.00  0.00    +0.000 OA
ENDROOT
BRANCH   1  13
ATOM     13  C   UNL     1       2.536   4.394  17.696  0.00  0.00    +0.000 C 
ATOM     14  O   UNL     1       1.452   3.987  17.272  0.00  0.00    +0.000 OA
BRANCH  13  15
ATOM     15  C   UNL     1       3.765   3.494  17.621  0.00  0.00    +0.000 C 
BRANCH  15  20
ATOM     16  C   UNL     1       6.128   4.376  14.740  0.00  0.00    +0.000 A 
ATOM     17  C   UNL     1       7.262   4.799  15.420  0.00  0.00    +0.000 A 
ATOM     18  C   UNL     1       7.278   4.830  16.810  0.00  0.00    +0.000 A 
ATOM     19  C   UNL     1       6.152   4.427  17.538  0.00  0.00    +0.000 A 
ATOM     20  C   UNL     1       4.974   4.035  16.867  0.00  0.00    +0.000 A 
ATOM     21  C   UNL     1       4.974   4.019  15.455  0.00  0.00    +0.000 A 
BRANCH  16  23
ATOM     22  C   UNL     1       5.601   3.283  12.682  0.00  0.00    +0.000 C 
ATOM     23  O   UNL     1       6.278   4.318  13.378  0.00  0.00    +0.000 OA
ENDBRANCH  16  23
BRANCH  19  24
ATOM     24  O   UNL     1       6.119   4.409  18.909  0.00  0.00    +0.000 OA
ATOM     25  C   UNL     1       6.818   5.466  19.564  0.00  0.00    +0.000 C 
ENDBRANCH  19  24
ENDBRANCH  15  20
ENDBRANCH  13  15
ENDBRANCH   1  13
BRANCH   6  26
ATOM     26  O   UNL     1       1.309   5.288  20.265  0.00  0.00    +0.000 OA
ATOM     27  C   UNL     1       2.169   4.483  21.112  0.00  0.00    +0.000 C 
ENDBRANCH   6  26
TORSDOF 6
ENDMDL
MODEL 2
REMARK VINA RESULT:      -7.2      2.780      8.139
REMARK  Name = 
REMARK  11 active torsions:
REMARK  status: ('A' for Active; 'I' for Inactive)
REMARK    1  A    between atoms: C_1  and  O_2
REMARK    2  A    between atoms: O_2  and  C_3
REMARK    3  A    between atoms: C_6  and  O_7
REMARK    4  A    between atoms: O_7  and  C_8
REMARK    5  A    between atoms: C_9  and  C_10
REMARK    6  A    between atoms: C_10  and  C_11
REMARK    7  A    between atoms: C_11  and  C_13
REMARK    8  A    between atoms: C_18  and  O_19
REMARK    9  A    between atoms: O_19  and  C_20
REMARK   10  A    between atoms: C_23  and  C_24
REMARK   11  A    between atoms: C_23  and  C_25
REMARK                            x       y       z     vdW  Elec       q    Type
REMARK                         _______ _______ _______ _____ _____    ______ ____
ROOT
ATOM      1  C   UNL     1       2.011   8.068  19.017  0.00  0.00    +0.000 A 
ATOM      2  C   UNL     1       1.530   8.182  20.326  0.00  0.00    +0.000 A 
ATOM      3  C   UNL     1       1.440   7.039  21.108  0.00  0.00    +0.000 A 
ATOM      4  C   UNL     1       1.964   5.858  20.612  0.00  0.00    +0.000 A 
ATOM      5  C   UNL     1       2.885   5.880  19.588  0.00  0.00    +0.000 A 
ATOM      6  C   UNL     1       2.734   6.907  18.661  0.00  0.00    +0.000 A 
ATOM      7  C   UNL     1       3.794   4.739  19.511  0.00  0.00    +0.000 C 
ATOM      8  C   UNL     1       3.276   3.553  19.849  0.00  0.00    +0.000 C 
ATOM      9  C   UNL     1       1.853   3.464  20.351  0.00  0.00    +0.000 C 
ATOM     10  C   UNL     1       1.721   2.465  21.494  0.00  0.00    +0.000 C 
ATOM     11  C   UNL     1       0.963   3.020  19.174  0.00  0.00    +0.000 C 
ATOM     12  O   UNL     1       1.407   4.680  21.019  0.00  0.00    +0.000 OA
ENDROOT
BRANCH   1  13
ATOM     13  C   UNL     1       1.653   9.128  18.025  0.00  0.00    +0.000 C 
ATOM     14  O   UNL     1       2.513   9.902  17.597  0.00  0.00    +0.000 OA
BRANCH  13  15
ATOM     15  C   UNL     1       0.217   9.239  17.525  0.00  0.00    +0.000 C 
BRANCH  15  20
ATOM     16  C   UNL     1      -1.053  11.837  20.034  0.00  0.00    +0.000 A 
ATOM     17  C   UNL     1      -2.325  12.107  19.547  0.00  0.00    +0.000 A 
ATOM     18  C   UNL     1      -2.785  11.478  18.395  0.00  0.00    +0.000 A 
ATOM     19  C   UNL     1      -1.972  10.561  17.720  0.00  0.00    +0.000 A 
ATOM     20  C   UNL     1      -0.660  10.304  18.172  0.00  0.00    +0.000 A 
ATOM     21  C   UNL     1      -0.207  10.959  19.338  0.00  0.00    +0.000 A 
BRANCH  16  23
ATOM     22  C   UNL     1      -1.005  11.748  22.421  0.00  0.00    +0.000 C 
ATOM     23  O   UNL     1      -0.761  12.462  21.220  0.00  0.00    +0.000 OA
ENDBRANCH  16  23
BRANCH  19  24
ATOM     24  O   UNL     1      -2.381   9.889  16.596  0.00  0.00    +0.000 OA
ATOM     25  C   UNL     1      -2.809  10.702  15.504  0.00  0.00    +0.000 C 
ENDBRANCH  19  24
ENDBRANCH  15  20
ENDBRANCH  13  15
ENDBRANCH   1  13
BRANCH   6  26
ATOM     26  O   UNL     1       3.179   6.644  17.385  0.00  0.00    +0.000 OA
ATOM     27  C   UNL     1       4.573   7.021  17.243  0.00  0.00    +0.000 C 
ENDBRANCH   6  26
TORSDOF 6
ENDMDL
MODEL 3
REMARK VINA RESULT:      -7.1      2.174      7.671
REMARK  Name = 
REMARK  11 active torsions:
REMARK  status: ('A' for Active; 'I' for Inactive)
REMARK    1  A    between atoms: C_1  and  O_2
REMARK    2  A    between atoms: O_2  and  C_3
REMARK    3  A    between atoms: C_6  and  O_7
REMARK    4  A    between atoms: O_7  and  C_8
REMARK    5  A    between atoms: C_9  and  C_10
REMARK    6  A    between atoms: C_10  and  C_11
REMARK    7  A    between atoms: C_11  and  C_13
REMARK    8  A    between atoms: C_18  and  O_19
REMARK    9  A    between atoms: O_19  and  C_20
REMARK   10  A    between atoms: C_23  and  C_24
REMARK   11  A    between atoms: C_23  and  C_25
REMARK                            x       y       z     vdW  Elec       q    Type
REMARK                         _______ _______ _______ _____ _____    ______ ____
ROOT
ATOM      1  C   UNL     1       2.171   7.665  19.072  0.00  0.00    +0.000 A 
ATOM      2  C   UNL     1       2.571   8.222  17.853  0.00  0.00    +0.000 A 
ATOM      3  C   UNL     1       3.653   7.665  17.186  0.00  0.00    +0.000 A 
ATOM      4  C   UNL     1       4.201   6.493  17.680  0.00  0.00    +0.000 A 
ATOM      5  C   UNL     1       3.478   5.694  18.538  0.00  0.00    +0.000 A 
ATOM      6  C   UNL     1       2.607   6.360  19.395  0.00  0.00    +0.000 A 
ATOM      7  C   UNL     1       3.832   4.277  18.554  0.00  0.00    +0.000 C 
ATOM      8  C   UNL     1       5.130   3.995  18.395  0.00  0.00    +0.000 C 
ATOM      9  C   UNL     1       6.120   5.109  18.137  0.00  0.00    +0.000 C 
ATOM     10  C   UNL     1       7.169   4.701  17.110  0.00  0.00    +0.000 C 
ATOM     11  C   UNL     1       6.811   5.446  19.473  0.00  0.00    +0.000 C 
ATOM     12  O   UNL     1       5.526   6.253  17.459  0.00  0.00    +0.000 OA
ENDROOT
BRANCH   1  13
ATOM     13  C   UNL     1       1.386   8.508  20.025  0.00  0.00    +0.000 C 
ATOM     14  O   UNL     1       0.951   8.030  21.075  0.00  0.00    +0.000 OA
BRANCH  13  15
ATOM     15  C   UNL     1       1.139   9.979  19.704  0.00  0.00    +0.000 C 
BRANCH  15  20
ATOM     16  C   UNL     1      -1.898  10.230  17.386  0.00  0.00    +0.000 A 
ATOM     17  C   UNL     1      -2.681  11.171  18.043  0.00  0.00    +0.000 A 
ATOM     18  C   UNL     1      -2.258  11.720  19.247  0.00  0.00    +0.000 A 
ATOM     19  C   UNL     1      -1.034  11.335  19.808  0.00  0.00    +0.000 A 
ATOM     20  C   UNL     1      -0.243  10.349  19.181  0.00  0.00    +0.000 A 
ATOM     21  C   UNL     1      -0.694   9.796  17.962  0.00  0.00    +0.000 A 
BRANCH  16  23
ATOM     22  C   UNL     1      -3.028  10.815  15.364  0.00  0.00    +0.000 C 
ATOM     23  O   UNL     1      -2.396   9.834  16.171  0.00  0.00    +0.000 OA
ENDBRANCH  16  23
BRANCH  19  24
ATOM     24  O   UNL     1      -0.552  11.863  20.978  0.00  0.00    +0.000 OA
ATOM     25  C   UNL     1      -1.533  12.327  21.904  0.00  0.00    +0.000 C 
ENDBRANCH  19  24
ENDBRANCH  15  20
ENDBRANCH  13  15
ENDBRANCH   1  13
BRANCH   6  26
ATOM     26  O   UNL     1       2.351   5.743  20.599  0.00  0.00    +0.000 OA
ATOM     27  C   UNL     1       1.284   4.769  20.457  0.00  0.00    +0.000 C 
ENDBRANCH   6  26
TORSDOF 6
ENDMDL
MODEL 4
REMARK VINA RESULT:      -6.9      2.821      7.657
REMARK  Name = 
REMARK  11 active torsions:
REMARK  status: ('A' for Active; 'I' for Inactive)
REMARK    1  A    between atoms: C_1  and  O_2
REMARK    2  A    between atoms: O_2  and  C_3
REMARK    3  A    between atoms: C_6  and  O_7
REMARK    4  A    between atoms: O_7  and  C_8
REMARK    5  A    between atoms: C_9  and  C_10
REMARK    6  A    between atoms: C_10  and  C_11
REMARK    7  A    between atoms: C_11  and  C_13
REMARK    8  A    between atoms: C_18  and  O_19
REMARK    9  A    between atoms: O_19  and  C_20
REMARK   10  A    between atoms: C_23  and  C_24
REMARK   11  A    between atoms: C_23  and  C_25
REMARK                            x       y       z     vdW  Elec       q    Type
REMARK                         _______ _______ _______ _____ _____    ______ ____
ROOT
ATOM      1  C   UNL     1       2.075   8.074  19.183  0.00  0.00    +0.000 A 
ATOM      2  C   UNL     1       1.532   8.105  20.472  0.00  0.00    +0.000 A 
ATOM      3  C   UNL     1       1.377   6.911  21.162  0.00  0.00    +0.000 A 
ATOM      4  C   UNL     1       1.900   5.755  20.607  0.00  0.00    +0.000 A 
ATOM      5  C   UNL     1       2.872   5.828  19.634  0.00  0.00    +0.000 A 
ATOM      6  C   UNL     1       2.790   6.923  18.779  0.00  0.00    +0.000 A 
ATOM      7  C   UNL     1       3.758   4.673  19.518  0.00  0.00    +0.000 C 
ATOM      8  C   UNL     1       3.198   3.479  19.742  0.00  0.00    +0.000 C 
ATOM      9  C   UNL     1       1.749   3.391  20.166  0.00  0.00    +0.000 C 
ATOM     10  C   UNL     1       1.538   2.316  21.224  0.00  0.00    +0.000 C 
ATOM     11  C   UNL     1       0.911   3.055  18.917  0.00  0.00    +0.000 C 
ATOM     12  O   UNL     1       1.297   4.566  20.899  0.00  0.00    +0.000 OA
ENDROOT
BRANCH   1  13
ATOM     13  C   UNL     1       1.792   9.211  18.255  0.00  0.00    +0.000 C 
ATOM     14  O   UNL     1       2.078   9.130  17.058  0.00  0.00    +0.000 OA
BRANCH  13  15
ATOM     15  C   UNL     1       1.126  10.474  18.792  0.00  0.00    +0.000 C 
BRANCH  15  20
ATOM     16  C   UNL     1      -2.314  10.150  17.142  0.00  0.00    +0.000 A 
ATOM     17  C   UNL     1      -3.075  11.037  17.891  0.00  0.00    +0.000 A 
ATOM     18  C   UNL     1      -2.503  11.735  18.949  0.00  0.00    +0.000 A 
ATOM     19  C   UNL     1      -1.151  11.554  19.265  0.00  0.00    +0.000 A 
ATOM     20  C   UNL     1      -0.370  10.624  18.546  0.00  0.00    +0.000 A 
ATOM     21  C   UNL     1      -0.971   9.918  17.480  0.00  0.00    +0.000 A 
BRANCH  16  23
ATOM     22  C   UNL     1      -3.330  10.444  15.000  0.00  0.00    +0.000 C 
ATOM     23  O   UNL     1      -2.981   9.593  16.080  0.00  0.00    +0.000 OA
ENDBRANCH  16  23
BRANCH  19  24
ATOM     24  O   UNL     1      -0.526  12.235  20.278  0.00  0.00    +0.000 OA
ATOM     25  C   UNL     1      -0.729  11.721  21.594  0.00  0.00    +0.000 C 
ENDBRANCH  19  24
ENDBRANCH  15  20
ENDBRANCH  13  15
ENDBRANCH   1  13
BRANCH   6  26
ATOM     26  O   UNL     1       3.294   6.742  17.510  0.00  0.00    +0.000 OA
ATOM     27  C   UNL     1       4.718   7.020  17.482  0.00  0.00    +0.000 C 
ENDBRANCH   6  26
TORSDOF 6
ENDMDL
MODEL 5
REMARK VINA RESULT:      -6.9      1.777      3.022
REMARK  Name = 
REMARK  11 active torsions:
REMARK  status: ('A' for Active; 'I' for Inactive)
REMARK    1  A    between atoms: C_1  and  O_2
REMARK    2  A    between atoms: O_2  and  C_3
REMARK    3  A    between atoms: C_6  and  O_7
REMARK    4  A    between atoms: O_7  and  C_8
REMARK    5  A    between atoms: C_9  and  C_10
REMARK    6  A    between atoms: C_10  and  C_11
REMARK    7  A    between atoms: C_11  and  C_13
REMARK    8  A    between atoms: C_18  and  O_19
REMARK    9  A    between atoms: O_19  and  C_20
REMARK   10  A    between atoms: C_23  and  C_24
REMARK   11  A    between atoms: C_23  and  C_25
REMARK                            x       y       z     vdW  Elec       q    Type
REMARK                         _______ _______ _______ _____ _____    ______ ____
ROOT
ATOM      1  C   UNL     1       2.210   7.374  19.375  0.00  0.00    +0.000 A 
ATOM      2  C   UNL     1       2.577   7.826  18.103  0.00  0.00    +0.000 A 
ATOM      3  C   UNL     1       2.033   9.012  17.632  0.00  0.00    +0.000 A 
ATOM      4  C   UNL     1       1.262   9.773  18.493  0.00  0.00    +0.000 A 
ATOM      5  C   UNL     1       1.355   9.592  19.856  0.00  0.00    +0.000 A 
ATOM      6  C   UNL     1       1.622   8.292  20.275  0.00  0.00    +0.000 A 
ATOM      7  C   UNL     1       1.002  10.739  20.687  0.00  0.00    +0.000 C 
ATOM      8  C   UNL     1       0.004  11.507  20.233  0.00  0.00    +0.000 C 
ATOM      9  C   UNL     1      -0.634  11.206  18.896  0.00  0.00    +0.000 C 
ATOM     10  C   UNL     1      -0.945  12.482  18.123  0.00  0.00    +0.000 C 
ATOM     11  C   UNL     1      -1.940  10.431  19.158  0.00  0.00    +0.000 C 
ATOM     12  O   UNL     1       0.277  10.557  17.963  0.00  0.00    +0.000 OA
ENDROOT
BRANCH   1  13
ATOM     13  C   UNL     1       2.359   5.921  19.693  0.00  0.00    +0.000 C 
ATOM     14  O   UNL     1       1.365   5.210  19.858  0.00  0.00    +0.000 OA
BRANCH  13  15
ATOM     15  C   UNL     1       3.753   5.310  19.793  0.00  0.00    +0.000 C 
BRANCH  15  20
ATOM     16  C   UNL     1       6.269   6.030  16.998  0.00  0.00    +0.000 A 
ATOM     17  C   UNL     1       5.884   5.118  16.025  0.00  0.00    +0.000 A 
ATOM     18  C   UNL     1       4.828   4.245  16.259  0.00  0.00    +0.000 A 
ATOM     19  C   UNL     1       4.138   4.281  17.476  0.00  0.00    +0.000 A 
ATOM     20  C   UNL     1       4.540   5.169  18.496  0.00  0.00    +0.000 A 
ATOM     21  C   UNL     1       5.621   6.042  18.244  0.00  0.00    +0.000 A 
BRANCH  16  23
ATOM     22  C   UNL     1       7.706   7.861  17.535  0.00  0.00    +0.000 C 
ATOM     23  O   UNL     1       7.269   6.883  16.605  0.00  0.00    +0.000 OA
ENDBRANCH  16  23
BRANCH  19  24
ATOM     24  O   UNL     1       3.071   3.465  17.752  0.00  0.00    +0.000 OA
ATOM     25  C   UNL     1       3.379   2.090  17.980  0.00  0.00    +0.000 C 
ENDBRANCH  19  24
ENDBRANCH  15  20
ENDBRANCH  13  15
ENDBRANCH   1  13
BRANCH   6  26
ATOM     26  O   UNL     1       1.141   7.944  21.518  0.00  0.00    +0.000 OA
ATOM     27  C   UNL     1      -0.306   8.050  21.553  0.00  0.00    +0.000 C 
ENDBRANCH   6  26
TORSDOF 6
ENDMDL
MODEL 6
REMARK VINA RESULT:      -6.8      2.230      4.709
REMARK  Name = 
REMARK  11 active torsions:
REMARK  status: ('A' for Active; 'I' for Inactive)
REMARK    1  A    between atoms: C_1  and  O_2
REMARK    2  A    between atoms: O_2  and  C_3
REMARK    3  A    between atoms: C_6  and  O_7
REMARK    4  A    between atoms: O_7  and  C_8
REMARK    5  A    between atoms: C_9  and  C_10
REMARK    6  A    between atoms: C_10  and  C_11
REMARK    7  A    between atoms: C_11  and  C_13
REMARK    8  A    between atoms: C_18  and  O_19
REMARK    9  A    between atoms: O_19  and  C_20
REMARK   10  A    between atoms: C_23  and  C_24
REMARK   11  A    between atoms: C_23  and  C_25
REMARK                            x       y       z     vdW  Elec       q    Type
REMARK                         _______ _______ _______ _____ _____    ______ ____
ROOT
ATOM      1  C   UNL     1       0.816   9.500  19.382  0.00  0.00    +0.000 A 
ATOM      2  C   UNL     1       1.141   9.079  20.675  0.00  0.00    +0.000 A 
ATOM      3  C   UNL     1       0.726   9.846  21.754  0.00  0.00    +0.000 A 
ATOM      4  C   UNL     1      -0.117  10.918  21.515  0.00  0.00    +0.000 A 
ATOM      5  C   UNL     1      -0.838  10.990  20.343  0.00  0.00    +0.000 A 
ATOM      6  C   UNL     1      -0.221  10.448  19.220  0.00  0.00    +0.000 A 
ATOM      7  C   UNL     1      -2.074  11.766  20.392  0.00  0.00    +0.000 C 
ATOM      8  C   UNL     1      -2.054  12.853  21.171  0.00  0.00    +0.000 C 
ATOM      9  C   UNL     1      -0.827  13.171  21.995  0.00  0.00    +0.000 C 
ATOM     10  C   UNL     1      -1.198  13.695  23.377  0.00  0.00    +0.000 C 
ATOM     11  C   UNL     1      -0.015  14.240  21.240  0.00  0.00    +0.000 C 
ATOM     12  O   UNL     1      -0.067  11.985  22.366  0.00  0.00    +0.000 OA
ENDROOT
BRANCH   1  13
ATOM     13  C   UNL     1       1.643   9.012  18.236  0.00  0.00    +0.000 C 
ATOM     14  O   UNL     1       2.252   9.808  17.517  0.00  0.00    +0.000 OA
BRANCH  13  15
ATOM     15  C   UNL     1       1.749   7.515  17.967  0.00  0.00    +0.000 C 
BRANCH  15  20
ATOM     16  C   UNL     1       5.337   6.332  17.340  0.00  0.00    +0.000 A 
ATOM     17  C   UNL     1       5.561   5.507  18.435  0.00  0.00    +0.000 A 
ATOM     18  C   UNL     1       4.576   5.337  19.400  0.00  0.00    +0.000 A 
ATOM     19  C   UNL     1       3.344   5.989  19.274  0.00  0.00    +0.000 A 
ATOM     20  C   UNL     1       3.110   6.867  18.194  0.00  0.00    +0.000 A 
ATOM     21  C   UNL     1       4.126   7.034  17.228  0.00  0.00    +0.000 A 
BRANCH  16  23
ATOM     22  C   UNL     1       6.998   5.112  16.132  0.00  0.00    +0.000 C 
ATOM     23  O   UNL     1       6.360   6.344  16.426  0.00  0.00    +0.000 OA
ENDBRANCH  16  23
BRANCH  19  24
ATOM     24  O   UNL     1       2.324   5.837  20.179  0.00  0.00    +0.000 OA
ATOM     25  C   UNL     1       1.810   4.514  20.324  0.00  0.00    +0.000 C 
ENDBRANCH  19  24
ENDBRANCH  15  20
ENDBRANCH  13  15
ENDBRANCH   1  13
BRANCH   6  26
ATOM     26  O   UNL     1      -0.571  11.001  18.009  0.00  0.00    +0.000 OA
ATOM     27  C   UNL     1      -1.583  10.193  17.352  0.00  0.00    +0.000 C 
ENDBRANCH   6  26
TORSDOF 6
ENDMDL
MODEL 7
REMARK VINA RESULT:      -6.8      0.868      2.762
REMARK  Name = 
REMARK  11 active torsions:
REMARK  status: ('A' for Active; 'I' for Inactive)
REMARK    1  A    between atoms: C_1  and  O_2
REMARK    2  A    between atoms: O_2  and  C_3
REMARK    3  A    between atoms: C_6  and  O_7
REMARK    4  A    between atoms: O_7  and  C_8
REMARK    5  A    between atoms: C_9  and  C_10
REMARK    6  A    between atoms: C_10  and  C_11
REMARK    7  A    between atoms: C_11  and  C_13
REMARK    8  A    between atoms: C_18  and  O_19
REMARK    9  A    between atoms: O_19  and  C_20
REMARK   10  A    between atoms: C_23  and  C_24
REMARK   11  A    between atoms: C_23  and  C_25
REMARK                            x       y       z     vdW  Elec       q    Type
REMARK                         _______ _______ _______ _____ _____    ______ ____
ROOT
ATOM      1  C   UNL     1       2.419   5.798  18.284  0.00  0.00    +0.000 A 
ATOM      2  C   UNL     1       3.034   6.788  17.511  0.00  0.00    +0.000 A 
ATOM      3  C   UNL     1       2.832   8.119  17.845  0.00  0.00    +0.000 A 
ATOM      4  C   UNL     1       2.149   8.410  19.014  0.00  0.00    +0.000 A 
ATOM      5  C   UNL     1       2.029   7.461  20.005  0.00  0.00    +0.000 A 
ATOM      6  C   UNL     1       1.944   6.142  19.570  0.00  0.00    +0.000 A 
ATOM      7  C   UNL     1       1.841   7.964  21.363  0.00  0.00    +0.000 C 
ATOM      8  C   UNL     1       1.104   9.075  21.480  0.00  0.00    +0.000 C 
ATOM      9  C   UNL     1       0.587   9.774  20.243  0.00  0.00    +0.000 C 
ATOM     10  C   UNL     1       0.668  11.289  20.379  0.00  0.00    +0.000 C 
ATOM     11  C   UNL     1      -0.881   9.352  20.040  0.00  0.00    +0.000 C 
ATOM     12  O   UNL     1       1.439   9.575  19.078  0.00  0.00    +0.000 OA
ENDROOT
BRANCH   1  13
ATOM     13  C   UNL     1       2.199   4.448  17.681  0.00  0.00    +0.000 C 
ATOM     14  O   UNL     1       1.059   4.057  17.418  0.00  0.00    +0.000 OA
BRANCH  13  15
ATOM     15  C   UNL     1       3.397   3.556  17.371  0.00  0.00    +0.000 C 
BRANCH  15  20
ATOM     16  C   UNL     1       6.515   5.151  18.917  0.00  0.00    +0.000 A 
ATOM     17  C   UNL     1       7.214   5.562  17.790  0.00  0.00    +0.000 A 
ATOM     18  C   UNL     1       6.709   5.313  16.520  0.00  0.00    +0.000 A 
ATOM     19  C   UNL     1       5.484   4.652  16.364  0.00  0.00    +0.000 A 
ATOM     20  C   UNL     1       4.778   4.187  17.494  0.00  0.00    +0.000 A 
ATOM     21  C   UNL     1       5.312   4.441  18.776  0.00  0.00    +0.000 A 
BRANCH  16  23
ATOM     22  C   UNL     1       8.494   5.404  20.232  0.00  0.00    +0.000 C 
ATOM     23  O   UNL     1       7.087   5.533  20.105  0.00  0.00    +0.000 OA
ENDBRANCH  16  23
BRANCH  19  24
ATOM     24  O   UNL     1       4.922   4.405  15.138  0.00  0.00    +0.000 OA
ATOM     25  C   UNL     1       5.822   3.990  14.111  0.00  0.00    +0.000 C 
ENDBRANCH  19  24
ENDBRANCH  15  20
ENDBRANCH  13  15
ENDBRANCH   1  13
BRANCH   6  26
ATOM     26  O   UNL     1       1.247   5.278  20.385  0.00  0.00    +0.000 OA
ATOM     27  C   UNL     1       2.159   4.417  21.115  0.00  0.00    +0.000 C 
ENDBRANCH   6  26
TORSDOF 6
ENDMDL
MODEL 8
REMARK VINA RESULT:      -6.8      2.048      7.628
REMARK  Name = 
REMARK  11 active torsions:
REMARK  status: ('A' for Active; 'I' for Inactive)
REMARK    1  A    between atoms: C_1  and  O_2
REMARK    2  A    between atoms: O_2  and  C_3
REMARK    3  A    between atoms: C_6  and  O_7
REMARK    4  A    between atoms: O_7  and  C_8
REMARK    5  A    between atoms: C_9  and  C_10
REMARK    6  A    between atoms: C_10  and  C_11
REMARK    7  A    between atoms: C_11  and  C_13
REMARK    8  A    between atoms: C_18  and  O_19
REMARK    9  A    between atoms: O_19  and  C_20
REMARK   10  A    between atoms: C_23  and  C_24
REMARK   11  A    between atoms: C_23  and  C_25
REMARK                            x       y       z     vdW  Elec       q    Type
REMARK                         _______ _______ _______ _____ _____    ______ ____
ROOT
ATOM      1  C   UNL     1       1.846   7.805  19.650  0.00  0.00    +0.000 A 
ATOM      2  C   UNL     1       2.082   8.602  18.525  0.00  0.00    +0.000 A 
ATOM      3  C   UNL     1       3.031   8.190  17.601  0.00  0.00    +0.000 A 
ATOM      4  C   UNL     1       3.602   6.937  17.754  0.00  0.00    +0.000 A 
ATOM      5  C   UNL     1       2.984   5.981  18.530  0.00  0.00    +0.000 A 
ATOM      6  C   UNL     1       2.276   6.458  19.628  0.00  0.00    +0.000 A 
ATOM      7  C   UNL     1       3.283   4.590  18.201  0.00  0.00    +0.000 C 
ATOM      8  C   UNL     1       4.532   4.340  17.791  0.00  0.00    +0.000 C 
ATOM      9  C   UNL     1       5.514   5.477  17.620  0.00  0.00    +0.000 C 
ATOM     10  C   UNL     1       6.383   5.286  16.383  0.00  0.00    +0.000 C 
ATOM     11  C   UNL     1       6.407   5.524  18.875  0.00  0.00    +0.000 C 
ATOM     12  O   UNL     1       4.870   6.741  17.289  0.00  0.00    +0.000 OA
ENDROOT
BRANCH   1  13
ATOM     13  C   UNL     1       1.243   8.436  20.864  0.00  0.00    +0.000 C 
ATOM     14  O   UNL     1       1.948   8.741  21.829  0.00  0.00    +0.000 OA
BRANCH  13  15
ATOM     15  C   UNL     1      -0.255   8.721  20.900  0.00  0.00    +0.000 C 
BRANCH  15  20
ATOM     16  C   UNL     1      -1.467  11.199  18.244  0.00  0.00    +0.000 A 
ATOM     17  C   UNL     1      -1.387  12.407  18.923  0.00  0.00    +0.000 A 
ATOM     18  C   UNL     1      -0.966  12.443  20.248  0.00  0.00    +0.000 A 
ATOM     19  C   UNL     1      -0.612  11.261  20.908  0.00  0.00    +0.000 A 
ATOM     20  C   UNL     1      -0.727  10.017  20.252  0.00  0.00    +0.000 A 
ATOM     21  C   UNL     1      -1.165   9.999  18.909  0.00  0.00    +0.000 A 
BRANCH  16  23
ATOM     22  C   UNL     1      -2.455  10.211  16.307  0.00  0.00    +0.000 C 
ATOM     23  O   UNL     1      -1.817  11.318  16.923  0.00  0.00    +0.000 OA
ENDBRANCH  16  23
BRANCH  19  24
ATOM     24  O   UNL     1      -0.163  11.237  22.204  0.00  0.00    +0.000 OA
ATOM     25  C   UNL     1      -1.168  11.311  23.214  0.00  0.00    +0.000 C 
ENDBRANCH  19  24
ENDBRANCH  15  20
ENDBRANCH  13  15
ENDBRANCH   1  13
BRANCH   6  26
ATOM     26  O   UNL     1       2.177   5.606  20.704  0.00  0.00    +0.000 OA
ATOM     27  C   UNL     1       1.074   4.680  20.523  0.00  0.00    +0.000 C 
ENDBRANCH   6  26
TORSDOF 6
ENDMDL
MODEL 9
REMARK VINA RESULT:      -6.7      2.229      4.762
REMARK  Name = 
REMARK  11 active torsions:
REMARK  status: ('A' for Active; 'I' for Inactive)
REMARK    1  A    between atoms: C_1  and  O_2
REMARK    2  A    between atoms: O_2  and  C_3
REMARK    3  A    between atoms: C_6  and  O_7
REMARK    4  A    between atoms: O_7  and  C_8
REMARK    5  A    between atoms: C_9  and  C_10
REMARK    6  A    between atoms: C_10  and  C_11
REMARK    7  A    between atoms: C_11  and  C_13
REMARK    8  A    between atoms: C_18  and  O_19
REMARK    9  A    between atoms: O_19  and  C_20
REMARK   10  A    between atoms: C_23  and  C_24
REMARK   11  A    between atoms: C_23  and  C_25
REMARK                            x       y       z     vdW  Elec       q    Type
REMARK                         _______ _______ _______ _____ _____    ______ ____
ROOT
ATOM      1  C   UNL     1       0.909   8.956  19.937  0.00  0.00    +0.000 A 
ATOM      2  C   UNL     1       0.948   8.580  21.284  0.00  0.00    +0.000 A 
ATOM      3  C   UNL     1       0.473   9.466  22.240  0.00  0.00    +0.000 A 
ATOM      4  C   UNL     1      -0.153  10.625  21.813  0.00  0.00    +0.000 A 
ATOM      5  C   UNL     1      -0.649  10.717  20.531  0.00  0.00    +0.000 A 
ATOM      6  C   UNL     1       0.062  10.022  19.557  0.00  0.00    +0.000 A 
ATOM      7  C   UNL     1      -1.750  11.654  20.329  0.00  0.00    +0.000 C 
ATOM      8  C   UNL     1      -1.704  12.778  21.054  0.00  0.00    +0.000 C 
ATOM      9  C   UNL     1      -0.599  12.980  22.066  0.00  0.00    +0.000 C 
ATOM     10  C   UNL     1      -1.117  13.640  23.338  0.00  0.00    +0.000 C 
ATOM     11  C   UNL     1       0.474  13.877  21.421  0.00  0.00    +0.000 C 
ATOM     12  O   UNL     1      -0.092  11.729  22.614  0.00  0.00    +0.000 OA
ENDROOT
BRANCH   1  13
ATOM     13  C   UNL     1       1.837   8.285  18.976  0.00  0.00    +0.000 C 
ATOM     14  O   UNL     1       1.903   8.659  17.802  0.00  0.00    +0.000 OA
BRANCH  13  15
ATOM     15  C   UNL     1       2.723   7.141  19.457  0.00  0.00    +0.000 C 
BRANCH  15  20
ATOM     16  C   UNL     1       2.372   3.704  17.807  0.00  0.00    +0.000 A 
ATOM     17  C   UNL     1       3.428   3.710  16.906  0.00  0.00    +0.000 A 
ATOM     18  C   UNL     1       4.254   4.823  16.799  0.00  0.00    +0.000 A 
ATOM     19  C   UNL     1       4.032   5.947  17.603  0.00  0.00    +0.000 A 
ATOM     20  C   UNL     1       2.937   5.980  18.494  0.00  0.00    +0.000 A 
ATOM     21  C   UNL     1       2.105   4.843  18.582  0.00  0.00    +0.000 A 
BRANCH  16  23
ATOM     22  C   UNL     1       0.683   2.380  18.857  0.00  0.00    +0.000 C 
ATOM     23  O   UNL     1       1.691   2.514  17.868  0.00  0.00    +0.000 OA
ENDBRANCH  16  23
BRANCH  19  24
ATOM     24  O   UNL     1       4.829   7.062  17.561  0.00  0.00    +0.000 OA
ATOM     25  C   UNL     1       6.224   6.826  17.372  0.00  0.00    +0.000 C 
ENDBRANCH  19  24
ENDBRANCH  15  20
ENDBRANCH  13  15
ENDBRANCH   1  13
BRANCH   6  26
ATOM     26  O   UNL     1       0.004  10.536  18.281  0.00  0.00    +0.000 OA
ATOM     27  C   UNL     1      -1.156  10.023  17.576  0.00  0.00    +0.000 C 
ENDBRANCH   6  26
TORSDOF 6
ENDMDL
