MODEL 1
REMARK VINA RESULT:      -6.6      0.000      0.000
REMARK  Name = 
REMARK  8 active torsions:
REMARK  status: ('A' for Active; 'I' for Inactive)
REMARK    1  A    between atoms: C_1  and  O_2
REMARK    2  A    between atoms: O_2  and  C_3
REMARK    3  A    between atoms: C_6  and  C_7
REMARK    4  A    between atoms: N_8  and  N_9
REMARK    5  A    between atoms: C_10  and  C_12
REMARK    6  A    between atoms: C_12  and  N_13
REMARK    7  A    between atoms: C_19  and  O_20
REMARK    8  A    between atoms: O_20  and  C_21
REMARK                            x       y       z     vdW  Elec       q    Type
REMARK                         _______ _______ _______ _____ _____    ______ ____
ROOT
ATOM      1  C   UNL     1       9.375  10.349  19.647  0.00  0.00    +0.000 C 
ATOM      2  N   UNL     1       8.965   9.526  18.728  0.00  0.00    +0.000 NA
ENDROOT
BRANCH   1   6
ATOM      3  C   UNL     1      10.363  14.369  18.547  0.00  0.00    +0.000 A 
ATOM      4  C   UNL     1      10.164  13.392  17.574  0.00  0.00    +0.000 A 
ATOM      5  C   UNL     1       9.827  12.090  17.942  0.00  0.00    +0.000 A 
ATOM      6  C   UNL     1       9.670  11.759  19.295  0.00  0.00    +0.000 A 
ATOM      7  C   UNL     1       9.828  12.741  20.287  0.00  0.00    +0.000 A 
ATOM      8  C   UNL     1      10.188  14.040  19.895  0.00  0.00    +0.000 A 
BRANCH   3  10
ATOM      9  C   UNL     1      10.979  15.703  16.674  0.00  0.00    +0.000 C 
ATOM     10  O   UNL     1      10.720  15.601  18.072  0.00  0.00    +0.000 OA
ENDBRANCH   3  10
BRANCH   7  11
ATOM     11  O   UNL     1       9.646  12.363  21.595  0.00  0.00    +0.000 OA
ATOM     12  C   UNL     1       8.834  13.218  22.400  0.00  0.00    +0.000 C 
ENDBRANCH   7  11
ENDBRANCH   1   6
BRANCH   2  13
ATOM     13  N   UNL     1       8.712   8.236  19.077  0.00  0.00    +0.000 N 
ATOM     14  C   UNL     1       8.022   7.448  18.159  0.00  0.00    +0.000 C 
ATOM     15  O   UNL     1       7.669   7.806  17.034  0.00  0.00    +0.000 OA
ATOM     16  H   UNL     1       8.996   7.927  20.000  0.00  0.00    +0.000 HD
BRANCH  14  17
ATOM     17  C   UNL     1       7.726   6.037  18.607  0.00  0.00    +0.000 C 
BRANCH  17  18
ATOM     18  N   UNL     1       6.746   5.399  17.695  0.00  0.00    +0.000 N 
ATOM     19  C   UNL     1       7.170   4.562  16.719  0.00  0.00    +0.000 A 
ATOM     20  C   UNL     1       6.267   4.015  15.810  0.00  0.00    +0.000 A 
ATOM     21  C   UNL     1       4.914   4.317  15.926  0.00  0.00    +0.000 A 
ATOM     22  C   UNL     1       4.491   5.143  16.957  0.00  0.00    +0.000 A 
ATOM     23  C   UNL     1       5.427   5.672  17.839  0.00  0.00    +0.000 A 
ENDBRANCH  17  18
ENDBRANCH  14  17
ENDBRANCH   2  13
TORSDOF 6
ENDMDL
MODEL 2
REMARK VINA RESULT:      -6.5      6.347     10.077
REMARK  Name = 
REMARK  8 active torsions:
REMARK  status: ('A' for Active; 'I' for Inactive)
REMARK    1  A    between atoms: C_1  and  O_2
REMARK    2  A    between atoms: O_2  and  C_3
REMARK    3  A    between atoms: C_6  and  C_7
REMARK    4  A    between atoms: N_8  and  N_9
REMARK    5  A    between atoms: C_10  and  C_12
REMARK    6  A    between atoms: C_12  and  N_13
REMARK    7  A    between atoms: C_19  and  O_20
REMARK    8  A    between atoms: O_20  and  C_21
REMARK                            x       y       z     vdW  Elec       q    Type
REMARK                         _______ _______ _______ _____ _____    ______ ____
ROOT
ATOM      1  C   UNL     1       3.046   7.649  17.826  0.00  0.00    +0.000 C 
ATOM      2  N   UNL     1       2.120   8.172  18.573  0.00  0.00    +0.000 NA
ENDROOT
BRANCH   1   6
ATOM      3  C   UNL     1       4.780   3.947  19.103  0.00  0.00    +0.000 A 
ATOM      4  C   UNL     1       3.433   4.217  19.328  0.00  0.00    +0.000 A 
ATOM      5  C   UNL     1       2.874   5.419  18.894  0.00  0.00    +0.000 A 
ATOM      6  C   UNL     1       3.662   6.357  18.214  0.00  0.00    +0.000 A 
ATOM      7  C   UNL     1       5.013   6.083  17.944  0.00  0.00    +0.000 A 
ATOM      8  C   UNL     1       5.560   4.877  18.408  0.00  0.00    +0.000 A 
BRANCH   3  10
ATOM      9  C   UNL     1       4.336   2.035  20.451  0.00  0.00    +0.000 C 
ATOM     10  O   UNL     1       5.227   2.753  19.600  0.00  0.00    +0.000 OA
ENDBRANCH   3  10
BRANCH   7  11
ATOM     11  O   UNL     1       5.733   7.032  17.259  0.00  0.00    +0.000 OA
ATOM     12  C   UNL     1       7.150   6.862  17.230  0.00  0.00    +0.000 C 
ENDBRANCH   7  11
ENDBRANCH   1   6
BRANCH   2  13
ATOM     13  N   UNL     1       1.579   9.364  18.200  0.00  0.00    +0.000 N 
ATOM     14  C   UNL     1       0.653   9.945  19.061  0.00  0.00    +0.000 C 
ATOM     15  O   UNL     1       0.323   9.498  20.161  0.00  0.00    +0.000 OA
ATOM     16  H   UNL     1       1.841   9.743  17.297  0.00  0.00    +0.000 HD
BRANCH  14  17
ATOM     17  C   UNL     1       0.048  11.243  18.585  0.00  0.00    +0.000 C 
BRANCH  17  18
ATOM     18  N   UNL     1      -1.371  11.044  18.203  0.00  0.00    +0.000 N 
ATOM     19  C   UNL     1      -2.334  11.842  18.724  0.00  0.00    +0.000 A 
ATOM     20  C   UNL     1      -3.678  11.617  18.431  0.00  0.00    +0.000 A 
ATOM     21  C   UNL     1      -4.025  10.576  17.577  0.00  0.00    +0.000 A 
ATOM     22  C   UNL     1      -3.025   9.794  17.021  0.00  0.00    +0.000 A 
ATOM     23  C   UNL     1      -1.696  10.049  17.343  0.00  0.00    +0.000 A 
ENDBRANCH  17  18
ENDBRANCH  14  17
ENDBRANCH   2  13
TORSDOF 6
ENDMDL
MODEL 3
REMARK VINA RESULT:      -6.4      6.954      9.761
REMARK  Name = 
REMARK  8 active torsions:
REMARK  status: ('A' for Active; 'I' for Inactive)
REMARK    1  A    between atoms: C_1  and  O_2
REMARK    2  A    between atoms: O_2  and  C_3
REMARK    3  A    between atoms: C_6  and  C_7
REMARK    4  A    between atoms: N_8  and  N_9
REMARK    5  A    between atoms: C_10  and  C_12
REMARK    6  A    between atoms: C_12  and  N_13
REMARK    7  A    between atoms: C_19  and  O_20
REMARK    8  A    between atoms: O_20  and  C_21
REMARK                            x       y       z     vdW  Elec       q    Type
REMARK                         _______ _______ _______ _____ _____    ______ ____
ROOT
ATOM      1  C   UNL     1       3.170   6.689  18.462  0.00  0.00    +0.000 C 
ATOM      2  N   UNL     1       2.501   7.678  17.950  0.00  0.00    +0.000 NA
ENDROOT
BRANCH   1   6
ATOM      3  C   UNL     1       5.475   4.258  15.794  0.00  0.00    +0.000 A 
ATOM      4  C   UNL     1       5.514   5.647  15.705  0.00  0.00    +0.000 A 
ATOM      5  C   UNL     1       4.772   6.430  16.589  0.00  0.00    +0.000 A 
ATOM      6  C   UNL     1       3.994   5.823  17.584  0.00  0.00    +0.000 A 
ATOM      7  C   UNL     1       3.975   4.424  17.713  0.00  0.00    +0.000 A 
ATOM      8  C   UNL     1       4.712   3.655  16.799  0.00  0.00    +0.000 A 
BRANCH   3  10
ATOM      9  C   UNL     1       6.585   4.322  13.688  0.00  0.00    +0.000 C 
ATOM     10  O   UNL     1       6.217   3.592  14.856  0.00  0.00    +0.000 OA
ENDBRANCH   3  10
BRANCH   7  11
ATOM     11  O   UNL     1       3.208   3.886  18.717  0.00  0.00    +0.000 OA
ATOM     12  C   UNL     1       3.884   3.060  19.665  0.00  0.00    +0.000 C 
ENDBRANCH   7  11
ENDBRANCH   1   6
BRANCH   2  13
ATOM     13  N   UNL     1       1.744   8.449  18.776  0.00  0.00    +0.000 N 
ATOM     14  C   UNL     1       1.640   9.804  18.472  0.00  0.00    +0.000 C 
ATOM     15  O   UNL     1       2.131  10.352  17.484  0.00  0.00    +0.000 OA
ATOM     16  H   UNL     1       1.335   8.011  19.594  0.00  0.00    +0.000 HD
BRANCH  14  17
ATOM     17  C   UNL     1       0.827  10.626  19.441  0.00  0.00    +0.000 C 
BRANCH  17  18
ATOM     18  N   UNL     1      -0.560  10.795  18.941  0.00  0.00    +0.000 N 
ATOM     19  C   UNL     1      -0.997  10.063  17.889  0.00  0.00    +0.000 A 
ATOM     20  C   UNL     1      -2.272  10.265  17.364  0.00  0.00    +0.000 A 
ATOM     21  C   UNL     1      -3.107  11.213  17.946  0.00  0.00    +0.000 A 
ATOM     22  C   UNL     1      -2.659  11.925  19.048  0.00  0.00    +0.000 A 
ATOM     23  C   UNL     1      -1.377  11.696  19.537  0.00  0.00    +0.000 A 
ENDBRANCH  17  18
ENDBRANCH  14  17
ENDBRANCH   2  13
TORSDOF 6
ENDMDL
MODEL 4
REMARK VINA RESULT:      -6.4      6.411      8.406
REMARK  Name = 
REMARK  8 active torsions:
REMARK  status: ('A' for Active; 'I' for Inactive)
REMARK    1  A    between atoms: C_1  and  O_2
REMARK    2  A    between atoms: O_2  and  C_3
REMARK    3  A    between atoms: C_6  and  C_7
REMARK    4  A    between atoms: N_8  and  N_9
REMARK    5  A    between atoms: C_10  and  C_12
REMARK    6  A    between atoms: C_12  and  N_13
REMARK    7  A    between atoms: C_19  and  O_20
REMARK    8  A    between atoms: O_20  and  C_21
REMARK                            x       y       z     vdW  Elec       q    Type
REMARK                         _______ _______ _______ _____ _____    ______ ____
ROOT
ATOM      1  C   UNL     1       1.577   8.557  19.741  0.00  0.00    +0.000 C 
ATOM      2  N   UNL     1       2.011   7.409  20.169  0.00  0.00    +0.000 NA
ENDROOT
BRANCH   1   6
ATOM      3  C   UNL     1      -0.745  11.009  22.375  0.00  0.00    +0.000 A 
ATOM      4  C   UNL     1      -0.429   9.697  22.718  0.00  0.00    +0.000 A 
ATOM      5  C   UNL     1       0.341   8.911  21.860  0.00  0.00    +0.000 A 
ATOM      6  C   UNL     1       0.816   9.444  20.654  0.00  0.00    +0.000 A 
ATOM      7  C   UNL     1       0.539  10.778  20.312  0.00  0.00    +0.000 A 
ATOM      8  C   UNL     1      -0.255  11.544  21.179  0.00  0.00    +0.000 A 
BRANCH   3  10
ATOM      9  C   UNL     1      -1.455  13.098  23.271  0.00  0.00    +0.000 C 
ATOM     10  O   UNL     1      -1.531  11.674  23.276  0.00  0.00    +0.000 OA
ENDBRANCH   3  10
BRANCH   7  11
ATOM     11  O   UNL     1       1.044  11.251  19.125  0.00  0.00    +0.000 OA
ATOM     12  C   UNL     1       1.490  12.608  19.115  0.00  0.00    +0.000 C 
ENDBRANCH   7  11
ENDBRANCH   1   6
BRANCH   2  13
ATOM     13  N   UNL     1       2.696   6.610  19.308  0.00  0.00    +0.000 N 
ATOM     14  C   UNL     1       2.978   5.311  19.724  0.00  0.00    +0.000 C 
ATOM     15  O   UNL     1       2.610   4.808  20.787  0.00  0.00    +0.000 OA
ATOM     16  H   UNL     1       3.006   7.011  18.430  0.00  0.00    +0.000 HD
BRANCH  14  17
ATOM     17  C   UNL     1       3.777   4.477  18.754  0.00  0.00    +0.000 C 
BRANCH  17  18
ATOM     18  N   UNL     1       5.038   5.170  18.392  0.00  0.00    +0.000 N 
ATOM     19  C   UNL     1       5.184   5.718  17.162  0.00  0.00    +0.000 A 
ATOM     20  C   UNL     1       6.390   6.306  16.785  0.00  0.00    +0.000 A 
ATOM     21  C   UNL     1       7.443   6.347  17.693  0.00  0.00    +0.000 A 
ATOM     22  C   UNL     1       7.263   5.817  18.962  0.00  0.00    +0.000 A 
ATOM     23  C   UNL     1       6.045   5.235  19.296  0.00  0.00    +0.000 A 
ENDBRANCH  17  18
ENDBRANCH  14  17
ENDBRANCH   2  13
TORSDOF 6
ENDMDL
MODEL 5
REMARK VINA RESULT:      -6.4      7.073     10.293
REMARK  Name = 
REMARK  8 active torsions:
REMARK  status: ('A' for Active; 'I' for Inactive)
REMARK    1  A    between atoms: C_1  and  O_2
REMARK    2  A    between atoms: O_2  and  C_3
REMARK    3  A    between atoms: C_6  and  C_7
REMARK    4  A    between atoms: N_8  and  N_9
REMARK    5  A    between atoms: C_10  and  C_12
REMARK    6  A    between atoms: C_12  and  N_13
REMARK    7  A    between atoms: C_19  and  O_20
REMARK    8  A    between atoms: O_20  and  C_21
REMARK                            x       y       z     vdW  Elec       q    Type
REMARK                         _______ _______ _______ _____ _____    ______ ____
ROOT
ATOM      1  C   UNL     1       2.441   7.620  17.870  0.00  0.00    +0.000 C 
ATOM      2  N   UNL     1       2.165   8.514  18.773  0.00  0.00    +0.000 NA
ENDROOT
BRANCH   1   6
ATOM      3  C   UNL     1       4.433   4.053  19.156  0.00  0.00    +0.000 A 
ATOM      4  C   UNL     1       3.166   4.373  19.635  0.00  0.00    +0.000 A 
ATOM      5  C   UNL     1       2.519   5.529  19.198  0.00  0.00    +0.000 A 
ATOM      6  C   UNL     1       3.134   6.368  18.260  0.00  0.00    +0.000 A 
ATOM      7  C   UNL     1       4.395   6.039  17.736  0.00  0.00    +0.000 A 
ATOM      8  C   UNL     1       5.037   4.883  18.205  0.00  0.00    +0.000 A 
BRANCH   3  10
ATOM      9  C   UNL     1       4.194   2.187  20.615  0.00  0.00    +0.000 C 
ATOM     10  O   UNL     1       4.984   2.914  19.677  0.00  0.00    +0.000 OA
ENDBRANCH   3  10
BRANCH   7  11
ATOM     11  O   UNL     1       4.943   6.890  16.807  0.00  0.00    +0.000 OA
ATOM     12  C   UNL     1       5.286   6.321  15.543  0.00  0.00    +0.000 C 
ENDBRANCH   7  11
ENDBRANCH   1   6
BRANCH   2  13
ATOM     13  N   UNL     1       1.539   9.657  18.386  0.00  0.00    +0.000 N 
ATOM     14  C   UNL     1       0.532  10.148  19.213  0.00  0.00    +0.000 C 
ATOM     15  O   UNL     1       0.198   9.662  20.295  0.00  0.00    +0.000 OA
ATOM     16  H   UNL     1       1.803  10.068  17.497  0.00  0.00    +0.000 HD
BRANCH  14  17
ATOM     17  C   UNL     1      -0.163  11.394  18.721  0.00  0.00    +0.000 C 
BRANCH  17  18
ATOM     18  N   UNL     1      -1.567  11.090  18.348  0.00  0.00    +0.000 N 
ATOM     19  C   UNL     1      -1.838  10.088  17.478  0.00  0.00    +0.000 A 
ATOM     20  C   UNL     1      -3.146   9.842  17.063  0.00  0.00    +0.000 A 
ATOM     21  C   UNL     1      -4.180  10.622  17.569  0.00  0.00    +0.000 A 
ATOM     22  C   UNL     1      -3.890  11.617  18.489  0.00  0.00    +0.000 A 
ATOM     23  C   UNL     1      -2.570  11.833  18.873  0.00  0.00    +0.000 A 
ENDBRANCH  17  18
ENDBRANCH  14  17
ENDBRANCH   2  13
TORSDOF 6
ENDMDL
MODEL 6
REMARK VINA RESULT:      -6.4      6.976      9.817
REMARK  Name = 
REMARK  8 active torsions:
REMARK  status: ('A' for Active; 'I' for Inactive)
REMARK    1  A    between atoms: C_1  and  O_2
REMARK    2  A    between atoms: O_2  and  C_3
REMARK    3  A    between atoms: C_6  and  C_7
REMARK    4  A    between atoms: N_8  and  N_9
REMARK    5  A    between atoms: C_10  and  C_12
REMARK    6  A    between atoms: C_12  and  N_13
REMARK    7  A    between atoms: C_19  and  O_20
REMARK    8  A    between atoms: O_20  and  C_21
REMARK                            x       y       z     vdW  Elec       q    Type
REMARK                         _______ _______ _______ _____ _____    ______ ____
ROOT
ATOM      1  C   UNL     1       2.567   6.479  18.397  0.00  0.00    +0.000 C 
ATOM      2  N   UNL     1       2.644   7.771  18.515  0.00  0.00    +0.000 NA
ENDROOT
BRANCH   1   6
ATOM      3  C   UNL     1       5.522   4.424  16.076  0.00  0.00    +0.000 A 
ATOM      4  C   UNL     1       5.428   5.813  16.040  0.00  0.00    +0.000 A 
ATOM      5  C   UNL     1       4.472   6.474  16.812  0.00  0.00    +0.000 A 
ATOM      6  C   UNL     1       3.610   5.744  17.642  0.00  0.00    +0.000 A 
ATOM      7  C   UNL     1       3.719   4.346  17.720  0.00  0.00    +0.000 A 
ATOM      8  C   UNL     1       4.673   3.699  16.919  0.00  0.00    +0.000 A 
BRANCH   3  10
ATOM      9  C   UNL     1       7.004   4.728  14.237  0.00  0.00    +0.000 C 
ATOM     10  O   UNL     1       6.473   3.882  15.255  0.00  0.00    +0.000 OA
ENDBRANCH   3  10
BRANCH   7  11
ATOM     11  O   UNL     1       2.859   3.684  18.563  0.00  0.00    +0.000 OA
ATOM     12  C   UNL     1       3.448   2.994  19.665  0.00  0.00    +0.000 C 
ENDBRANCH   7  11
ENDBRANCH   1   6
BRANCH   2  13
ATOM     13  N   UNL     1       1.668   8.421  19.203  0.00  0.00    +0.000 N 
ATOM     14  C   UNL     1       1.430   9.753  18.874  0.00  0.00    +0.000 C 
ATOM     15  O   UNL     1       1.993  10.376  17.972  0.00  0.00    +0.000 OA
ATOM     16  H   UNL     1       1.196   7.921  19.948  0.00  0.00    +0.000 HD
BRANCH  14  17
ATOM     17  C   UNL     1       0.368  10.445  19.693  0.00  0.00    +0.000 C 
BRANCH  17  18
ATOM     18  N   UNL     1      -0.858  10.650  18.884  0.00  0.00    +0.000 N 
ATOM     19  C   UNL     1      -1.782  11.562  19.270  0.00  0.00    +0.000 A 
ATOM     20  C   UNL     1      -2.972  11.712  18.560  0.00  0.00    +0.000 A 
ATOM     21  C   UNL     1      -3.196  10.930  17.431  0.00  0.00    +0.000 A 
ATOM     22  C   UNL     1      -2.222  10.031  17.027  0.00  0.00    +0.000 A 
ATOM     23  C   UNL     1      -1.051   9.909  17.767  0.00  0.00    +0.000 A 
ENDBRANCH  17  18
ENDBRANCH  14  17
ENDBRANCH   2  13
TORSDOF 6
ENDMDL
MODEL 7
REMARK VINA RESULT:      -6.4      7.207      8.175
REMARK  Name = 
REMARK  8 active torsions:
REMARK  status: ('A' for Active; 'I' for Inactive)
REMARK    1  A    between atoms: C_1  and  O_2
REMARK    2  A    between atoms: O_2  and  C_3
REMARK    3  A    between atoms: C_6  and  C_7
REMARK    4  A    between atoms: N_8  and  N_9
REMARK    5  A    between atoms: C_10  and  C_12
REMARK    6  A    between atoms: C_12  and  N_13
REMARK    7  A    between atoms: C_19  and  O_20
REMARK    8  A    between atoms: O_20  and  C_21
REMARK                            x       y       z     vdW  Elec       q    Type
REMARK                         _______ _______ _______ _____ _____    ______ ____
ROOT
ATOM      1  C   UNL     1       1.892   8.032  19.915  0.00  0.00    +0.000 C 
ATOM      2  N   UNL     1       2.332   7.483  18.822  0.00  0.00    +0.000 NA
ENDROOT
BRANCH   1   6
ATOM      3  C   UNL     1      -0.785  11.363  19.621  0.00  0.00    +0.000 A 
ATOM      4  C   UNL     1      -0.188  10.826  18.483  0.00  0.00    +0.000 A 
ATOM      5  C   UNL     1       0.670   9.731  18.587  0.00  0.00    +0.000 A 
ATOM      6  C   UNL     1       0.924   9.153  19.839  0.00  0.00    +0.000 A 
ATOM      7  C   UNL     1       0.299   9.657  20.991  0.00  0.00    +0.000 A 
ATOM      8  C   UNL     1      -0.544  10.772  20.866  0.00  0.00    +0.000 A 
BRANCH   3  10
ATOM      9  C   UNL     1      -2.574  12.734  20.387  0.00  0.00    +0.000 C 
ATOM     10  O   UNL     1      -1.581  12.453  19.403  0.00  0.00    +0.000 OA
ENDBRANCH   3  10
BRANCH   7  11
ATOM     11  O   UNL     1       0.572   9.040  22.188  0.00  0.00    +0.000 OA
ATOM     12  C   UNL     1      -0.094   9.556  23.340  0.00  0.00    +0.000 C 
ENDBRANCH   7  11
ENDBRANCH   1   6
BRANCH   2  13
ATOM     13  N   UNL     1       3.227   6.464  18.920  0.00  0.00    +0.000 N 
ATOM     14  C   UNL     1       2.832   5.215  18.447  0.00  0.00    +0.000 C 
ATOM     15  O   UNL     1       1.757   4.969  17.896  0.00  0.00    +0.000 OA
ATOM     16  H   UNL     1       4.115   6.652  19.372  0.00  0.00    +0.000 HD
BRANCH  14  17
ATOM     17  C   UNL     1       3.841   4.107  18.617  0.00  0.00    +0.000 C 
BRANCH  17  18
ATOM     18  N   UNL     1       4.975   4.291  17.679  0.00  0.00    +0.000 N 
ATOM     19  C   UNL     1       4.788   4.137  16.347  0.00  0.00    +0.000 A 
ATOM     20  C   UNL     1       5.861   4.234  15.462  0.00  0.00    +0.000 A 
ATOM     21  C   UNL     1       7.130   4.515  15.957  0.00  0.00    +0.000 A 
ATOM     22  C   UNL     1       7.297   4.711  17.319  0.00  0.00    +0.000 A 
ATOM     23  C   UNL     1       6.200   4.600  18.168  0.00  0.00    +0.000 A 
ENDBRANCH  17  18
ENDBRANCH  14  17
ENDBRANCH   2  13
TORSDOF 6
ENDMDL
MODEL 8
REMARK VINA RESULT:      -6.4      7.523      8.901
REMARK  Name = 
REMARK  8 active torsions:
REMARK  status: ('A' for Active; 'I' for Inactive)
REMARK    1  A    between atoms: C_1  and  O_2
REMARK    2  A    between atoms: O_2  and  C_3
REMARK    3  A    between atoms: C_6  and  C_7
REMARK    4  A    between atoms: N_8  and  N_9
REMARK    5  A    between atoms: C_10  and  C_12
REMARK    6  A    between atoms: C_12  and  N_13
REMARK    7  A    between atoms: C_19  and  O_20
REMARK    8  A    between atoms: O_20  and  C_21
REMARK                            x       y       z     vdW  Elec       q    Type
REMARK                         _______ _______ _______ _____ _____    ______ ____
ROOT
ATOM      1  C   UNL     1       1.798   8.108  21.180  0.00  0.00    +0.000 C 
ATOM      2  N   UNL     1       1.360   6.900  20.984  0.00  0.00    +0.000 NA
ENDROOT
BRANCH   1   6
ATOM      3  C   UNL     1      -1.104  11.202  21.775  0.00  0.00    +0.000 A 
ATOM      4  C   UNL     1      -0.804  10.302  22.794  0.00  0.00    +0.000 A 
ATOM      5  C   UNL     1       0.154   9.307  22.595  0.00  0.00    +0.000 A 
ATOM      6  C   UNL     1       0.833   9.219  21.373  0.00  0.00    +0.000 A 
ATOM      7  C   UNL     1       0.571  10.143  20.348  0.00  0.00    +0.000 A 
ATOM      8  C   UNL     1      -0.411  11.122  20.562  0.00  0.00    +0.000 A 
BRANCH   3  10
ATOM      9  C   UNL     1      -2.704  11.999  23.347  0.00  0.00    +0.000 C 
ATOM     10  O   UNL     1      -2.081  12.113  22.070  0.00  0.00    +0.000 OA
ENDBRANCH   3  10
BRANCH   7  11
ATOM     11  O   UNL     1       1.279  10.018  19.178  0.00  0.00    +0.000 OA
ATOM     12  C   UNL     1       0.535   9.645  18.018  0.00  0.00    +0.000 C 
ENDBRANCH   7  11
ENDBRANCH   1   6
BRANCH   2  13
ATOM     13  N   UNL     1       2.266   5.902  20.799  0.00  0.00    +0.000 N 
ATOM     14  C   UNL     1       1.772   4.630  20.524  0.00  0.00    +0.000 C 
ATOM     15  O   UNL     1       0.582   4.343  20.380  0.00  0.00    +0.000 OA
ATOM     16  H   UNL     1       3.249   6.124  20.915  0.00  0.00    +0.000 HD
BRANCH  14  17
ATOM     17  C   UNL     1       2.812   3.548  20.370  0.00  0.00    +0.000 C 
BRANCH  17  18
ATOM     18  N   UNL     1       3.612   3.770  19.140  0.00  0.00    +0.000 N 
ATOM     19  C   UNL     1       4.918   4.117  19.232  0.00  0.00    +0.000 A 
ATOM     20  C   UNL     1       5.660   4.400  18.086  0.00  0.00    +0.000 A 
ATOM     21  C   UNL     1       5.053   4.302  16.839  0.00  0.00    +0.000 A 
ATOM     22  C   UNL     1       3.727   3.906  16.761  0.00  0.00    +0.000 A 
ATOM     23  C   UNL     1       3.021   3.637  17.929  0.00  0.00    +0.000 A 
ENDBRANCH  17  18
ENDBRANCH  14  17
ENDBRANCH   2  13
TORSDOF 6
ENDMDL
MODEL 9
REMARK VINA RESULT:      -6.4      7.620      9.241
REMARK  Name = 
REMARK  8 active torsions:
REMARK  status: ('A' for Active; 'I' for Inactive)
REMARK    1  A    between atoms: C_1  and  O_2
REMARK    2  A    between atoms: O_2  and  C_3
REMARK    3  A    between atoms: C_6  and  C_7
REMARK    4  A    between atoms: N_8  and  N_9
REMARK    5  A    between atoms: C_10  and  C_12
REMARK    6  A    between atoms: C_12  and  N_13
REMARK    7  A    between atoms: C_19  and  O_20
REMARK    8  A    between atoms: O_20  and  C_21
REMARK                            x       y       z     vdW  Elec       q    Type
REMARK                         _______ _______ _______ _____ _____    ______ ____
ROOT
ATOM      1  C   UNL     1       0.669   8.056  20.752  0.00  0.00    +0.000 C 
ATOM      2  N   UNL     1       1.931   8.060  20.442  0.00  0.00    +0.000 NA
ENDROOT
BRANCH   1   6
ATOM      3  C   UNL     1      -1.229  11.458  22.532  0.00  0.00    +0.000 A 
ATOM      4  C   UNL     1      -0.795  10.392  23.317  0.00  0.00    +0.000 A 
ATOM      5  C   UNL     1      -0.164   9.296  22.729  0.00  0.00    +0.000 A 
ATOM      6  C   UNL     1       0.053   9.267  21.345  0.00  0.00    +0.000 A 
ATOM      7  C   UNL     1      -0.343  10.351  20.544  0.00  0.00    +0.000 A 
ATOM      8  C   UNL     1      -0.996  11.434  21.153  0.00  0.00    +0.000 A 
BRANCH   3  10
ATOM      9  C   UNL     1      -3.260  12.300  23.447  0.00  0.00    +0.000 C 
ATOM     10  O   UNL     1      -1.863  12.462  23.211  0.00  0.00    +0.000 OA
ENDBRANCH   3  10
BRANCH   7  11
ATOM     11  O   UNL     1      -0.090  10.275  19.196  0.00  0.00    +0.000 OA
ATOM     12  C   UNL     1      -1.223  10.330  18.329  0.00  0.00    +0.000 C 
ENDBRANCH   7  11
ENDBRANCH   1   6
BRANCH   2  13
ATOM     13  N   UNL     1       2.474   6.931  19.909  0.00  0.00    +0.000 N 
ATOM     14  C   UNL     1       2.795   6.951  18.555  0.00  0.00    +0.000 C 
ATOM     15  O   UNL     1       2.678   7.925  17.809  0.00  0.00    +0.000 OA
ATOM     16  H   UNL     1       2.575   6.122  20.512  0.00  0.00    +0.000 HD
BRANCH  14  17
ATOM     17  C   UNL     1       3.353   5.664  18.000  0.00  0.00    +0.000 C 
BRANCH  17  18
ATOM     18  N   UNL     1       2.719   4.497  18.662  0.00  0.00    +0.000 N 
ATOM     19  C   UNL     1       3.341   3.879  19.693  0.00  0.00    +0.000 A 
ATOM     20  C   UNL     1       2.791   2.738  20.274  0.00  0.00    +0.000 A 
ATOM     21  C   UNL     1       1.579   2.247  19.800  0.00  0.00    +0.000 A 
ATOM     22  C   UNL     1       0.935   2.916  18.770  0.00  0.00    +0.000 A 
ATOM     23  C   UNL     1       1.521   4.049  18.215  0.00  0.00    +0.000 A 
ENDBRANCH  17  18
ENDBRANCH  14  17
ENDBRANCH   2  13
TORSDOF 6
ENDMDL
