MODEL 1
REMARK VINA RESULT:      -7.6      0.000      0.000
REMARK  Name = 
REMARK  7 active torsions:
REMARK  status: ('A' for Active; 'I' for Inactive)
REMARK    1  A    between atoms: N_3  and  C_4
REMARK    2  A    between atoms: C_4  and  C_5
REMARK    3  A    between atoms: C_5  and  N_6
REMARK    4  A    between atoms: N_18  and  C_19
REMARK    5  A    between atoms: C_19  and  C_20
REMARK    6  A    between atoms: C_20  and  O_21
REMARK    7  A    between atoms: C_20  and  C_22
REMARK                            x       y       z     vdW  Elec       q    Type
REMARK                         _______ _______ _______ _____ _____    ______ ____
ROOT
ATOM      1  N   UNL     1       1.436   9.901  17.519  0.00  0.00    +0.000 NA
ATOM      2  C   UNL     1       1.029   9.776  18.734  0.00  0.00    +0.000 A 
ATOM      3  N   UNL     1       1.349   8.848  19.729  0.00  0.00    +0.000 N 
ATOM      4  C   UNL     1       0.738   9.276  20.922  0.00  0.00    +0.000 A 
ATOM      5  C   UNL     1       0.805   8.781  22.209  0.00  0.00    +0.000 A 
ATOM      6  C   UNL     1       0.036   9.409  23.196  0.00  0.00    +0.000 A 
ATOM      7  C   UNL     1      -0.772  10.513  22.878  0.00  0.00    +0.000 A 
ATOM      8  C   UNL     1      -0.821  11.022  21.576  0.00  0.00    +0.000 A 
ATOM      9  C   UNL     1      -0.057  10.405  20.612  0.00  0.00    +0.000 A 
ATOM     10  N   UNL     1       0.124  10.683  19.268  0.00  0.00    +0.000 N 
ATOM     11  H   UNL     1       2.050   9.093  17.318  0.00  0.00    +0.000 HD
ENDROOT
BRANCH   3  12
ATOM     12  C   UNL     1       2.363   7.803  19.752  0.00  0.00    +0.000 C 
BRANCH  12  13
ATOM     13  C   UNL     1       2.314   6.834  18.549  0.00  0.00    +0.000 C 
BRANCH  13  14
ATOM     14  N   UNL     1       1.782   5.487  18.824  0.00  0.00    +0.000 NA
ATOM     15  C   UNL     1       2.385   4.426  18.003  0.00  0.00    +0.000 C 
ATOM     16  C   UNL     1       1.662   3.097  18.240  0.00  0.00    +0.000 C 
ATOM     17  C   UNL     1       1.659   2.721  19.716  0.00  0.00    +0.000 C 
ATOM     18  C   UNL     1       1.123   3.869  20.563  0.00  0.00    +0.000 C 
ATOM     19  C   UNL     1       1.857   5.174  20.259  0.00  0.00    +0.000 C 
ENDBRANCH  13  14
ENDBRANCH  12  13
ENDBRANCH   3  12
BRANCH  10  20
ATOM     20  C   UNL     1      -0.537  11.707  18.480  0.00  0.00    +0.000 C 
BRANCH  20  21
ATOM     21  C   UNL     1      -1.692  11.129  17.629  0.00  0.00    +0.000 C 
BRANCH  21  22
ATOM     22  C   UNL     1      -3.035  11.482  18.248  0.00  0.00    +0.000 A 
ATOM     23  C   UNL     1      -4.228  11.071  17.640  0.00  0.00    +0.000 A 
ATOM     24  C   UNL     1      -5.464  11.429  18.185  0.00  0.00    +0.000 A 
ATOM     25  C   UNL     1      -5.529  12.207  19.345  0.00  0.00    +0.000 A 
ATOM     26 CL   UNL     1      -7.094  12.621  19.949  0.00  0.00    +0.000 Cl
ATOM     27  C   UNL     1      -4.349  12.628  19.963  0.00  0.00    +0.000 A 
ATOM     28 CL   UNL     1      -4.347  13.593  21.397  0.00  0.00    +0.000 Cl
ATOM     29  C   UNL     1      -3.114  12.267  19.416  0.00  0.00    +0.000 A 
ENDBRANCH  21  22
BRANCH  21  30
ATOM     30  O   UNL     1      -1.639   9.706  17.482  0.00  0.00    +0.000 OA
ATOM     31  H   UNL     1      -1.899   9.499  16.555  0.00  0.00    +0.000 HD
ENDBRANCH  21  30
ENDBRANCH  20  21
ENDBRANCH  10  20
TORSDOF 7
ENDMDL
MODEL 2
REMARK VINA RESULT:      -7.6      4.054      8.412
REMARK  Name = 
REMARK  7 active torsions:
REMARK  status: ('A' for Active; 'I' for Inactive)
REMARK    1  A    between atoms: N_3  and  C_4
REMARK    2  A    between atoms: C_4  and  C_5
REMARK    3  A    between atoms: C_5  and  N_6
REMARK    4  A    between atoms: N_18  and  C_19
REMARK    5  A    between atoms: C_19  and  C_20
REMARK    6  A    between atoms: C_20  and  O_21
REMARK    7  A    between atoms: C_20  and  C_22
REMARK                            x       y       z     vdW  Elec       q    Type
REMARK                         _______ _______ _______ _____ _____    ______ ____
ROOT
ATOM      1  N   UNL     1       1.146  11.173  21.575  0.00  0.00    +0.000 NA
ATOM      2  C   UNL     1       0.185  11.073  20.725  0.00  0.00    +0.000 A 
ATOM      3  N   UNL     1      -1.068  11.690  20.663  0.00  0.00    +0.000 N 
ATOM      4  C   UNL     1      -1.652  11.343  19.430  0.00  0.00    +0.000 A 
ATOM      5  C   UNL     1      -2.830  11.749  18.834  0.00  0.00    +0.000 A 
ATOM      6  C   UNL     1      -3.168  11.184  17.598  0.00  0.00    +0.000 A 
ATOM      7  C   UNL     1      -2.327  10.240  16.988  0.00  0.00    +0.000 A 
ATOM      8  C   UNL     1      -1.126   9.847  17.588  0.00  0.00    +0.000 A 
ATOM      9  C   UNL     1      -0.795  10.410  18.799  0.00  0.00    +0.000 A 
ATOM     10  N   UNL     1       0.313  10.249  19.614  0.00  0.00    +0.000 N 
ATOM     11  H   UNL     1       0.814  11.785  22.341  0.00  0.00    +0.000 HD
ENDROOT
BRANCH   3  12
ATOM     12  C   UNL     1      -1.632  12.760  21.473  0.00  0.00    +0.000 C 
BRANCH  12  13
ATOM     13  C   UNL     1      -2.138  12.316  22.864  0.00  0.00    +0.000 C 
BRANCH  13  14
ATOM     14  N   UNL     1      -3.600  12.256  23.032  0.00  0.00    +0.000 NA
ATOM     15  C   UNL     1      -4.063  12.612  24.382  0.00  0.00    +0.000 C 
ATOM     16  C   UNL     1      -5.569  12.366  24.509  0.00  0.00    +0.000 C 
ATOM     17  C   UNL     1      -6.348  13.122  23.439  0.00  0.00    +0.000 C 
ATOM     18  C   UNL     1      -5.792  12.818  22.054  0.00  0.00    +0.000 C 
ATOM     19  C   UNL     1      -4.283  13.047  21.997  0.00  0.00    +0.000 C 
ENDBRANCH  13  14
ENDBRANCH  12  13
ENDBRANCH   3  12
BRANCH  10  20
ATOM     20  C   UNL     1       1.430   9.342  19.420  0.00  0.00    +0.000 C 
BRANCH  20  21
ATOM     21  C   UNL     1       1.511   8.273  20.534  0.00  0.00    +0.000 C 
BRANCH  21  22
ATOM     22  C   UNL     1       1.892   6.924  19.947  0.00  0.00    +0.000 A 
ATOM     23  C   UNL     1       2.532   6.845  18.703  0.00  0.00    +0.000 A 
ATOM     24  C   UNL     1       2.846   5.604  18.142  0.00  0.00    +0.000 A 
ATOM     25  C   UNL     1       2.522   4.420  18.813  0.00  0.00    +0.000 A 
ATOM     26 CL   UNL     1       2.930   2.925  18.049  0.00  0.00    +0.000 Cl
ATOM     27  C   UNL     1       1.882   4.480  20.053  0.00  0.00    +0.000 A 
ATOM     28 CL   UNL     1       1.448   3.063  20.943  0.00  0.00    +0.000 Cl
ATOM     29  C   UNL     1       1.570   5.724  20.612  0.00  0.00    +0.000 A 
ENDBRANCH  21  22
BRANCH  21  30
ATOM     30  O   UNL     1       0.287   8.105  21.257  0.00  0.00    +0.000 OA
ATOM     31  H   UNL     1      -0.204   8.957  21.201  0.00  0.00    +0.000 HD
ENDBRANCH  21  30
ENDBRANCH  20  21
ENDBRANCH  10  20
TORSDOF 7
ENDMDL
MODEL 3
REMARK VINA RESULT:      -7.6      1.065      1.747
REMARK  Name = 
REMARK  7 active torsions:
REMARK  status: ('A' for Active; 'I' for Inactive)
REMARK    1  A    between atoms: N_3  and  C_4
REMARK    2  A    between atoms: C_4  and  C_5
REMARK    3  A    between atoms: C_5  and  N_6
REMARK    4  A    between atoms: N_18  and  C_19
REMARK    5  A    between atoms: C_19  and  C_20
REMARK    6  A    between atoms: C_20  and  O_21
REMARK    7  A    between atoms: C_20  and  C_22
REMARK                            x       y       z     vdW  Elec       q    Type
REMARK                         _______ _______ _______ _____ _____    ______ ____
ROOT
ATOM      1  N   UNL     1       1.410  10.026  17.527  0.00  0.00    +0.000 NA
ATOM      2  C   UNL     1       1.005   9.869  18.738  0.00  0.00    +0.000 A 
ATOM      3  N   UNL     1       1.277   8.880  19.687  0.00  0.00    +0.000 N 
ATOM      4  C   UNL     1       0.700   9.287  20.905  0.00  0.00    +0.000 A 
ATOM      5  C   UNL     1       0.747   8.730  22.167  0.00  0.00    +0.000 A 
ATOM      6  C   UNL     1       0.022   9.356  23.189  0.00  0.00    +0.000 A 
ATOM      7  C   UNL     1      -0.723  10.518  22.929  0.00  0.00    +0.000 A 
ATOM      8  C   UNL     1      -0.751  11.088  21.652  0.00  0.00    +0.000 A 
ATOM      9  C   UNL     1      -0.031  10.473  20.654  0.00  0.00    +0.000 A 
ATOM     10  N   UNL     1       0.157  10.802  19.322  0.00  0.00    +0.000 N 
ATOM     11  H   UNL     1       1.976   9.195  17.283  0.00  0.00    +0.000 HD
ENDROOT
BRANCH   3  12
ATOM     12  C   UNL     1       2.229   7.779  19.654  0.00  0.00    +0.000 C 
BRANCH  12  13
ATOM     13  C   UNL     1       2.554   7.252  18.237  0.00  0.00    +0.000 C 
BRANCH  13  14
ATOM     14  N   UNL     1       3.081   5.878  18.163  0.00  0.00    +0.000 NA
ATOM     15  C   UNL     1       3.906   5.490  19.317  0.00  0.00    +0.000 C 
ATOM     16  C   UNL     1       4.539   4.116  19.078  0.00  0.00    +0.000 C 
ATOM     17  C   UNL     1       3.482   3.062  18.775  0.00  0.00    +0.000 C 
ATOM     18  C   UNL     1       2.573   3.523  17.641  0.00  0.00    +0.000 C 
ATOM     19  C   UNL     1       2.000   4.911  17.918  0.00  0.00    +0.000 C 
ENDBRANCH  13  14
ENDBRANCH  12  13
ENDBRANCH   3  12
BRANCH  10  20
ATOM     20  C   UNL     1      -0.449  11.896  18.586  0.00  0.00    +0.000 C 
BRANCH  20  21
ATOM     21  C   UNL     1      -1.695  11.443  17.792  0.00  0.00    +0.000 C 
BRANCH  21  22
ATOM     22  C   UNL     1      -2.965  11.792  18.552  0.00  0.00    +0.000 A 
ATOM     23  C   UNL     1      -2.911  12.613  19.686  0.00  0.00    +0.000 A 
ATOM     24  C   UNL     1      -4.071  12.902  20.410  0.00  0.00    +0.000 A 
ATOM     25  C   UNL     1      -5.304  12.373  20.015  0.00  0.00    +0.000 A 
ATOM     26 CL   UNL     1      -6.690  12.764  20.969  0.00  0.00    +0.000 Cl
ATOM     27  C   UNL     1      -5.375  11.552  18.887  0.00  0.00    +0.000 A 
ATOM     28 CL   UNL     1      -6.861  10.860  18.337  0.00  0.00    +0.000 Cl
ATOM     29  C   UNL     1      -4.213  11.265  18.164  0.00  0.00    +0.000 A 
ENDBRANCH  21  22
BRANCH  21  30
ATOM     30  O   UNL     1      -1.722  10.037  17.521  0.00  0.00    +0.000 OA
ATOM     31  H   UNL     1      -1.952   9.928  16.570  0.00  0.00    +0.000 HD
ENDBRANCH  21  30
ENDBRANCH  20  21
ENDBRANCH  10  20
TORSDOF 7
ENDMDL
MODEL 4
REMARK VINA RESULT:      -7.6      4.004      6.780
REMARK  Name = 
REMARK  7 active torsions:
REMARK  status: ('A' for Active; 'I' for Inactive)
REMARK    1  A    between atoms: N_3  and  C_4
REMARK    2  A    between atoms: C_4  and  C_5
REMARK    3  A    between atoms: C_5  and  N_6
REMARK    4  A    between atoms: N_18  and  C_19
REMARK    5  A    between atoms: C_19  and  C_20
REMARK    6  A    between atoms: C_20  and  O_21
REMARK    7  A    between atoms: C_20  and  C_22
REMARK                            x       y       z     vdW  Elec       q    Type
REMARK                         _______ _______ _______ _____ _____    ______ ____
ROOT
ATOM      1  N   UNL     1       5.105   7.413  17.453  0.00  0.00    +0.000 NA
ATOM      2  C   UNL     1       4.475   6.291  17.466  0.00  0.00    +0.000 A 
ATOM      3  N   UNL     1       4.881   4.995  17.136  0.00  0.00    +0.000 N 
ATOM      4  C   UNL     1       3.838   4.119  17.491  0.00  0.00    +0.000 A 
ATOM      5  C   UNL     1       3.756   2.741  17.463  0.00  0.00    +0.000 A 
ATOM      6  C   UNL     1       2.547   2.147  17.846  0.00  0.00    +0.000 A 
ATOM      7  C   UNL     1       1.459   2.936  18.250  0.00  0.00    +0.000 A 
ATOM      8  C   UNL     1       1.555   4.331  18.296  0.00  0.00    +0.000 A 
ATOM      9  C   UNL     1       2.747   4.909  17.925  0.00  0.00    +0.000 A 
ATOM     10  N   UNL     1       3.153   6.232  17.888  0.00  0.00    +0.000 N 
ATOM     11  H   UNL     1       6.042   7.234  17.054  0.00  0.00    +0.000 HD
ENDROOT
BRANCH   3  12
ATOM     12  C   UNL     1       6.201   4.476  16.806  0.00  0.00    +0.000 C 
BRANCH  12  13
ATOM     13  C   UNL     1       6.991   5.330  15.788  0.00  0.00    +0.000 C 
BRANCH  13  14
ATOM     14  N   UNL     1       6.739   5.037  14.366  0.00  0.00    +0.000 NA
ATOM     15  C   UNL     1       7.913   5.227  13.499  0.00  0.00    +0.000 C 
ATOM     16  C   UNL     1       7.518   5.059  12.029  0.00  0.00    +0.000 C 
ATOM     17  C   UNL     1       6.858   3.709  11.780  0.00  0.00    +0.000 C 
ATOM     18  C   UNL     1       5.706   3.487  12.752  0.00  0.00    +0.000 C 
ATOM     19  C   UNL     1       6.149   3.701  14.198  0.00  0.00    +0.000 C 
ENDBRANCH  13  14
ENDBRANCH  12  13
ENDBRANCH   3  12
BRANCH  10  20
ATOM     20  C   UNL     1       2.356   7.410  18.176  0.00  0.00    +0.000 C 
BRANCH  20  21
ATOM     21  C   UNL     1       1.711   7.346  19.580  0.00  0.00    +0.000 C 
BRANCH  21  22
ATOM     22  C   UNL     1       1.143   8.703  19.965  0.00  0.00    +0.000 A 
ATOM     23  C   UNL     1       1.253   9.793  19.092  0.00  0.00    +0.000 A 
ATOM     24  C   UNL     1       0.769  11.051  19.461  0.00  0.00    +0.000 A 
ATOM     25  C   UNL     1       0.169  11.241  20.710  0.00  0.00    +0.000 A 
ATOM     26 CL   UNL     1      -0.391  12.828  21.099  0.00  0.00    +0.000 Cl
ATOM     27  C   UNL     1       0.053  10.166  21.594  0.00  0.00    +0.000 A 
ATOM     28 CL   UNL     1      -0.673  10.322  23.155  0.00  0.00    +0.000 Cl
ATOM     29  C   UNL     1       0.538   8.908  21.221  0.00  0.00    +0.000 A 
ENDBRANCH  21  22
BRANCH  21  30
ATOM     30  O   UNL     1       2.619   6.944  20.611  0.00  0.00    +0.000 OA
ATOM     31  H   UNL     1       2.102   6.879  21.446  0.00  0.00    +0.000 HD
ENDBRANCH  21  30
ENDBRANCH  20  21
ENDBRANCH  10  20
TORSDOF 7
ENDMDL
MODEL 5
REMARK VINA RESULT:      -7.6      3.024      5.823
REMARK  Name = 
REMARK  7 active torsions:
REMARK  status: ('A' for Active; 'I' for Inactive)
REMARK    1  A    between atoms: N_3  and  C_4
REMARK    2  A    between atoms: C_4  and  C_5
REMARK    3  A    between atoms: C_5  and  N_6
REMARK    4  A    between atoms: N_18  and  C_19
REMARK    5  A    between atoms: C_19  and  C_20
REMARK    6  A    between atoms: C_20  and  O_21
REMARK    7  A    between atoms: C_20  and  C_22
REMARK                            x       y       z     vdW  Elec       q    Type
REMARK                         _______ _______ _______ _____ _____    ______ ____
ROOT
ATOM      1  N   UNL     1       4.103   7.236  17.646  0.00  0.00    +0.000 NA
ATOM      2  C   UNL     1       3.433   6.173  17.924  0.00  0.00    +0.000 A 
ATOM      3  N   UNL     1       3.400   4.912  17.322  0.00  0.00    +0.000 N 
ATOM      4  C   UNL     1       2.614   4.073  18.134  0.00  0.00    +0.000 A 
ATOM      5  C   UNL     1       2.336   2.723  18.050  0.00  0.00    +0.000 A 
ATOM      6  C   UNL     1       1.469   2.171  19.001  0.00  0.00    +0.000 A 
ATOM      7  C   UNL     1       0.909   2.972  20.009  0.00  0.00    +0.000 A 
ATOM      8  C   UNL     1       1.211   4.335  20.101  0.00  0.00    +0.000 A 
ATOM      9  C   UNL     1       2.069   4.871  19.169  0.00  0.00    +0.000 A 
ATOM     10  N   UNL     1       2.570   6.152  19.012  0.00  0.00    +0.000 N 
ATOM     11  H   UNL     1       4.628   7.047  16.774  0.00  0.00    +0.000 HD
ENDROOT
BRANCH   3  12
ATOM     12  C   UNL     1       4.230   4.351  16.266  0.00  0.00    +0.000 C 
BRANCH  12  13
ATOM     13  C   UNL     1       5.713   4.151  16.650  0.00  0.00    +0.000 C 
BRANCH  13  14
ATOM     14  N   UNL     1       6.314   5.210  17.482  0.00  0.00    +0.000 NA
ATOM     15  C   UNL     1       7.100   4.704  18.618  0.00  0.00    +0.000 C 
ATOM     16  C   UNL     1       7.546   5.865  19.511  0.00  0.00    +0.000 C 
ATOM     17  C   UNL     1       8.324   6.909  18.720  0.00  0.00    +0.000 C 
ATOM     18  C   UNL     1       7.536   7.350  17.493  0.00  0.00    +0.000 C 
ATOM     19  C   UNL     1       7.089   6.151  16.659  0.00  0.00    +0.000 C 
ENDBRANCH  13  14
ENDBRANCH  12  13
ENDBRANCH   3  12
BRANCH  10  20
ATOM     20  C   UNL     1       2.242   7.331  19.791  0.00  0.00    +0.000 C 
BRANCH  20  21
ATOM     21  C   UNL     1       1.873   8.536  18.895  0.00  0.00    +0.000 C 
BRANCH  21  22
ATOM     22  C   UNL     1       0.895   9.452  19.613  0.00  0.00    +0.000 A 
ATOM     23  C   UNL     1       0.269  10.501  18.927  0.00  0.00    +0.000 A 
ATOM     24  C   UNL     1      -0.599  11.369  19.594  0.00  0.00    +0.000 A 
ATOM     25  C   UNL     1      -0.853  11.206  20.960  0.00  0.00    +0.000 A 
ATOM     26 CL   UNL     1      -1.926  12.329  21.718  0.00  0.00    +0.000 Cl
ATOM     27  C   UNL     1      -0.235  10.167  21.660  0.00  0.00    +0.000 A 
ATOM     28 CL   UNL     1      -0.497   9.903  23.348  0.00  0.00    +0.000 Cl
ATOM     29  C   UNL     1       0.632   9.299  20.988  0.00  0.00    +0.000 A 
ENDBRANCH  21  22
BRANCH  21  30
ATOM     30  O   UNL     1       1.284   8.161  17.645  0.00  0.00    +0.000 OA
ATOM     31  H   UNL     1       0.576   8.817  17.448  0.00  0.00    +0.000 HD
ENDBRANCH  21  30
ENDBRANCH  20  21
ENDBRANCH  10  20
TORSDOF 7
ENDMDL
MODEL 6
REMARK VINA RESULT:      -7.5      3.682      6.429
REMARK  Name = 
REMARK  7 active torsions:
REMARK  status: ('A' for Active; 'I' for Inactive)
REMARK    1  A    between atoms: N_3  and  C_4
REMARK    2  A    between atoms: C_4  and  C_5
REMARK    3  A    between atoms: C_5  and  N_6
REMARK    4  A    between atoms: N_18  and  C_19
REMARK    5  A    between atoms: C_19  and  C_20
REMARK    6  A    between atoms: C_20  and  O_21
REMARK    7  A    between atoms: C_20  and  C_22
REMARK                            x       y       z     vdW  Elec       q    Type
REMARK                         _______ _______ _______ _____ _____    ______ ____
ROOT
ATOM      1  N   UNL     1       4.688   6.860  17.812  0.00  0.00    +0.000 NA
ATOM      2  C   UNL     1       3.883   5.868  17.958  0.00  0.00    +0.000 A 
ATOM      3  N   UNL     1       3.805   4.631  17.311  0.00  0.00    +0.000 N 
ATOM      4  C   UNL     1       2.834   3.861  17.979  0.00  0.00    +0.000 A 
ATOM      5  C   UNL     1       2.435   2.551  17.808  0.00  0.00    +0.000 A 
ATOM      6  C   UNL     1       1.394   2.071  18.614  0.00  0.00    +0.000 A 
ATOM      7  C   UNL     1       0.787   2.902  19.568  0.00  0.00    +0.000 A 
ATOM      8  C   UNL     1       1.210   4.223  19.750  0.00  0.00    +0.000 A 
ATOM      9  C   UNL     1       2.237   4.688  18.961  0.00  0.00    +0.000 A 
ATOM     10  N   UNL     1       2.882   5.912  18.920  0.00  0.00    +0.000 N 
ATOM     11  H   UNL     1       5.305   6.638  17.012  0.00  0.00    +0.000 HD
ENDROOT
BRANCH   3  12
ATOM     12  C   UNL     1       4.710   4.010  16.354  0.00  0.00    +0.000 C 
BRANCH  12  13
ATOM     13  C   UNL     1       5.769   4.965  15.758  0.00  0.00    +0.000 C 
BRANCH  13  14
ATOM     14  N   UNL     1       6.033   4.818  14.316  0.00  0.00    +0.000 NA
ATOM     15  C   UNL     1       7.433   5.062  13.935  0.00  0.00    +0.000 C 
ATOM     16  C   UNL     1       7.578   5.047  12.411  0.00  0.00    +0.000 C 
ATOM     17  C   UNL     1       7.062   3.744  11.816  0.00  0.00    +0.000 C 
ATOM     18  C   UNL     1       5.645   3.456  12.298  0.00  0.00    +0.000 C 
ATOM     19  C   UNL     1       5.553   3.519  13.821  0.00  0.00    +0.000 C 
ENDBRANCH  13  14
ENDBRANCH  12  13
ENDBRANCH   3  12
BRANCH  10  20
ATOM     20  C   UNL     1       2.571   7.101  19.692  0.00  0.00    +0.000 C 
BRANCH  20  21
ATOM     21  C   UNL     1       2.156   8.287  18.791  0.00  0.00    +0.000 C 
BRANCH  21  22
ATOM     22  C   UNL     1       1.155   9.176  19.511  0.00  0.00    +0.000 A 
ATOM     23  C   UNL     1       0.475  10.187  18.819  0.00  0.00    +0.000 A 
ATOM     24  C   UNL     1      -0.415  11.032  19.487  0.00  0.00    +0.000 A 
ATOM     25  C   UNL     1      -0.639  10.883  20.860  0.00  0.00    +0.000 A 
ATOM     26 CL   UNL     1      -1.742  11.975  21.618  0.00  0.00    +0.000 Cl
ATOM     27  C   UNL     1       0.033   9.882  21.566  0.00  0.00    +0.000 A 
ATOM     28 CL   UNL     1      -0.189   9.636  23.263  0.00  0.00    +0.000 Cl
ATOM     29  C   UNL     1       0.922   9.037  20.893  0.00  0.00    +0.000 A 
ENDBRANCH  21  22
BRANCH  21  30
ATOM     30  O   UNL     1       1.569   7.885  17.548  0.00  0.00    +0.000 OA
ATOM     31  H   UNL     1       2.029   7.063  17.262  0.00  0.00    +0.000 HD
ENDBRANCH  21  30
ENDBRANCH  20  21
ENDBRANCH  10  20
TORSDOF 7
ENDMDL
MODEL 7
REMARK VINA RESULT:      -7.5      3.561      6.127
REMARK  Name = 
REMARK  7 active torsions:
REMARK  status: ('A' for Active; 'I' for Inactive)
REMARK    1  A    between atoms: N_3  and  C_4
REMARK    2  A    between atoms: C_4  and  C_5
REMARK    3  A    between atoms: C_5  and  N_6
REMARK    4  A    between atoms: N_18  and  C_19
REMARK    5  A    between atoms: C_19  and  C_20
REMARK    6  A    between atoms: C_20  and  O_21
REMARK    7  A    between atoms: C_20  and  C_22
REMARK                            x       y       z     vdW  Elec       q    Type
REMARK                         _______ _______ _______ _____ _____    ______ ____
ROOT
ATOM      1  N   UNL     1       1.800   5.003  17.672  0.00  0.00    +0.000 NA
ATOM      2  C   UNL     1       3.077   5.152  17.615  0.00  0.00    +0.000 A 
ATOM      3  N   UNL     1       4.109   4.239  17.384  0.00  0.00    +0.000 N 
ATOM      4  C   UNL     1       5.306   4.970  17.266  0.00  0.00    +0.000 A 
ATOM      5  C   UNL     1       6.589   4.572  16.950  0.00  0.00    +0.000 A 
ATOM      6  C   UNL     1       7.598   5.544  16.953  0.00  0.00    +0.000 A 
ATOM      7  C   UNL     1       7.302   6.881  17.262  0.00  0.00    +0.000 A 
ATOM      8  C   UNL     1       5.995   7.282  17.561  0.00  0.00    +0.000 A 
ATOM      9  C   UNL     1       5.007   6.324  17.551  0.00  0.00    +0.000 A 
ATOM     10  N   UNL     1       3.644   6.409  17.775  0.00  0.00    +0.000 N 
ATOM     11  H   UNL     1       1.606   3.990  17.585  0.00  0.00    +0.000 HD
ENDROOT
BRANCH   3  12
ATOM     12  C   UNL     1       4.057   2.838  16.988  0.00  0.00    +0.000 C 
BRANCH  12  13
ATOM     13  C   UNL     1       3.551   1.878  18.088  0.00  0.00    +0.000 C 
BRANCH  13  14
ATOM     14  N   UNL     1       2.766   2.492  19.173  0.00  0.00    +0.000 NA
ATOM     15  C   UNL     1       1.374   2.022  19.246  0.00  0.00    +0.000 C 
ATOM     16  C   UNL     1       0.596   2.828  20.290  0.00  0.00    +0.000 C 
ATOM     17  C   UNL     1       1.272   2.770  21.654  0.00  0.00    +0.000 C 
ATOM     18  C   UNL     1       2.739   3.167  21.543  0.00  0.00    +0.000 C 
ATOM     19  C   UNL     1       3.455   2.356  20.465  0.00  0.00    +0.000 C 
ENDBRANCH  13  14
ENDBRANCH  12  13
ENDBRANCH   3  12
BRANCH  10  20
ATOM     20  C   UNL     1       2.884   7.581  18.171  0.00  0.00    +0.000 C 
BRANCH  20  21
ATOM     21  C   UNL     1       1.970   7.298  19.386  0.00  0.00    +0.000 C 
BRANCH  21  22
ATOM     22  C   UNL     1       1.353   8.590  19.897  0.00  0.00    +0.000 A 
ATOM     23  C   UNL     1       1.329   9.735  19.089  0.00  0.00    +0.000 A 
ATOM     24  C   UNL     1       0.800  10.935  19.571  0.00  0.00    +0.000 A 
ATOM     25  C   UNL     1       0.287  11.012  20.870  0.00  0.00    +0.000 A 
ATOM     26 CL   UNL     1      -0.336  12.534  21.399  0.00  0.00    +0.000 Cl
ATOM     27  C   UNL     1       0.305   9.881  21.690  0.00  0.00    +0.000 A 
ATOM     28 CL   UNL     1      -0.307   9.898  23.307  0.00  0.00    +0.000 Cl
ATOM     29  C   UNL     1       0.835   8.682  21.204  0.00  0.00    +0.000 A 
ENDBRANCH  21  22
BRANCH  21  30
ATOM     30  O   UNL     1       2.649   6.676  20.481  0.00  0.00    +0.000 OA
ATOM     31  H   UNL     1       2.840   7.379  21.143  0.00  0.00    +0.000 HD
ENDBRANCH  21  30
ENDBRANCH  20  21
ENDBRANCH  10  20
TORSDOF 7
ENDMDL
MODEL 8
REMARK VINA RESULT:      -7.5      4.037      6.901
REMARK  Name = 
REMARK  7 active torsions:
REMARK  status: ('A' for Active; 'I' for Inactive)
REMARK    1  A    between atoms: N_3  and  C_4
REMARK    2  A    between atoms: C_4  and  C_5
REMARK    3  A    between atoms: C_5  and  N_6
REMARK    4  A    between atoms: N_18  and  C_19
REMARK    5  A    between atoms: C_19  and  C_20
REMARK    6  A    between atoms: C_20  and  O_21
REMARK    7  A    between atoms: C_20  and  C_22
REMARK                            x       y       z     vdW  Elec       q    Type
REMARK                         _______ _______ _______ _____ _____    ______ ____
ROOT
ATOM      1  N   UNL     1       4.986   7.401  17.562  0.00  0.00    +0.000 NA
ATOM      2  C   UNL     1       4.392   6.259  17.549  0.00  0.00    +0.000 A 
ATOM      3  N   UNL     1       4.832   4.988  17.172  0.00  0.00    +0.000 N 
ATOM      4  C   UNL     1       3.823   4.069  17.514  0.00  0.00    +0.000 A 
ATOM      5  C   UNL     1       3.783   2.691  17.444  0.00  0.00    +0.000 A 
ATOM      6  C   UNL     1       2.599   2.047  17.825  0.00  0.00    +0.000 A 
ATOM      7  C   UNL     1       1.494   2.789  18.270  0.00  0.00    +0.000 A 
ATOM      8  C   UNL     1       1.547   4.184  18.358  0.00  0.00    +0.000 A 
ATOM      9  C   UNL     1       2.715   4.810  17.989  0.00  0.00    +0.000 A 
ATOM     10  N   UNL     1       3.079   6.146  17.987  0.00  0.00    +0.000 N 
ATOM     11  H   UNL     1       5.922   7.264  17.144  0.00  0.00    +0.000 HD
ENDROOT
BRANCH   3  12
ATOM     12  C   UNL     1       6.162   4.522  16.807  0.00  0.00    +0.000 C 
BRANCH  12  13
ATOM     13  C   UNL     1       6.898   5.414  15.781  0.00  0.00    +0.000 C 
BRANCH  13  14
ATOM     14  N   UNL     1       6.684   5.080  14.362  0.00  0.00    +0.000 NA
ATOM     15  C   UNL     1       7.870   5.281  13.515  0.00  0.00    +0.000 C 
ATOM     16  C   UNL     1       7.511   5.066  12.042  0.00  0.00    +0.000 C 
ATOM     17  C   UNL     1       6.895   3.691  11.814  0.00  0.00    +0.000 C 
ATOM     18  C   UNL     1       5.729   3.460  12.768  0.00  0.00    +0.000 C 
ATOM     19  C   UNL     1       6.136   3.723  14.217  0.00  0.00    +0.000 C 
ENDBRANCH  13  14
ENDBRANCH  12  13
ENDBRANCH   3  12
BRANCH  10  20
ATOM     20  C   UNL     1       2.250   7.289  18.325  0.00  0.00    +0.000 C 
BRANCH  20  21
ATOM     21  C   UNL     1       1.677   7.189  19.757  0.00  0.00    +0.000 C 
BRANCH  21  22
ATOM     22  C   UNL     1       1.251   8.561  20.254  0.00  0.00    +0.000 A 
ATOM     23  C   UNL     1       0.869   8.746  21.590  0.00  0.00    +0.000 A 
ATOM     24  C   UNL     1       0.437   9.997  22.039  0.00  0.00    +0.000 A 
ATOM     25  C   UNL     1       0.375  11.083  21.161  0.00  0.00    +0.000 A 
ATOM     26 CL   UNL     1      -0.183  12.593  21.787  0.00  0.00    +0.000 Cl
ATOM     27  C   UNL     1       0.750  10.916  19.825  0.00  0.00    +0.000 A 
ATOM     28 CL   UNL     1       0.700  12.210  18.680  0.00  0.00    +0.000 Cl
ATOM     29  C   UNL     1       1.183   9.663  19.379  0.00  0.00    +0.000 A 
ENDBRANCH  21  22
BRANCH  21  30
ATOM     30  O   UNL     1       2.602   6.648  20.708  0.00  0.00    +0.000 OA
ATOM     31  H   UNL     1       2.207   6.773  21.601  0.00  0.00    +0.000 HD
ENDBRANCH  21  30
ENDBRANCH  20  21
ENDBRANCH  10  20
TORSDOF 7
ENDMDL
MODEL 9
REMARK VINA RESULT:      -7.5      4.954      8.772
REMARK  Name = 
REMARK  7 active torsions:
REMARK  status: ('A' for Active; 'I' for Inactive)
REMARK    1  A    between atoms: N_3  and  C_4
REMARK    2  A    between atoms: C_4  and  C_5
REMARK    3  A    between atoms: C_5  and  N_6
REMARK    4  A    between atoms: N_18  and  C_19
REMARK    5  A    between atoms: C_19  and  C_20
REMARK    6  A    between atoms: C_20  and  O_21
REMARK    7  A    between atoms: C_20  and  C_22
REMARK                            x       y       z     vdW  Elec       q    Type
REMARK                         _______ _______ _______ _____ _____    ______ ____
ROOT
ATOM      1  N   UNL     1       1.873  10.434  17.529  0.00  0.00    +0.000 NA
ATOM      2  C   UNL     1       1.403  10.382  18.726  0.00  0.00    +0.000 A 
ATOM      3  N   UNL     1       1.063  11.388  19.635  0.00  0.00    +0.000 N 
ATOM      4  C   UNL     1       0.442  10.772  20.738  0.00  0.00    +0.000 A 
ATOM      5  C   UNL     1      -0.158  11.307  21.860  0.00  0.00    +0.000 A 
ATOM      6  C   UNL     1      -0.660  10.420  22.822  0.00  0.00    +0.000 A 
ATOM      7  C   UNL     1      -0.557   9.032  22.638  0.00  0.00    +0.000 A 
ATOM      8  C   UNL     1       0.034   8.497  21.488  0.00  0.00    +0.000 A 
ATOM      9  C   UNL     1       0.520   9.372  20.544  0.00  0.00    +0.000 A 
ATOM     10  N   UNL     1       1.123   9.157  19.317  0.00  0.00    +0.000 N 
ATOM     11  H   UNL     1       2.059  11.430  17.317  0.00  0.00    +0.000 HD
ENDROOT
BRANCH   3  12
ATOM     12  C   UNL     1       0.998  12.832  19.461  0.00  0.00    +0.000 C 
BRANCH  12  13
ATOM     13  C   UNL     1       2.153  13.613  20.127  0.00  0.00    +0.000 C 
BRANCH  13  14
ATOM     14  N   UNL     1       2.676  14.764  19.370  0.00  0.00    +0.000 NA
ATOM     15  C   UNL     1       3.043  14.450  17.981  0.00  0.00    +0.000 C 
ATOM     16  C   UNL     1       3.724  15.656  17.327  0.00  0.00    +0.000 C 
ATOM     17  C   UNL     1       2.845  16.898  17.400  0.00  0.00    +0.000 C 
ATOM     18  C   UNL     1       2.393  17.153  18.833  0.00  0.00    +0.000 C 
ATOM     19  C   UNL     1       1.754  15.907  19.444  0.00  0.00    +0.000 C 
ENDBRANCH  13  14
ENDBRANCH  12  13
ENDBRANCH   3  12
BRANCH  10  20
ATOM     20  C   UNL     1       1.481   7.884  18.719  0.00  0.00    +0.000 C 
BRANCH  20  21
ATOM     21  C   UNL     1       2.741   7.269  19.371  0.00  0.00    +0.000 C 
BRANCH  21  22
ATOM     22  C   UNL     1       3.496   6.414  18.364  0.00  0.00    +0.000 A 
ATOM     23  C   UNL     1       4.291   7.013  17.379  0.00  0.00    +0.000 A 
ATOM     24  C   UNL     1       4.952   6.231  16.427  0.00  0.00    +0.000 A 
ATOM     25  C   UNL     1       4.827   4.838  16.443  0.00  0.00    +0.000 A 
ATOM     26 CL   UNL     1       5.662   3.942  15.225  0.00  0.00    +0.000 Cl
ATOM     27  C   UNL     1       4.035   4.225  17.417  0.00  0.00    +0.000 A 
ATOM     28 CL   UNL     1       3.829   2.511  17.500  0.00  0.00    +0.000 Cl
ATOM     29  C   UNL     1       3.376   5.011  18.369  0.00  0.00    +0.000 A 
ENDBRANCH  21  22
BRANCH  21  30
ATOM     30  O   UNL     1       2.456   6.452  20.511  0.00  0.00    +0.000 OA
ATOM     31  H   UNL     1       3.162   5.767  20.563  0.00  0.00    +0.000 HD
ENDBRANCH  21  30
ENDBRANCH  20  21
ENDBRANCH  10  20
TORSDOF 7
ENDMDL
