MODEL 1
REMARK VINA RESULT:      -7.8      0.000      0.000
REMARK  Name = 
REMARK  2 active torsions:
REMARK  status: ('A' for Active; 'I' for Inactive)
REMARK    1  A    between atoms: C_2  and  CA_4
REMARK    2  A    between atoms: N_10  and  C_11
REMARK                            x       y       z     vdW  Elec       q    Type
REMARK                         _______ _______ _______ _____ _____    ______ ____
ROOT
ATOM      1  CA  UNL     1       2.211  13.149  19.448  0.00  0.00    +0.000 C 
ATOM      2  C   UNL     1       1.317  12.143  18.729  0.00  0.00    +0.000 C 
ATOM      3  C   UNL     1       0.816  11.152  19.777  0.00  0.00    +0.000 C 
ATOM      4  C   UNL     1       1.062   9.819  19.744  0.00  0.00    +0.000 C 
ATOM      5  C   UNL     1       0.793   8.795  20.804  0.00  0.00    +0.000 C 
ATOM      6  C   UNL     1       1.804   7.705  20.521  0.00  0.00    +0.000 C 
ATOM      7  N   UNL     1       2.103   7.811  19.115  0.00  0.00    +0.000 N 
ATOM      8  C   UNL     1       1.739   9.071  18.619  0.00  0.00    +0.000 C 
ATOM      9  O   UNL     1       1.844   9.500  17.484  0.00  0.00    +0.000 OA
ATOM     10  C   UNL     1       0.148  11.874  20.915  0.00  0.00    +0.000 A 
ATOM     11  C   UNL     1      -0.844  11.280  21.715  0.00  0.00    +0.000 A 
ATOM     12  C   UNL     1      -1.436  11.973  22.777  0.00  0.00    +0.000 A 
ATOM     13  C   UNL     1      -1.093  13.298  23.013  0.00  0.00    +0.000 A 
ATOM     14 CL   UNL     1      -1.814  14.150  24.322  0.00  0.00    +0.000 Cl
ATOM     15  C   UNL     1      -0.170  13.935  22.194  0.00  0.00    +0.000 A 
ATOM     16  C   UNL     1       0.467  13.236  21.157  0.00  0.00    +0.000 A 
ATOM     17  N   UNL     1       1.434  13.944  20.421  0.00  0.00    +0.000 N 
ATOM     18  H   UNL     1       1.047  14.777  19.966  0.00  0.00    +0.000 HD
ENDROOT
BRANCH   7  19
ATOM     19  C   UNL     1       2.743   6.769  18.386  0.00  0.00    +0.000 A 
ATOM     20  C   UNL     1       2.223   5.468  18.341  0.00  0.00    +0.000 A 
ATOM     21  C   UNL     1       2.887   4.436  17.666  0.00  0.00    +0.000 A 
ATOM     22  C   UNL     1       4.090   4.684  17.020  0.00  0.00    +0.000 A 
ATOM     23  C   UNL     1       4.613   5.971  17.024  0.00  0.00    +0.000 A 
ATOM     24  C   UNL     1       3.941   7.005  17.687  0.00  0.00    +0.000 A 
ENDBRANCH   7  19
BRANCH   1  26
ATOM     25  O   UNL     1       4.103  13.812  18.091  0.00  0.00    +0.000 OA
ATOM     26  C   UNL     1       2.906  14.059  18.437  0.00  0.00    +0.000 C 
ATOM     27  OXT UNL     1       2.359  15.159  18.102  0.00  0.00    +0.000 OA
ENDBRANCH   1  26
TORSDOF 2
ENDMDL
MODEL 2
REMARK VINA RESULT:      -7.7      3.758      7.937
REMARK  Name = 
REMARK  2 active torsions:
REMARK  status: ('A' for Active; 'I' for Inactive)
REMARK    1  A    between atoms: C_2  and  CA_4
REMARK    2  A    between atoms: N_10  and  C_11
REMARK                            x       y       z     vdW  Elec       q    Type
REMARK                         _______ _______ _______ _____ _____    ______ ____
ROOT
ATOM      1  CA  UNL     1       0.789   9.743  21.894  0.00  0.00    +0.000 C 
ATOM      2  C   UNL     1      -0.044  10.359  20.775  0.00  0.00    +0.000 C 
ATOM      3  C   UNL     1       0.881  10.556  19.577  0.00  0.00    +0.000 C 
ATOM      4  C   UNL     1       1.153  11.759  19.014  0.00  0.00    +0.000 C 
ATOM      5  C   UNL     1       2.182  12.092  17.976  0.00  0.00    +0.000 C 
ATOM      6  C   UNL     1       2.474  13.558  18.212  0.00  0.00    +0.000 C 
ATOM      7  N   UNL     1       1.286  14.096  18.825  0.00  0.00    +0.000 N 
ATOM      8  C   UNL     1       0.498  13.073  19.371  0.00  0.00    +0.000 C 
ATOM      9  O   UNL     1      -0.567  13.164  19.955  0.00  0.00    +0.000 OA
ATOM     10  C   UNL     1       1.556   9.263  19.208  0.00  0.00    +0.000 A 
ATOM     11  C   UNL     1       2.009   8.985  17.906  0.00  0.00    +0.000 A 
ATOM     12  C   UNL     1       2.648   7.779  17.599  0.00  0.00    +0.000 A 
ATOM     13  C   UNL     1       2.783   6.801  18.576  0.00  0.00    +0.000 A 
ATOM     14 CL   UNL     1       3.575   5.320  18.202  0.00  0.00    +0.000 Cl
ATOM     15  C   UNL     1       2.281   7.017  19.852  0.00  0.00    +0.000 A 
ATOM     16  C   UNL     1       1.682   8.242  20.186  0.00  0.00    +0.000 A 
ATOM     17  N   UNL     1       1.261   8.395  21.519  0.00  0.00    +0.000 N 
ATOM     18  H   UNL     1       0.568   7.690  21.794  0.00  0.00    +0.000 HD
ENDROOT
BRANCH   7  19
ATOM     19  C   UNL     1       1.024  15.493  18.895  0.00  0.00    +0.000 A 
ATOM     20  C   UNL     1      -0.182  16.045  18.443  0.00  0.00    +0.000 A 
ATOM     21  C   UNL     1      -0.411  17.426  18.466  0.00  0.00    +0.000 A 
ATOM     22  C   UNL     1       0.566  18.288  18.943  0.00  0.00    +0.000 A 
ATOM     23  C   UNL     1       1.760  17.766  19.425  0.00  0.00    +0.000 A 
ATOM     24  C   UNL     1       1.981  16.384  19.414  0.00  0.00    +0.000 A 
ENDBRANCH   7  19
BRANCH   1  26
ATOM     25  O   UNL     1      -1.214  10.119  23.202  0.00  0.00    +0.000 OA
ATOM     26  C   UNL     1      -0.018   9.693  23.191  0.00  0.00    +0.000 C 
ATOM     27  OXT UNL     1       0.570   9.413  24.285  0.00  0.00    +0.000 OA
ENDBRANCH   1  26
TORSDOF 2
ENDMDL
MODEL 3
REMARK VINA RESULT:      -7.2      0.417      1.184
REMARK  Name = 
REMARK  2 active torsions:
REMARK  status: ('A' for Active; 'I' for Inactive)
REMARK    1  A    between atoms: C_2  and  CA_4
REMARK    2  A    between atoms: N_10  and  C_11
REMARK                            x       y       z     vdW  Elec       q    Type
REMARK                         _______ _______ _______ _____ _____    ______ ____
ROOT
ATOM      1  CA  UNL     1       2.093  13.482  19.582  0.00  0.00    +0.000 C 
ATOM      2  C   UNL     1       1.219  12.473  18.845  0.00  0.00    +0.000 C 
ATOM      3  C   UNL     1       0.678  11.496  19.886  0.00  0.00    +0.000 C 
ATOM      4  C   UNL     1       0.919  10.162  19.876  0.00  0.00    +0.000 C 
ATOM      5  C   UNL     1       0.609   9.150  20.938  0.00  0.00    +0.000 C 
ATOM      6  C   UNL     1       1.624   8.053  20.701  0.00  0.00    +0.000 C 
ATOM      7  N   UNL     1       1.972   8.142  19.306  0.00  0.00    +0.000 N 
ATOM      8  C   UNL     1       1.630   9.397  18.783  0.00  0.00    +0.000 C 
ATOM      9  O   UNL     1       1.776   9.813  17.648  0.00  0.00    +0.000 OA
ATOM     10  C   UNL     1      -0.025  12.233  20.992  0.00  0.00    +0.000 A 
ATOM     11  C   UNL     1      -1.046  11.653  21.765  0.00  0.00    +0.000 A 
ATOM     12  C   UNL     1      -1.670  12.361  22.798  0.00  0.00    +0.000 A 
ATOM     13  C   UNL     1      -1.329  13.686  23.031  0.00  0.00    +0.000 A 
ATOM     14 CL   UNL     1      -2.090  14.556  24.305  0.00  0.00    +0.000 Cl
ATOM     15  C   UNL     1      -0.376  14.311  22.237  0.00  0.00    +0.000 A 
ATOM     16  C   UNL     1       0.292  13.596  21.229  0.00  0.00    +0.000 A 
ATOM     17  N   UNL     1       1.288  14.292  20.519  0.00  0.00    +0.000 N 
ATOM     18  H   UNL     1       0.919  15.121  20.041  0.00  0.00    +0.000 HD
ENDROOT
BRANCH   7  19
ATOM     19  C   UNL     1       2.631   7.089  18.610  0.00  0.00    +0.000 A 
ATOM     20  C   UNL     1       3.741   7.325  17.787  0.00  0.00    +0.000 A 
ATOM     21  C   UNL     1       4.350   6.292  17.064  0.00  0.00    +0.000 A 
ATOM     22  C   UNL     1       3.860   4.997  17.148  0.00  0.00    +0.000 A 
ATOM     23  C   UNL     1       2.779   4.729  17.978  0.00  0.00    +0.000 A 
ATOM     24  C   UNL     1       2.180   5.760  18.712  0.00  0.00    +0.000 A 
ENDBRANCH   7  19
BRANCH   1  26
ATOM     25  O   UNL     1       2.399  15.554  18.366  0.00  0.00    +0.000 OA
ATOM     26  C   UNL     1       2.826  14.378  18.585  0.00  0.00    +0.000 C 
ATOM     27  OXT UNL     1       3.733  13.880  17.843  0.00  0.00    +0.000 OA
ENDBRANCH   1  26
TORSDOF 2
ENDMDL
MODEL 4
REMARK VINA RESULT:      -6.8      4.794      9.247
REMARK  Name = 
REMARK  2 active torsions:
REMARK  status: ('A' for Active; 'I' for Inactive)
REMARK    1  A    between atoms: C_2  and  CA_4
REMARK    2  A    between atoms: N_10  and  C_11
REMARK                            x       y       z     vdW  Elec       q    Type
REMARK                         _______ _______ _______ _____ _____    ______ ____
ROOT
ATOM      1  CA  UNL     1       4.522   3.805  19.542  0.00  0.00    +0.000 C 
ATOM      2  C   UNL     1       3.150   4.242  19.041  0.00  0.00    +0.000 C 
ATOM      3  C   UNL     1       3.349   5.519  18.228  0.00  0.00    +0.000 C 
ATOM      4  C   UNL     1       2.783   6.712  18.535  0.00  0.00    +0.000 C 
ATOM      5  C   UNL     1       3.060   8.057  17.932  0.00  0.00    +0.000 C 
ATOM      6  C   UNL     1       2.680   9.030  19.028  0.00  0.00    +0.000 C 
ATOM      7  N   UNL     1       1.704   8.343  19.835  0.00  0.00    +0.000 N 
ATOM      8  C   UNL     1       1.766   6.958  19.625  0.00  0.00    +0.000 C 
ATOM      9  O   UNL     1       1.091   6.081  20.134  0.00  0.00    +0.000 OA
ATOM     10  C   UNL     1       4.366   5.305  17.142  0.00  0.00    +0.000 A 
ATOM     11  C   UNL     1       4.377   6.051  15.951  0.00  0.00    +0.000 A 
ATOM     12  C   UNL     1       5.348   5.838  14.966  0.00  0.00    +0.000 A 
ATOM     13  C   UNL     1       6.284   4.826  15.126  0.00  0.00    +0.000 A 
ATOM     14 CL   UNL     1       7.482   4.567  13.919  0.00  0.00    +0.000 Cl
ATOM     15  C   UNL     1       6.254   4.022  16.259  0.00  0.00    +0.000 A 
ATOM     16  C   UNL     1       5.316   4.259  17.277  0.00  0.00    +0.000 A 
ATOM     17  N   UNL     1       5.403   3.437  18.415  0.00  0.00    +0.000 N 
ATOM     18  H   UNL     1       5.288   2.443  18.189  0.00  0.00    +0.000 HD
ENDROOT
BRANCH   7  19
ATOM     19  C   UNL     1       0.855   9.020  20.756  0.00  0.00    +0.000 A 
ATOM     20  C   UNL     1      -0.068   9.989  20.338  0.00  0.00    +0.000 A 
ATOM     21  C   UNL     1      -0.862  10.689  21.255  0.00  0.00    +0.000 A 
ATOM     22  C   UNL     1      -0.748  10.435  22.614  0.00  0.00    +0.000 A 
ATOM     23  C   UNL     1       0.139   9.460  23.054  0.00  0.00    +0.000 A 
ATOM     24  C   UNL     1       0.921   8.750  22.134  0.00  0.00    +0.000 A 
ENDBRANCH   7  19
BRANCH   1  26
ATOM     25  O   UNL     1       5.264   1.728  20.539  0.00  0.00    +0.000 OA
ATOM     26  C   UNL     1       4.384   2.643  20.524  0.00  0.00    +0.000 C 
ATOM     27  OXT UNL     1       3.300   2.497  21.176  0.00  0.00    +0.000 OA
ENDBRANCH   1  26
TORSDOF 2
ENDMDL
MODEL 5
REMARK VINA RESULT:      -6.8      1.414      1.937
REMARK  Name = 
REMARK  2 active torsions:
REMARK  status: ('A' for Active; 'I' for Inactive)
REMARK    1  A    between atoms: C_2  and  CA_4
REMARK    2  A    between atoms: N_10  and  C_11
REMARK                            x       y       z     vdW  Elec       q    Type
REMARK                         _______ _______ _______ _____ _____    ______ ____
ROOT
ATOM      1  CA  UNL     1       0.491  13.944  20.003  0.00  0.00    +0.000 C 
ATOM      2  C   UNL     1      -0.238  12.735  19.428  0.00  0.00    +0.000 C 
ATOM      3  C   UNL     1      -0.487  11.765  20.581  0.00  0.00    +0.000 C 
ATOM      4  C   UNL     1       0.001  10.501  20.631  0.00  0.00    +0.000 C 
ATOM      5  C   UNL     1      -0.014   9.541  21.783  0.00  0.00    +0.000 C 
ATOM      6  C   UNL     1       1.165   8.632  21.511  0.00  0.00    +0.000 C 
ATOM      7  N   UNL     1       1.361   8.667  20.084  0.00  0.00    +0.000 N 
ATOM      8  C   UNL     1       0.741   9.792  19.521  0.00  0.00    +0.000 C 
ATOM      9  O   UNL     1       0.701  10.132  18.352  0.00  0.00    +0.000 OA
ATOM     10  C   UNL     1      -1.213  12.451  21.705  0.00  0.00    +0.000 A 
ATOM     11  C   UNL     1      -2.031  11.760  22.617  0.00  0.00    +0.000 A 
ATOM     12  C   UNL     1      -2.680  12.425  23.663  0.00  0.00    +0.000 A 
ATOM     13  C   UNL     1      -2.577  13.805  23.773  0.00  0.00    +0.000 A 
ATOM     14 CL   UNL     1      -3.369  14.624  25.062  0.00  0.00    +0.000 Cl
ATOM     15  C   UNL     1      -1.836  14.525  22.844  0.00  0.00    +0.000 A 
ATOM     16  C   UNL     1      -1.140  13.864  21.820  0.00  0.00    +0.000 A 
ATOM     17  N   UNL     1      -0.363  14.668  20.966  0.00  0.00    +0.000 N 
ATOM     18  H   UNL     1      -0.924  15.374  20.477  0.00  0.00    +0.000 HD
ENDROOT
BRANCH   7  19
ATOM     19  C   UNL     1       2.141   7.698  19.392  0.00  0.00    +0.000 A 
ATOM     20  C   UNL     1       2.793   7.994  18.187  0.00  0.00    +0.000 A 
ATOM     21  C   UNL     1       3.514   7.021  17.485  0.00  0.00    +0.000 A 
ATOM     22  C   UNL     1       3.598   5.725  17.974  0.00  0.00    +0.000 A 
ATOM     23  C   UNL     1       2.986   5.411  19.181  0.00  0.00    +0.000 A 
ATOM     24  C   UNL     1       2.277   6.389  19.889  0.00  0.00    +0.000 A 
ENDBRANCH   7  19
BRANCH   1  26
ATOM     25  O   UNL     1       2.131  14.778  18.428  0.00  0.00    +0.000 OA
ATOM     26  C   UNL     1       0.947  14.873  18.879  0.00  0.00    +0.000 C 
ATOM     27  OXT UNL     1       0.213  15.857  18.541  0.00  0.00    +0.000 OA
ENDBRANCH   1  26
TORSDOF 2
ENDMDL
MODEL 6
REMARK VINA RESULT:      -6.7      1.437      1.898
REMARK  Name = 
REMARK  2 active torsions:
REMARK  status: ('A' for Active; 'I' for Inactive)
REMARK    1  A    between atoms: C_2  and  CA_4
REMARK    2  A    between atoms: N_10  and  C_11
REMARK                            x       y       z     vdW  Elec       q    Type
REMARK                         _______ _______ _______ _____ _____    ______ ____
ROOT
ATOM      1  CA  UNL     1       0.537  14.024  20.087  0.00  0.00    +0.000 C 
ATOM      2  C   UNL     1      -0.198  12.839  19.470  0.00  0.00    +0.000 C 
ATOM      3  C   UNL     1      -0.492  11.852  20.597  0.00  0.00    +0.000 C 
ATOM      4  C   UNL     1      -0.027  10.579  20.635  0.00  0.00    +0.000 C 
ATOM      5  C   UNL     1      -0.086   9.598  21.767  0.00  0.00    +0.000 C 
ATOM      6  C   UNL     1       1.083   8.673  21.507  0.00  0.00    +0.000 C 
ATOM      7  N   UNL     1       1.315   8.732  20.086  0.00  0.00    +0.000 N 
ATOM      8  C   UNL     1       0.729   9.878  19.530  0.00  0.00    +0.000 C 
ATOM      9  O   UNL     1       0.724  10.241  18.368  0.00  0.00    +0.000 OA
ATOM     10  C   UNL     1      -1.234  12.528  21.716  0.00  0.00    +0.000 A 
ATOM     11  C   UNL     1      -2.087  11.834  22.594  0.00  0.00    +0.000 A 
ATOM     12  C   UNL     1      -2.751  12.491  23.635  0.00  0.00    +0.000 A 
ATOM     13  C   UNL     1      -2.627  13.866  23.775  0.00  0.00    +0.000 A 
ATOM     14 CL   UNL     1      -3.439  14.674  25.060  0.00  0.00    +0.000 Cl
ATOM     15  C   UNL     1      -1.852  14.591  22.880  0.00  0.00    +0.000 A 
ATOM     16  C   UNL     1      -1.141  13.937  21.860  0.00  0.00    +0.000 A 
ATOM     17  N   UNL     1      -0.330  14.744  21.042  0.00  0.00    +0.000 N 
ATOM     18  H   UNL     1      -0.866  15.469  20.553  0.00  0.00    +0.000 HD
ENDROOT
BRANCH   7  19
ATOM     19  C   UNL     1       2.097   7.763  19.395  0.00  0.00    +0.000 A 
ATOM     20  C   UNL     1       2.306   6.476  19.909  0.00  0.00    +0.000 A 
ATOM     21  C   UNL     1       3.120   5.547  19.249  0.00  0.00    +0.000 A 
ATOM     22  C   UNL     1       3.745   5.887  18.058  0.00  0.00    +0.000 A 
ATOM     23  C   UNL     1       3.532   7.146  17.511  0.00  0.00    +0.000 A 
ATOM     24  C   UNL     1       2.706   8.069  18.165  0.00  0.00    +0.000 A 
ENDBRANCH   7  19
BRANCH   1  26
ATOM     25  O   UNL     1       0.279  15.893  18.569  0.00  0.00    +0.000 OA
ATOM     26  C   UNL     1       1.037  14.967  18.993  0.00  0.00    +0.000 C 
ATOM     27  OXT UNL     1       2.121  14.700  18.381  0.00  0.00    +0.000 OA
ENDBRANCH   1  26
TORSDOF 2
ENDMDL
MODEL 7
REMARK VINA RESULT:      -6.7      1.353      1.915
REMARK  Name = 
REMARK  2 active torsions:
REMARK  status: ('A' for Active; 'I' for Inactive)
REMARK    1  A    between atoms: C_2  and  CA_4
REMARK    2  A    between atoms: N_10  and  C_11
REMARK                            x       y       z     vdW  Elec       q    Type
REMARK                         _______ _______ _______ _____ _____    ______ ____
ROOT
ATOM      1  CA  UNL     1       1.518  13.808  21.007  0.00  0.00    +0.000 C 
ATOM      2  C   UNL     1       0.747  12.889  20.066  0.00  0.00    +0.000 C 
ATOM      3  C   UNL     1       0.051  11.838  20.929  0.00  0.00    +0.000 C 
ATOM      4  C   UNL     1       0.275  10.504  20.833  0.00  0.00    +0.000 C 
ATOM      5  C   UNL     1      -0.196   9.412  21.745  0.00  0.00    +0.000 C 
ATOM      6  C   UNL     1       0.829   8.315  21.556  0.00  0.00    +0.000 C 
ATOM      7  N   UNL     1       1.373   8.516  20.237  0.00  0.00    +0.000 N 
ATOM      8  C   UNL     1       1.125   9.821  19.787  0.00  0.00    +0.000 C 
ATOM      9  O   UNL     1       1.436  10.331  18.726  0.00  0.00    +0.000 OA
ATOM     10  C   UNL     1      -0.793  12.493  21.987  0.00  0.00    +0.000 A 
ATOM     11  C   UNL     1      -1.921  11.873  22.552  0.00  0.00    +0.000 A 
ATOM     12  C   UNL     1      -2.678  12.503  23.547  0.00  0.00    +0.000 A 
ATOM     13  C   UNL     1      -2.357  13.794  23.944  0.00  0.00    +0.000 A 
ATOM     14 CL   UNL     1      -3.282  14.568  25.171  0.00  0.00    +0.000 Cl
ATOM     15  C   UNL     1      -1.293  14.462  23.351  0.00  0.00    +0.000 A 
ATOM     16  C   UNL     1      -0.497  13.822  22.388  0.00  0.00    +0.000 A 
ATOM     17  N   UNL     1       0.598  14.552  21.891  0.00  0.00    +0.000 N 
ATOM     18  H   UNL     1       0.312  15.429  21.442  0.00  0.00    +0.000 HD
ENDROOT
BRANCH   7  19
ATOM     19  C   UNL     1       2.112   7.512  19.549  0.00  0.00    +0.000 A 
ATOM     20  C   UNL     1       2.775   7.775  18.343  0.00  0.00    +0.000 A 
ATOM     21  C   UNL     1       3.454   6.769  17.645  0.00  0.00    +0.000 A 
ATOM     22  C   UNL     1       3.484   5.473  18.140  0.00  0.00    +0.000 A 
ATOM     23  C   UNL     1       2.860   5.191  19.349  0.00  0.00    +0.000 A 
ATOM     24  C   UNL     1       2.193   6.201  20.053  0.00  0.00    +0.000 A 
ENDBRANCH   7  19
BRANCH   1  26
ATOM     25  O   UNL     1       2.316  14.787  18.941  0.00  0.00    +0.000 OA
ATOM     26  C   UNL     1       2.398  14.769  20.208  0.00  0.00    +0.000 C 
ATOM     27  OXT UNL     1       3.336  15.397  20.796  0.00  0.00    +0.000 OA
ENDBRANCH   1  26
TORSDOF 2
ENDMDL
MODEL 8
REMARK VINA RESULT:      -6.5      4.189      8.361
REMARK  Name = 
REMARK  2 active torsions:
REMARK  status: ('A' for Active; 'I' for Inactive)
REMARK    1  A    between atoms: C_2  and  CA_4
REMARK    2  A    between atoms: N_10  and  C_11
REMARK                            x       y       z     vdW  Elec       q    Type
REMARK                         _______ _______ _______ _____ _____    ______ ____
ROOT
ATOM      1  CA  UNL     1       0.041  10.429  18.770  0.00  0.00    +0.000 C 
ATOM      2  C   UNL     1      -1.001  10.275  19.873  0.00  0.00    +0.000 C 
ATOM      3  C   UNL     1      -2.140  11.243  19.560  0.00  0.00    +0.000 C 
ATOM      4  C   UNL     1      -2.524  12.256  20.375  0.00  0.00    +0.000 C 
ATOM      5  C   UNL     1      -3.483  13.372  20.087  0.00  0.00    +0.000 C 
ATOM      6  C   UNL     1      -3.040  14.479  21.019  0.00  0.00    +0.000 C 
ATOM      7  N   UNL     1      -2.386  13.821  22.120  0.00  0.00    +0.000 N 
ATOM      8  C   UNL     1      -2.004  12.518  21.769  0.00  0.00    +0.000 C 
ATOM      9  O   UNL     1      -1.437  11.683  22.451  0.00  0.00    +0.000 OA
ATOM     10  C   UNL     1      -2.668  11.011  18.171  0.00  0.00    +0.000 A 
ATOM     11  C   UNL     1      -3.986  11.327  17.795  0.00  0.00    +0.000 A 
ATOM     12  C   UNL     1      -4.442  11.113  16.490  0.00  0.00    +0.000 A 
ATOM     13  C   UNL     1      -3.608  10.515  15.556  0.00  0.00    +0.000 A 
ATOM     14 CL   UNL     1      -4.165  10.257  13.949  0.00  0.00    +0.000 Cl
ATOM     15  C   UNL     1      -2.325  10.123  15.917  0.00  0.00    +0.000 A 
ATOM     16  C   UNL     1      -1.838  10.377  17.209  0.00  0.00    +0.000 A 
ATOM     17  N   UNL     1      -0.506  10.005  17.465  0.00  0.00    +0.000 N 
ATOM     18  H   UNL     1      -0.348   9.001  17.326  0.00  0.00    +0.000 HD
ENDROOT
BRANCH   7  19
ATOM     19  C   UNL     1      -2.128  14.471  23.360  0.00  0.00    +0.000 A 
ATOM     20  C   UNL     1      -1.002  15.284  23.552  0.00  0.00    +0.000 A 
ATOM     21  C   UNL     1      -0.728  15.876  24.791  0.00  0.00    +0.000 A 
ATOM     22  C   UNL     1      -1.576  15.666  25.868  0.00  0.00    +0.000 A 
ATOM     23  C   UNL     1      -2.715  14.889  25.699  0.00  0.00    +0.000 A 
ATOM     24  C   UNL     1      -2.995  14.309  24.456  0.00  0.00    +0.000 A 
ENDBRANCH   7  19
BRANCH   1  26
ATOM     25  O   UNL     1       2.108   9.312  18.189  0.00  0.00    +0.000 OA
ATOM     26  C   UNL     1       1.300   9.635  19.113  0.00  0.00    +0.000 C 
ATOM     27  OXT UNL     1       1.431   9.138  20.278  0.00  0.00    +0.000 OA
ENDBRANCH   1  26
TORSDOF 2
ENDMDL
MODEL 9
REMARK VINA RESULT:      -6.5      6.732      7.707
REMARK  Name = 
REMARK  2 active torsions:
REMARK  status: ('A' for Active; 'I' for Inactive)
REMARK    1  A    between atoms: C_2  and  CA_4
REMARK    2  A    between atoms: N_10  and  C_11
REMARK                            x       y       z     vdW  Elec       q    Type
REMARK                         _______ _______ _______ _____ _____    ______ ____
ROOT
ATOM      1  CA  UNL     1       4.398  15.096  21.962  0.00  0.00    +0.000 C 
ATOM      2  C   UNL     1       5.579  15.824  21.330  0.00  0.00    +0.000 C 
ATOM      3  C   UNL     1       5.481  15.622  19.819  0.00  0.00    +0.000 C 
ATOM      4  C   UNL     1       6.428  15.007  19.070  0.00  0.00    +0.000 C 
ATOM      5  C   UNL     1       6.351  14.583  17.634  0.00  0.00    +0.000 C 
ATOM      6  C   UNL     1       7.340  13.442  17.539  0.00  0.00    +0.000 C 
ATOM      7  N   UNL     1       8.299  13.671  18.590  0.00  0.00    +0.000 N 
ATOM      8  C   UNL     1       7.782  14.546  19.557  0.00  0.00    +0.000 C 
ATOM      9  O   UNL     1       8.316  14.958  20.571  0.00  0.00    +0.000 OA
ATOM     10  C   UNL     1       4.136  16.063  19.311  0.00  0.00    +0.000 A 
ATOM     11  C   UNL     1       3.928  16.503  17.992  0.00  0.00    +0.000 A 
ATOM     12  C   UNL     1       2.660  16.891  17.545  0.00  0.00    +0.000 A 
ATOM     13  C   UNL     1       1.591  16.911  18.431  0.00  0.00    +0.000 A 
ATOM     14 CL   UNL     1       0.031  17.382  17.881  0.00  0.00    +0.000 Cl
ATOM     15  C   UNL     1       1.781  16.553  19.759  0.00  0.00    +0.000 A 
ATOM     16  C   UNL     1       3.036  16.114  20.208  0.00  0.00    +0.000 A 
ATOM     17  N   UNL     1       3.119  15.710  21.552  0.00  0.00    +0.000 N 
ATOM     18  H   UNL     1       2.864  16.461  22.203  0.00  0.00    +0.000 HD
ENDROOT
BRANCH   7  19
ATOM     19  C   UNL     1       9.566  13.023  18.629  0.00  0.00    +0.000 A 
ATOM     20  C   UNL     1       9.961  12.231  19.716  0.00  0.00    +0.000 A 
ATOM     21  C   UNL     1      11.230  11.642  19.770  0.00  0.00    +0.000 A 
ATOM     22  C   UNL     1      12.134  11.833  18.736  0.00  0.00    +0.000 A 
ATOM     23  C   UNL     1      11.759  12.589  17.633  0.00  0.00    +0.000 A 
ATOM     24  C   UNL     1      10.484  13.166  17.573  0.00  0.00    +0.000 A 
ENDBRANCH   7  19
BRANCH   1  26
ATOM     25  O   UNL     1       4.945  14.040  24.071  0.00  0.00    +0.000 OA
ATOM     26  C   UNL     1       4.532  15.087  23.484  0.00  0.00    +0.000 C 
ATOM     27  OXT UNL     1       4.047  16.050  24.162  0.00  0.00    +0.000 OA
ENDBRANCH   1  26
TORSDOF 2
ENDMDL
