MODEL 1
REMARK VINA RESULT:      -9.4      0.000      0.000
REMARK  Name = 
REMARK  3 active torsions:
REMARK  status: ('A' for Active; 'I' for Inactive)
REMARK    1  A    between atoms: C_2  and  C_3
REMARK    2  A    between atoms: C_3  and  C_4
REMARK    3  A    between atoms: C_15  and  C_16
REMARK                            x       y       z     vdW  Elec       q    Type
REMARK                         _______ _______ _______ _____ _____    ______ ____
ROOT
ATOM      1  O   UNL     1       3.931   2.680  18.163  0.00  0.00    +0.000 OA
ATOM      2  C   UNL     1       4.066   3.900  17.999  0.00  0.00    +0.000 C 
ATOM      3  N   UNL     1       3.347   4.834  18.759  0.00  0.00    +0.000 N 
ATOM      4  C   UNL     1       2.424   4.234  19.751  0.00  0.00    +0.000 C 
ATOM      5  C   UNL     1       1.843   5.163  20.833  0.00  0.00    +0.000 C 
ATOM      6  C   UNL     1       1.779   6.560  20.386  0.00  0.00    +0.000 A 
ATOM      7  N   UNL     1       1.218   7.585  21.061  0.00  0.00    +0.000 NA
ATOM      8  C   UNL     1       1.334   8.645  20.269  0.00  0.00    +0.000 A 
ATOM      9  N   UNL     1       1.997   8.312  19.109  0.00  0.00    +0.000 N 
ATOM     10  C   UNL     1       2.306   6.981  19.177  0.00  0.00    +0.000 A 
ATOM     11  C   UNL     1       3.013   6.153  18.174  0.00  0.00    +0.000 C 
ATOM     12  H   UNL     1       2.168   8.952  18.344  0.00  0.00    +0.000 HD
ENDROOT
BRANCH   8  13
ATOM     13  C   UNL     1       0.801   9.950  20.457  0.00  0.00    +0.000 A 
ATOM     14  C   UNL     1       0.350  10.269  21.676  0.00  0.00    +0.000 A 
ATOM     15  C   UNL     1      -0.552  11.398  21.863  0.00  0.00    +0.000 A 
ATOM     16  C   UNL     1      -1.165  11.592  23.086  0.00  0.00    +0.000 A 
ATOM     17  C   UNL     1      -2.509  11.915  23.109  0.00  0.00    +0.000 A 
ATOM     18  C   UNL     1      -3.062  12.541  21.988  0.00  0.00    +0.000 A 
ATOM     19  C   UNL     1      -2.281  12.720  20.841  0.00  0.00    +0.000 A 
ATOM     20  C   UNL     1      -1.084  12.029  20.741  0.00  0.00    +0.000 A 
ATOM     21  N   UNL     1      -0.431  11.866  19.521  0.00  0.00    +0.000 N 
ATOM     22  C   UNL     1       0.535  10.900  19.312  0.00  0.00    +0.000 A 
ATOM     23  O   UNL     1       1.066  10.758  18.237  0.00  0.00    +0.000 OA
ATOM     24  H   UNL     1      -0.719  12.385  18.709  0.00  0.00    +0.000 HD
ENDBRANCH   8  13
BRANCH   2  25
ATOM     25  C   UNL     1       5.067   4.401  16.977  0.00  0.00    +0.000 C 
BRANCH  25  26
ATOM     26  C   UNL     1       6.120   5.301  17.564  0.00  0.00    +0.000 A 
ATOM     27  C   UNL     1       6.422   6.532  16.985  0.00  0.00    +0.000 A 
ATOM     28  C   UNL     1       7.435   7.310  17.542  0.00  0.00    +0.000 A 
ATOM     29  C   UNL     1       8.124   6.838  18.653  0.00  0.00    +0.000 A 
ATOM     30  C   UNL     1       7.764   5.604  19.166  0.00  0.00    +0.000 A 
ATOM     31  N   UNL     1       6.778   4.834  18.655  0.00  0.00    +0.000 NA
ENDBRANCH  25  26
ENDBRANCH   2  25
TORSDOF 3
ENDMDL
MODEL 2
REMARK VINA RESULT:      -9.2      2.243      9.207
REMARK  Name = 
REMARK  3 active torsions:
REMARK  status: ('A' for Active; 'I' for Inactive)
REMARK    1  A    between atoms: C_2  and  C_3
REMARK    2  A    between atoms: C_3  and  C_4
REMARK    3  A    between atoms: C_15  and  C_16
REMARK                            x       y       z     vdW  Elec       q    Type
REMARK                         _______ _______ _______ _____ _____    ______ ____
ROOT
ATOM      1  O   UNL     1      -0.631  12.546  20.874  0.00  0.00    +0.000 OA
ATOM      2  C   UNL     1      -0.386  11.825  19.898  0.00  0.00    +0.000 C 
ATOM      3  N   UNL     1       0.223  10.570  20.038  0.00  0.00    +0.000 N 
ATOM      4  C   UNL     1       0.547  10.199  21.436  0.00  0.00    +0.000 C 
ATOM      5  C   UNL     1       0.917   8.731  21.714  0.00  0.00    +0.000 C 
ATOM      6  C   UNL     1       1.486   8.070  20.534  0.00  0.00    +0.000 A 
ATOM      7  N   UNL     1       2.007   6.826  20.493  0.00  0.00    +0.000 NA
ATOM      8  C   UNL     1       2.453   6.662  19.252  0.00  0.00    +0.000 A 
ATOM      9  N   UNL     1       2.188   7.778  18.491  0.00  0.00    +0.000 N 
ATOM     10  C   UNL     1       1.550   8.685  19.293  0.00  0.00    +0.000 A 
ATOM     11  C   UNL     1       1.065  10.038  18.941  0.00  0.00    +0.000 C 
ATOM     12  H   UNL     1       2.469   7.893  17.526  0.00  0.00    +0.000 HD
ENDROOT
BRANCH   8  13
ATOM     13  C   UNL     1       3.193   5.572  18.717  0.00  0.00    +0.000 A 
ATOM     14  C   UNL     1       4.518   5.567  18.903  0.00  0.00    +0.000 A 
ATOM     15  C   UNL     1       5.383   4.736  18.075  0.00  0.00    +0.000 A 
ATOM     16  C   UNL     1       6.753   4.891  18.141  0.00  0.00    +0.000 A 
ATOM     17  C   UNL     1       7.475   4.912  16.962  0.00  0.00    +0.000 A 
ATOM     18  C   UNL     1       6.938   4.271  15.842  0.00  0.00    +0.000 A 
ATOM     19  C   UNL     1       5.649   3.730  15.907  0.00  0.00    +0.000 A 
ATOM     20  C   UNL     1       4.835   4.085  16.972  0.00  0.00    +0.000 A 
ATOM     21  N   UNL     1       3.456   3.891  16.936  0.00  0.00    +0.000 N 
ATOM     22  C   UNL     1       2.586   4.547  17.786  0.00  0.00    +0.000 A 
ATOM     23  O   UNL     1       1.392   4.386  17.717  0.00  0.00    +0.000 OA
ATOM     24  H   UNL     1       3.032   3.337  16.212  0.00  0.00    +0.000 HD
ENDBRANCH   8  13
BRANCH   2  25
ATOM     25  C   UNL     1      -0.795  12.291  18.515  0.00  0.00    +0.000 C 
BRANCH  25  26
ATOM     26  C   UNL     1      -2.155  11.804  18.098  0.00  0.00    +0.000 A 
ATOM     27  C   UNL     1      -2.346  11.152  16.880  0.00  0.00    +0.000 A 
ATOM     28  C   UNL     1      -3.634  10.759  16.521  0.00  0.00    +0.000 A 
ATOM     29  C   UNL     1      -4.694  11.031  17.376  0.00  0.00    +0.000 A 
ATOM     30  C   UNL     1      -4.420  11.685  18.565  0.00  0.00    +0.000 A 
ATOM     31  N   UNL     1      -3.181  12.067  18.947  0.00  0.00    +0.000 NA
ENDBRANCH  25  26
ENDBRANCH   2  25
TORSDOF 3
ENDMDL
MODEL 3
REMARK VINA RESULT:      -8.8      2.260      2.914
REMARK  Name = 
REMARK  3 active torsions:
REMARK  status: ('A' for Active; 'I' for Inactive)
REMARK    1  A    between atoms: C_2  and  C_3
REMARK    2  A    between atoms: C_3  and  C_4
REMARK    3  A    between atoms: C_15  and  C_16
REMARK                            x       y       z     vdW  Elec       q    Type
REMARK                         _______ _______ _______ _____ _____    ______ ____
ROOT
ATOM      1  O   UNL     1       3.263   3.925  19.559  0.00  0.00    +0.000 OA
ATOM      2  C   UNL     1       3.469   4.952  18.901  0.00  0.00    +0.000 C 
ATOM      3  N   UNL     1       2.839   6.167  19.206  0.00  0.00    +0.000 N 
ATOM      4  C   UNL     1       1.915   6.103  20.364  0.00  0.00    +0.000 C 
ATOM      5  C   UNL     1       1.433   7.437  20.962  0.00  0.00    +0.000 C 
ATOM      6  C   UNL     1       1.442   8.523  19.974  0.00  0.00    +0.000 A 
ATOM      7  N   UNL     1       0.972   9.773  20.163  0.00  0.00    +0.000 NA
ATOM      8  C   UNL     1       1.127  10.397  19.000  0.00  0.00    +0.000 A 
ATOM      9  N   UNL     1       1.726   9.565  18.082  0.00  0.00    +0.000 N 
ATOM     10  C   UNL     1       1.953   8.364  18.696  0.00  0.00    +0.000 A 
ATOM     11  C   UNL     1       2.569   7.145  18.126  0.00  0.00    +0.000 C 
ATOM     12  H   UNL     1       1.911   9.814  17.118  0.00  0.00    +0.000 HD
ENDROOT
BRANCH   8  13
ATOM     13  C   UNL     1       0.686  11.697  18.631  0.00  0.00    +0.000 A 
ATOM     14  C   UNL     1       1.598  12.675  18.586  0.00  0.00    +0.000 A 
ATOM     15  C   UNL     1       1.191  14.074  18.613  0.00  0.00    +0.000 A 
ATOM     16  C   UNL     1       2.142  15.064  18.769  0.00  0.00    +0.000 A 
ATOM     17  C   UNL     1       1.880  16.102  19.644  0.00  0.00    +0.000 A 
ATOM     18  C   UNL     1       0.547  16.420  19.919  0.00  0.00    +0.000 A 
ATOM     19  C   UNL     1      -0.476  15.619  19.400  0.00  0.00    +0.000 A 
ATOM     20  C   UNL     1      -0.143  14.382  18.869  0.00  0.00    +0.000 A 
ATOM     21  N   UNL     1      -1.101  13.392  18.662  0.00  0.00    +0.000 N 
ATOM     22  C   UNL     1      -0.775  12.059  18.494  0.00  0.00    +0.000 A 
ATOM     23  O   UNL     1      -1.624  11.214  18.347  0.00  0.00    +0.000 OA
ATOM     24  H   UNL     1      -2.082  13.600  18.734  0.00  0.00    +0.000 HD
ENDBRANCH   8  13
BRANCH   2  25
ATOM     25  C   UNL     1       4.464   4.910  17.758  0.00  0.00    +0.000 C 
BRANCH  25  26
ATOM     26  C   UNL     1       5.749   5.631  18.057  0.00  0.00    +0.000 A 
ATOM     27  C   UNL     1       6.191   6.682  17.254  0.00  0.00    +0.000 A 
ATOM     28  C   UNL     1       7.409   7.290  17.549  0.00  0.00    +0.000 A 
ATOM     29  C   UNL     1       8.157   6.831  18.626  0.00  0.00    +0.000 A 
ATOM     30  C   UNL     1       7.650   5.780  19.371  0.00  0.00    +0.000 A 
ATOM     31  N   UNL     1       6.465   5.180  19.117  0.00  0.00    +0.000 NA
ENDBRANCH  25  26
ENDBRANCH   2  25
TORSDOF 3
ENDMDL
MODEL 4
REMARK VINA RESULT:      -8.7      1.629      2.107
REMARK  Name = 
REMARK  3 active torsions:
REMARK  status: ('A' for Active; 'I' for Inactive)
REMARK    1  A    between atoms: C_2  and  C_3
REMARK    2  A    between atoms: C_3  and  C_4
REMARK    3  A    between atoms: C_15  and  C_16
REMARK                            x       y       z     vdW  Elec       q    Type
REMARK                         _______ _______ _______ _____ _____    ______ ____
ROOT
ATOM      1  O   UNL     1       4.255   2.500  17.904  0.00  0.00    +0.000 OA
ATOM      2  C   UNL     1       4.303   3.733  17.804  0.00  0.00    +0.000 C 
ATOM      3  N   UNL     1       3.520   4.573  18.610  0.00  0.00    +0.000 N 
ATOM      4  C   UNL     1       2.642   3.858  19.566  0.00  0.00    +0.000 C 
ATOM      5  C   UNL     1       1.997   4.686  20.692  0.00  0.00    +0.000 C 
ATOM      6  C   UNL     1       1.835   6.096  20.320  0.00  0.00    +0.000 A 
ATOM      7  N   UNL     1       1.203   7.042  21.046  0.00  0.00    +0.000 NA
ATOM      8  C   UNL     1       1.244   8.149  20.311  0.00  0.00    +0.000 A 
ATOM      9  N   UNL     1       1.929   7.925  19.138  0.00  0.00    +0.000 N 
ATOM     10  C   UNL     1       2.332   6.617  19.136  0.00  0.00    +0.000 A 
ATOM     11  C   UNL     1       3.095   5.895  18.094  0.00  0.00    +0.000 C 
ATOM     12  H   UNL     1       2.056   8.614  18.408  0.00  0.00    +0.000 HD
ENDROOT
BRANCH   8  13
ATOM     13  C   UNL     1       0.622   9.401  20.566  0.00  0.00    +0.000 A 
ATOM     14  C   UNL     1      -0.117   9.940  19.590  0.00  0.00    +0.000 A 
ATOM     15  C   UNL     1      -0.451  11.359  19.605  0.00  0.00    +0.000 A 
ATOM     16  C   UNL     1      -1.038  11.939  18.498  0.00  0.00    +0.000 A 
ATOM     17  C   UNL     1      -0.574  13.168  18.070  0.00  0.00    +0.000 A 
ATOM     18  C   UNL     1       0.047  14.005  19.000  0.00  0.00    +0.000 A 
ATOM     19  C   UNL     1       0.284  13.541  20.299  0.00  0.00    +0.000 A 
ATOM     20  C   UNL     1       0.158  12.183  20.549  0.00  0.00    +0.000 A 
ATOM     21  N   UNL     1       0.706  11.593  21.686  0.00  0.00    +0.000 N 
ATOM     22  C   UNL     1       0.925  10.233  21.792  0.00  0.00    +0.000 A 
ATOM     23  O   UNL     1       1.429   9.748  22.775  0.00  0.00    +0.000 OA
ATOM     24  H   UNL     1       1.061  12.157  22.439  0.00  0.00    +0.000 HD
ENDBRANCH   8  13
BRANCH   2  25
ATOM     25  C   UNL     1       5.267   4.357  16.815  0.00  0.00    +0.000 C 
BRANCH  25  26
ATOM     26  C   UNL     1       6.253   5.296  17.452  0.00  0.00    +0.000 A 
ATOM     27  C   UNL     1       6.524   6.546  16.895  0.00  0.00    +0.000 A 
ATOM     28  C   UNL     1       7.477   7.362  17.501  0.00  0.00    +0.000 A 
ATOM     29  C   UNL     1       8.139   6.911  18.635  0.00  0.00    +0.000 A 
ATOM     30  C   UNL     1       7.814   5.657  19.124  0.00  0.00    +0.000 A 
ATOM     31  N   UNL     1       6.885   4.849  18.566  0.00  0.00    +0.000 NA
ENDBRANCH  25  26
ENDBRANCH   2  25
TORSDOF 3
ENDMDL
MODEL 5
REMARK VINA RESULT:      -8.6      1.207      1.775
REMARK  Name = 
REMARK  3 active torsions:
REMARK  status: ('A' for Active; 'I' for Inactive)
REMARK    1  A    between atoms: C_2  and  C_3
REMARK    2  A    between atoms: C_3  and  C_4
REMARK    3  A    between atoms: C_15  and  C_16
REMARK                            x       y       z     vdW  Elec       q    Type
REMARK                         _______ _______ _______ _____ _____    ______ ____
ROOT
ATOM      1  O   UNL     1       4.485   2.683  18.976  0.00  0.00    +0.000 OA
ATOM      2  C   UNL     1       4.660   3.909  18.977  0.00  0.00    +0.000 C 
ATOM      3  N   UNL     1       3.693   4.796  19.471  0.00  0.00    +0.000 N 
ATOM      4  C   UNL     1       2.462   4.140  19.974  0.00  0.00    +0.000 C 
ATOM      5  C   UNL     1       1.496   4.994  20.815  0.00  0.00    +0.000 C 
ATOM      6  C   UNL     1       1.596   6.422  20.494  0.00  0.00    +0.000 A 
ATOM      7  N   UNL     1       0.806   7.403  20.978  0.00  0.00    +0.000 NA
ATOM      8  C   UNL     1       1.211   8.520  20.382  0.00  0.00    +0.000 A 
ATOM      9  N   UNL     1       2.276   8.265  19.550  0.00  0.00    +0.000 N 
ATOM     10  C   UNL     1       2.549   6.926  19.624  0.00  0.00    +0.000 A 
ATOM     11  C   UNL     1       3.599   6.164  18.911  0.00  0.00    +0.000 C 
ATOM     12  H   UNL     1       2.726   8.959  18.966  0.00  0.00    +0.000 HD
ENDROOT
BRANCH   8  13
ATOM     13  C   UNL     1       0.634   9.818  20.454  0.00  0.00    +0.000 A 
ATOM     14  C   UNL     1       0.280  10.277  21.661  0.00  0.00    +0.000 A 
ATOM     15  C   UNL     1      -0.657  11.385  21.790  0.00  0.00    +0.000 A 
ATOM     16  C   UNL     1      -1.164  11.715  23.031  0.00  0.00    +0.000 A 
ATOM     17  C   UNL     1      -2.515  11.987  23.143  0.00  0.00    +0.000 A 
ATOM     18  C   UNL     1      -3.198  12.439  22.012  0.00  0.00    +0.000 A 
ATOM     19  C   UNL     1      -2.536  12.496  20.780  0.00  0.00    +0.000 A 
ATOM     20  C   UNL     1      -1.319  11.843  20.654  0.00  0.00    +0.000 A 
ATOM     21  N   UNL     1      -0.774  11.546  19.406  0.00  0.00    +0.000 N 
ATOM     22  C   UNL     1       0.217  10.598  19.229  0.00  0.00    +0.000 A 
ATOM     23  O   UNL     1       0.653  10.337  18.135  0.00  0.00    +0.000 OA
ATOM     24  H   UNL     1      -1.160  11.942  18.567  0.00  0.00    +0.000 HD
ENDBRANCH   8  13
BRANCH   2  25
ATOM     25  C   UNL     1       5.975   4.467  18.470  0.00  0.00    +0.000 C 
BRANCH  25  26
ATOM     26  C   UNL     1       6.066   4.514  16.970  0.00  0.00    +0.000 A 
ATOM     27  C   UNL     1       4.977   4.172  16.169  0.00  0.00    +0.000 A 
ATOM     28  C   UNL     1       5.126   4.190  14.784  0.00  0.00    +0.000 A 
ATOM     29  C   UNL     1       6.353   4.538  14.235  0.00  0.00    +0.000 A 
ATOM     30  C   UNL     1       7.385   4.861  15.099  0.00  0.00    +0.000 A 
ATOM     31  N   UNL     1       7.267   4.865  16.445  0.00  0.00    +0.000 NA
ENDBRANCH  25  26
ENDBRANCH   2  25
TORSDOF 3
ENDMDL
MODEL 6
REMARK VINA RESULT:      -8.5      2.606      4.500
REMARK  Name = 
REMARK  3 active torsions:
REMARK  status: ('A' for Active; 'I' for Inactive)
REMARK    1  A    between atoms: C_2  and  C_3
REMARK    2  A    between atoms: C_3  and  C_4
REMARK    3  A    between atoms: C_15  and  C_16
REMARK                            x       y       z     vdW  Elec       q    Type
REMARK                         _______ _______ _______ _____ _____    ______ ____
ROOT
ATOM      1  O   UNL     1       3.063   6.780  18.110  0.00  0.00    +0.000 OA
ATOM      2  C   UNL     1       2.419   6.880  19.162  0.00  0.00    +0.000 C 
ATOM      3  N   UNL     1       1.690   8.035  19.479  0.00  0.00    +0.000 N 
ATOM      4  C   UNL     1       1.769   9.107  18.459  0.00  0.00    +0.000 C 
ATOM      5  C   UNL     1       0.761  10.266  18.566  0.00  0.00    +0.000 C 
ATOM      6  C   UNL     1       0.299  10.472  19.944  0.00  0.00    +0.000 A 
ATOM      7  N   UNL     1      -0.494  11.475  20.374  0.00  0.00    +0.000 NA
ATOM      8  C   UNL     1      -0.608  11.306  21.688  0.00  0.00    +0.000 A 
ATOM      9  N   UNL     1       0.076  10.183  22.092  0.00  0.00    +0.000 N 
ATOM     10  C   UNL     1       0.649   9.625  20.982  0.00  0.00    +0.000 A 
ATOM     11  C   UNL     1       1.490   8.409  20.899  0.00  0.00    +0.000 C 
ATOM     12  H   UNL     1       0.159   9.878  23.054  0.00  0.00    +0.000 HD
ENDROOT
BRANCH   8  13
ATOM     13  C   UNL     1      -1.241  12.158  22.635  0.00  0.00    +0.000 A 
ATOM     14  C   UNL     1      -2.388  11.737  23.182  0.00  0.00    +0.000 A 
ATOM     15  C   UNL     1      -3.290  12.678  23.833  0.00  0.00    +0.000 A 
ATOM     16  C   UNL     1      -4.553  12.268  24.212  0.00  0.00    +0.000 A 
ATOM     17  C   UNL     1      -5.626  13.101  23.952  0.00  0.00    +0.000 A 
ATOM     18  C   UNL     1      -5.388  14.472  23.828  0.00  0.00    +0.000 A 
ATOM     19  C   UNL     1      -4.074  14.952  23.856  0.00  0.00    +0.000 A 
ATOM     20  C   UNL     1      -3.036  14.043  23.721  0.00  0.00    +0.000 A 
ATOM     21  N   UNL     1      -1.746  14.449  23.384  0.00  0.00    +0.000 N 
ATOM     22  C   UNL     1      -0.793  13.579  22.886  0.00  0.00    +0.000 A 
ATOM     23  O   UNL     1       0.308  13.960  22.573  0.00  0.00    +0.000 OA
ATOM     24  H   UNL     1      -1.493  15.422  23.394  0.00  0.00    +0.000 HD
ENDBRANCH   8  13
BRANCH   2  25
ATOM     25  C   UNL     1       2.380   5.704  20.118  0.00  0.00    +0.000 C 
BRANCH  25  26
ATOM     26  C   UNL     1       2.618   4.380  19.446  0.00  0.00    +0.000 A 
ATOM     27  C   UNL     1       1.582   3.696  18.811  0.00  0.00    +0.000 A 
ATOM     28  C   UNL     1       1.846   2.452  18.240  0.00  0.00    +0.000 A 
ATOM     29  C   UNL     1       3.126   1.920  18.326  0.00  0.00    +0.000 A 
ATOM     30  C   UNL     1       4.097   2.661  18.976  0.00  0.00    +0.000 A 
ATOM     31  N   UNL     1       3.875   3.875  19.527  0.00  0.00    +0.000 NA
ENDBRANCH  25  26
ENDBRANCH   2  25
TORSDOF 3
ENDMDL
MODEL 7
REMARK VINA RESULT:      -8.5      1.594      2.374
REMARK  Name = 
REMARK  3 active torsions:
REMARK  status: ('A' for Active; 'I' for Inactive)
REMARK    1  A    between atoms: C_2  and  C_3
REMARK    2  A    between atoms: C_3  and  C_4
REMARK    3  A    between atoms: C_15  and  C_16
REMARK                            x       y       z     vdW  Elec       q    Type
REMARK                         _______ _______ _______ _____ _____    ______ ____
ROOT
ATOM      1  O   UNL     1       4.036   2.568  18.417  0.00  0.00    +0.000 OA
ATOM      2  C   UNL     1       4.150   3.776  18.171  0.00  0.00    +0.000 C 
ATOM      3  N   UNL     1       3.412   4.747  18.862  0.00  0.00    +0.000 N 
ATOM      4  C   UNL     1       2.494   4.201  19.889  0.00  0.00    +0.000 C 
ATOM      5  C   UNL     1       1.891   5.192  20.901  0.00  0.00    +0.000 C 
ATOM      6  C   UNL     1       1.806   6.553  20.361  0.00  0.00    +0.000 A 
ATOM      7  N   UNL     1       1.224   7.612  20.961  0.00  0.00    +0.000 NA
ATOM      8  C   UNL     1       1.327   8.618  20.099  0.00  0.00    +0.000 A 
ATOM      9  N   UNL     1       2.003   8.218  18.968  0.00  0.00    +0.000 N 
ATOM     10  C   UNL     1       2.334   6.900  19.127  0.00  0.00    +0.000 A 
ATOM     11  C   UNL     1       3.060   6.018  18.187  0.00  0.00    +0.000 C 
ATOM     12  H   UNL     1       2.168   8.807  18.161  0.00  0.00    +0.000 HD
ENDROOT
BRANCH   8  13
ATOM     13  C   UNL     1       0.773   9.924  20.196  0.00  0.00    +0.000 A 
ATOM     14  C   UNL     1       1.084  10.806  19.239  0.00  0.00    +0.000 A 
ATOM     15  C   UNL     1       0.901  12.235  19.456  0.00  0.00    +0.000 A 
ATOM     16  C   UNL     1       1.411  13.139  18.545  0.00  0.00    +0.000 A 
ATOM     17  C   UNL     1       2.069  14.258  19.021  0.00  0.00    +0.000 A 
ATOM     18  C   UNL     1       1.757  14.720  20.302  0.00  0.00    +0.000 A 
ATOM     19  C   UNL     1       0.882  13.983  21.108  0.00  0.00    +0.000 A 
ATOM     20  C   UNL     1       0.571  12.685  20.732  0.00  0.00    +0.000 A 
ATOM     21  N   UNL     1       0.013  11.777  21.630  0.00  0.00    +0.000 N 
ATOM     22  C   UNL     1       0.031  10.411  21.420  0.00  0.00    +0.000 A 
ATOM     23  O   UNL     1      -0.432   9.641  22.226  0.00  0.00    +0.000 OA
ATOM     24  H   UNL     1      -0.335  12.081  22.522  0.00  0.00    +0.000 HD
ENDBRANCH   8  13
BRANCH   2  25
ATOM     25  C   UNL     1       5.149   4.224  17.122  0.00  0.00    +0.000 C 
BRANCH  25  26
ATOM     26  C   UNL     1       6.170   5.195  17.646  0.00  0.00    +0.000 A 
ATOM     27  C   UNL     1       6.519   6.336  16.924  0.00  0.00    +0.000 A 
ATOM     28  C   UNL     1       7.502   7.182  17.433  0.00  0.00    +0.000 A 
ATOM     29  C   UNL     1       8.115   6.868  18.638  0.00  0.00    +0.000 A 
ATOM     30  C   UNL     1       7.714   5.715  19.292  0.00  0.00    +0.000 A 
ATOM     31  N   UNL     1       6.755   4.882  18.830  0.00  0.00    +0.000 NA
ENDBRANCH  25  26
ENDBRANCH   2  25
TORSDOF 3
ENDMDL
MODEL 8
REMARK VINA RESULT:      -8.5      2.377      8.868
REMARK  Name = 
REMARK  3 active torsions:
REMARK  status: ('A' for Active; 'I' for Inactive)
REMARK    1  A    between atoms: C_2  and  C_3
REMARK    2  A    between atoms: C_3  and  C_4
REMARK    3  A    between atoms: C_15  and  C_16
REMARK                            x       y       z     vdW  Elec       q    Type
REMARK                         _______ _______ _______ _____ _____    ______ ____
ROOT
ATOM      1  O   UNL     1      -0.523  12.527  21.319  0.00  0.00    +0.000 OA
ATOM      2  C   UNL     1      -0.202  11.902  20.300  0.00  0.00    +0.000 C 
ATOM      3  N   UNL     1       0.311  10.598  20.361  0.00  0.00    +0.000 N 
ATOM      4  C   UNL     1       0.438  10.055  21.734  0.00  0.00    +0.000 C 
ATOM      5  C   UNL     1       0.684   8.542  21.880  0.00  0.00    +0.000 C 
ATOM      6  C   UNL     1       1.354   7.975  20.704  0.00  0.00    +0.000 A 
ATOM      7  N   UNL     1       1.802   6.708  20.579  0.00  0.00    +0.000 NA
ATOM      8  C   UNL     1       2.387   6.648  19.387  0.00  0.00    +0.000 A 
ATOM      9  N   UNL     1       2.283   7.857  18.736  0.00  0.00    +0.000 N 
ATOM     10  C   UNL     1       1.606   8.714  19.560  0.00  0.00    +0.000 A 
ATOM     11  C   UNL     1       1.248  10.129  19.314  0.00  0.00    +0.000 C 
ATOM     12  H   UNL     1       2.687   8.056  17.829  0.00  0.00    +0.000 HD
ENDROOT
BRANCH   8  13
ATOM     13  C   UNL     1       3.122   5.572  18.817  0.00  0.00    +0.000 A 
ATOM     14  C   UNL     1       4.440   5.528  19.044  0.00  0.00    +0.000 A 
ATOM     15  C   UNL     1       5.314   4.724  18.200  0.00  0.00    +0.000 A 
ATOM     16  C   UNL     1       6.684   4.844  18.318  0.00  0.00    +0.000 A 
ATOM     17  C   UNL     1       7.445   4.912  17.166  0.00  0.00    +0.000 A 
ATOM     18  C   UNL     1       6.932   4.346  15.996  0.00  0.00    +0.000 A 
ATOM     19  C   UNL     1       5.631   3.830  15.990  0.00  0.00    +0.000 A 
ATOM     20  C   UNL     1       4.790   4.146  17.047  0.00  0.00    +0.000 A 
ATOM     21  N   UNL     1       3.409   3.984  16.957  0.00  0.00    +0.000 N 
ATOM     22  C   UNL     1       2.524   4.613  17.813  0.00  0.00    +0.000 A 
ATOM     23  O   UNL     1       1.331   4.482  17.697  0.00  0.00    +0.000 OA
ATOM     24  H   UNL     1       2.998   3.480  16.190  0.00  0.00    +0.000 HD
ENDBRANCH   8  13
BRANCH   2  25
ATOM     25  C   UNL     1      -0.410  12.544  18.943  0.00  0.00    +0.000 C 
BRANCH  25  26
ATOM     26  C   UNL     1       0.409  13.789  18.739  0.00  0.00    +0.000 A 
ATOM     27  C   UNL     1       1.780  13.719  18.494  0.00  0.00    +0.000 A 
ATOM     28  C   UNL     1       2.501  14.903  18.355  0.00  0.00    +0.000 A 
ATOM     29  C   UNL     1       1.843  16.120  18.472  0.00  0.00    +0.000 A 
ATOM     30  C   UNL     1       0.481  16.103  18.718  0.00  0.00    +0.000 A 
ATOM     31  N   UNL     1      -0.248  14.972  18.845  0.00  0.00    +0.000 NA
ENDBRANCH  25  26
ENDBRANCH   2  25
TORSDOF 3
ENDMDL
MODEL 9
REMARK VINA RESULT:      -8.4      2.154      2.801
REMARK  Name = 
REMARK  3 active torsions:
REMARK  status: ('A' for Active; 'I' for Inactive)
REMARK    1  A    between atoms: C_2  and  C_3
REMARK    2  A    between atoms: C_3  and  C_4
REMARK    3  A    between atoms: C_15  and  C_16
REMARK                            x       y       z     vdW  Elec       q    Type
REMARK                         _______ _______ _______ _____ _____    ______ ____
ROOT
ATOM      1  O   UNL     1       5.696   3.970  17.492  0.00  0.00    +0.000 OA
ATOM      2  C   UNL     1       5.524   5.174  17.263  0.00  0.00    +0.000 C 
ATOM      3  N   UNL     1       4.534   5.919  17.919  0.00  0.00    +0.000 N 
ATOM      4  C   UNL     1       3.725   5.143  18.888  0.00  0.00    +0.000 C 
ATOM      5  C   UNL     1       2.844   5.933  19.873  0.00  0.00    +0.000 C 
ATOM      6  C   UNL     1       2.457   7.244  19.340  0.00  0.00    +0.000 A 
ATOM      7  N   UNL     1       1.602   8.115  19.915  0.00  0.00    +0.000 NA
ATOM      8  C   UNL     1       1.500   9.134  19.068  0.00  0.00    +0.000 A 
ATOM      9  N   UNL     1       2.312   8.937  17.975  0.00  0.00    +0.000 N 
ATOM     10  C   UNL     1       2.948   7.737  18.141  0.00  0.00    +0.000 A 
ATOM     11  C   UNL     1       3.917   7.080  17.236  0.00  0.00    +0.000 C 
ATOM     12  H   UNL     1       2.370   9.566  17.184  0.00  0.00    +0.000 HD
ENDROOT
BRANCH   8  13
ATOM     13  C   UNL     1       0.637  10.262  19.144  0.00  0.00    +0.000 A 
ATOM     14  C   UNL     1       0.910  11.194  20.065  0.00  0.00    +0.000 A 
ATOM     15  C   UNL     1      -0.109  12.150  20.479  0.00  0.00    +0.000 A 
ATOM     16  C   UNL     1       0.121  12.971  21.566  0.00  0.00    +0.000 A 
ATOM     17  C   UNL     1      -0.892  13.146  22.490  0.00  0.00    +0.000 A 
ATOM     18  C   UNL     1      -2.212  12.962  22.072  0.00  0.00    +0.000 A 
ATOM     19  C   UNL     1      -2.470  12.499  20.777  0.00  0.00    +0.000 A 
ATOM     20  C   UNL     1      -1.419  11.971  20.043  0.00  0.00    +0.000 A 
ATOM     21  N   UNL     1      -1.637  11.179  18.917  0.00  0.00    +0.000 N 
ATOM     22  C   UNL     1      -0.669  10.347  18.387  0.00  0.00    +0.000 A 
ATOM     23  O   UNL     1      -0.890   9.648  17.429  0.00  0.00    +0.000 OA
ATOM     24  H   UNL     1      -2.553  11.107  18.507  0.00  0.00    +0.000 HD
ENDBRANCH   8  13
BRANCH   2  25
ATOM     25  C   UNL     1       6.437   5.876  16.277  0.00  0.00    +0.000 C 
BRANCH  25  26
ATOM     26  C   UNL     1       6.501   5.199  14.936  0.00  0.00    +0.000 A 
ATOM     27  C   UNL     1       5.521   4.290  14.538  0.00  0.00    +0.000 A 
ATOM     28  C   UNL     1       5.649   3.658  13.303  0.00  0.00    +0.000 A 
ATOM     29  C   UNL     1       6.749   3.940  12.504  0.00  0.00    +0.000 A 
ATOM     30  C   UNL     1       7.678   4.853  12.972  0.00  0.00    +0.000 A 
ATOM     31  N   UNL     1       7.575   5.491  14.159  0.00  0.00    +0.000 NA
ENDBRANCH  25  26
ENDBRANCH   2  25
TORSDOF 3
ENDMDL
