MODEL 1
REMARK VINA RESULT:      -6.9      0.000      0.000
REMARK  Name = 
REMARK  4 active torsions:
REMARK  status: ('A' for Active; 'I' for Inactive)
REMARK    1  A    between atoms: C_2  and  C_3
REMARK    2  A    between atoms: C_3  and  N_4
REMARK    3  A    between atoms: C_6  and  C_7
REMARK    4  A    between atoms: C_10  and  C_11
REMARK                            x       y       z     vdW  Elec       q    Type
REMARK                         _______ _______ _______ _____ _____    ______ ____
ROOT
ATOM      1  N   UNL     1       6.352   4.125  14.228  0.00  0.00    +0.000 N 
ATOM      2  N   UNL     1       5.324   3.707  15.047  0.00  0.00    +0.000 NA
ATOM      3  C   UNL     1       5.086   4.390  16.125  0.00  0.00    +0.000 A 
ATOM      4  C   UNL     1       5.844   5.593  16.526  0.00  0.00    +0.000 A 
ATOM      5  C   UNL     1       6.862   5.951  15.741  0.00  0.00    +0.000 A 
ATOM      6  C   UNL     1       7.190   5.190  14.517  0.00  0.00    +0.000 A 
ATOM      7  O   UNL     1       8.153   5.543  13.842  0.00  0.00    +0.000 OA
ENDROOT
BRANCH   3   8
ATOM      8  C   UNL     1       3.979   3.943  17.017  0.00  0.00    +0.000 A 
ATOM      9  C   UNL     1       3.853   2.573  17.283  0.00  0.00    +0.000 A 
ATOM     10  C   UNL     1       2.757   2.091  18.001  0.00  0.00    +0.000 A 
ATOM     11  C   UNL     1       1.769   2.970  18.453  0.00  0.00    +0.000 A 
ATOM     12  C   UNL     1       0.528   2.454  19.120  0.00  0.00    +0.000 C 
ATOM     13  C   UNL     1       1.924   4.345  18.232  0.00  0.00    +0.000 A 
ATOM     14  C   UNL     1       3.020   4.832  17.514  0.00  0.00    +0.000 A 
ENDBRANCH   3   8
BRANCH   1  15
ATOM     15  C   UNL     1       6.494   3.430  12.954  0.00  0.00    +0.000 C 
BRANCH  15  17
ATOM     16  C   UNL     1       4.188   3.410  11.595  0.00  0.00    +0.000 C 
ATOM     17  C   UNL     1       5.221   3.425  12.209  0.00  0.00    +0.000 C 
ENDBRANCH  15  17
ENDBRANCH   1  15
TORSDOF 3
ENDMDL
MODEL 2
REMARK VINA RESULT:      -6.8      1.635      3.582
REMARK  Name = 
REMARK  4 active torsions:
REMARK  status: ('A' for Active; 'I' for Inactive)
REMARK    1  A    between atoms: C_2  and  C_3
REMARK    2  A    between atoms: C_3  and  N_4
REMARK    3  A    between atoms: C_6  and  C_7
REMARK    4  A    between atoms: C_10  and  C_11
REMARK                            x       y       z     vdW  Elec       q    Type
REMARK                         _______ _______ _______ _____ _____    ______ ____
ROOT
ATOM      1  N   UNL     1       6.639   5.676  16.407  0.00  0.00    +0.000 N 
ATOM      2  N   UNL     1       5.535   5.216  17.095  0.00  0.00    +0.000 NA
ATOM      3  C   UNL     1       4.851   4.244  16.574  0.00  0.00    +0.000 A 
ATOM      4  C   UNL     1       5.186   3.593  15.290  0.00  0.00    +0.000 A 
ATOM      5  C   UNL     1       6.231   4.085  14.622  0.00  0.00    +0.000 A 
ATOM      6  C   UNL     1       7.024   5.210  15.160  0.00  0.00    +0.000 A 
ATOM      7  O   UNL     1       7.961   5.645  14.496  0.00  0.00    +0.000 OA
ENDROOT
BRANCH   3   8
ATOM      8  C   UNL     1       3.657   3.743  17.310  0.00  0.00    +0.000 A 
ATOM      9  C   UNL     1       2.643   4.657  17.629  0.00  0.00    +0.000 A 
ATOM     10  C   UNL     1       1.569   4.267  18.431  0.00  0.00    +0.000 A 
ATOM     11  C   UNL     1       1.500   2.965  18.934  0.00  0.00    +0.000 A 
ATOM     12  C   UNL     1       0.417   2.567  19.893  0.00  0.00    +0.000 C 
ATOM     13  C   UNL     1       2.486   2.039  18.570  0.00  0.00    +0.000 A 
ATOM     14  C   UNL     1       3.564   2.424  17.766  0.00  0.00    +0.000 A 
ENDBRANCH   3   8
BRANCH   1  15
ATOM     15  C   UNL     1       7.469   6.661  17.090  0.00  0.00    +0.000 C 
BRANCH  15  17
ATOM     16  C   UNL     1       8.000   5.883  19.596  0.00  0.00    +0.000 C 
ATOM     17  C   UNL     1       7.769   6.235  18.470  0.00  0.00    +0.000 C 
ENDBRANCH  15  17
ENDBRANCH   1  15
TORSDOF 3
ENDMDL
MODEL 3
REMARK VINA RESULT:      -6.7      2.544      4.166
REMARK  Name = 
REMARK  4 active torsions:
REMARK  status: ('A' for Active; 'I' for Inactive)
REMARK    1  A    between atoms: C_2  and  C_3
REMARK    2  A    between atoms: C_3  and  N_4
REMARK    3  A    between atoms: C_6  and  C_7
REMARK    4  A    between atoms: C_10  and  C_11
REMARK                            x       y       z     vdW  Elec       q    Type
REMARK                         _______ _______ _______ _____ _____    ______ ____
ROOT
ATOM      1  N   UNL     1       6.870   5.788  17.758  0.00  0.00    +0.000 N 
ATOM      2  N   UNL     1       5.879   5.322  18.596  0.00  0.00    +0.000 NA
ATOM      3  C   UNL     1       4.952   4.568  18.087  0.00  0.00    +0.000 A 
ATOM      4  C   UNL     1       4.897   4.174  16.664  0.00  0.00    +0.000 A 
ATOM      5  C   UNL     1       5.842   4.674  15.864  0.00  0.00    +0.000 A 
ATOM      6  C   UNL     1       6.902   5.558  16.392  0.00  0.00    +0.000 A 
ATOM      7  O   UNL     1       7.733   6.016  15.612  0.00  0.00    +0.000 OA
ENDROOT
BRANCH   3   8
ATOM      8  C   UNL     1       3.876   4.062  18.985  0.00  0.00    +0.000 A 
ATOM      9  C   UNL     1       3.270   4.966  19.868  0.00  0.00    +0.000 A 
ATOM     10  C   UNL     1       2.354   4.515  20.819  0.00  0.00    +0.000 A 
ATOM     11  C   UNL     1       2.041   3.155  20.908  0.00  0.00    +0.000 A 
ATOM     12  C   UNL     1       1.151   2.641  22.002  0.00  0.00    +0.000 C 
ATOM     13  C   UNL     1       2.607   2.262  19.990  0.00  0.00    +0.000 A 
ATOM     14  C   UNL     1       3.525   2.709  19.034  0.00  0.00    +0.000 A 
ENDBRANCH   3   8
BRANCH   1  15
ATOM     15  C   UNL     1       7.974   6.502  18.389  0.00  0.00    +0.000 C 
BRANCH  15  17
ATOM     16  C   UNL     1       7.946   9.098  17.732  0.00  0.00    +0.000 C 
ATOM     17  C   UNL     1       7.959   7.930  18.019  0.00  0.00    +0.000 C 
ENDBRANCH  15  17
ENDBRANCH   1  15
TORSDOF 3
ENDMDL
MODEL 4
REMARK VINA RESULT:      -6.7      3.580      6.624
REMARK  Name = 
REMARK  4 active torsions:
REMARK  status: ('A' for Active; 'I' for Inactive)
REMARK    1  A    between atoms: C_2  and  C_3
REMARK    2  A    between atoms: C_3  and  N_4
REMARK    3  A    between atoms: C_6  and  C_7
REMARK    4  A    between atoms: C_10  and  C_11
REMARK                            x       y       z     vdW  Elec       q    Type
REMARK                         _______ _______ _______ _____ _____    ______ ____
ROOT
ATOM      1  N   UNL     1       4.377   2.923  19.225  0.00  0.00    +0.000 N 
ATOM      2  N   UNL     1       5.251   3.989  19.165  0.00  0.00    +0.000 NA
ATOM      3  C   UNL     1       5.333   4.650  18.051  0.00  0.00    +0.000 A 
ATOM      4  C   UNL     1       4.544   4.335  16.843  0.00  0.00    +0.000 A 
ATOM      5  C   UNL     1       3.739   3.272  16.911  0.00  0.00    +0.000 A 
ATOM      6  C   UNL     1       3.631   2.471  18.148  0.00  0.00    +0.000 A 
ATOM      7  O   UNL     1       2.898   1.486  18.154  0.00  0.00    +0.000 OA
ENDROOT
BRANCH   3   8
ATOM      8  C   UNL     1       6.276   5.801  17.978  0.00  0.00    +0.000 A 
ATOM      9  C   UNL     1       7.397   5.796  18.820  0.00  0.00    +0.000 A 
ATOM     10  C   UNL     1       8.236   6.909  18.885  0.00  0.00    +0.000 A 
ATOM     11  C   UNL     1       7.960   8.046  18.119  0.00  0.00    +0.000 A 
ATOM     12  C   UNL     1       8.783   9.291  18.268  0.00  0.00    +0.000 C 
ATOM     13  C   UNL     1       6.871   8.029  17.238  0.00  0.00    +0.000 A 
ATOM     14  C   UNL     1       6.027   6.915  17.169  0.00  0.00    +0.000 A 
ENDBRANCH   3   8
BRANCH   1  15
ATOM     15  C   UNL     1       4.197   2.300  20.531  0.00  0.00    +0.000 C 
BRANCH  15  17
ATOM     16  C   UNL     1       1.870   3.035  21.633  0.00  0.00    +0.000 C 
ATOM     17  C   UNL     1       2.911   2.699  21.134  0.00  0.00    +0.000 C 
ENDBRANCH  15  17
ENDBRANCH   1  15
TORSDOF 3
ENDMDL
MODEL 5
REMARK VINA RESULT:      -6.7      0.874      1.095
REMARK  Name = 
REMARK  4 active torsions:
REMARK  status: ('A' for Active; 'I' for Inactive)
REMARK    1  A    between atoms: C_2  and  C_3
REMARK    2  A    between atoms: C_3  and  N_4
REMARK    3  A    between atoms: C_6  and  C_7
REMARK    4  A    between atoms: C_10  and  C_11
REMARK                            x       y       z     vdW  Elec       q    Type
REMARK                         _______ _______ _______ _____ _____    ______ ____
ROOT
ATOM      1  N   UNL     1       6.319   4.016  14.487  0.00  0.00    +0.000 N 
ATOM      2  N   UNL     1       5.381   3.554  15.386  0.00  0.00    +0.000 NA
ATOM      3  C   UNL     1       5.141   4.270  16.442  0.00  0.00    +0.000 A 
ATOM      4  C   UNL     1       5.808   5.554  16.738  0.00  0.00    +0.000 A 
ATOM      5  C   UNL     1       6.744   5.958  15.877  0.00  0.00    +0.000 A 
ATOM      6  C   UNL     1       7.071   5.165  14.674  0.00  0.00    +0.000 A 
ATOM      7  O   UNL     1       7.959   5.564  13.925  0.00  0.00    +0.000 OA
ENDROOT
BRANCH   3   8
ATOM      8  C   UNL     1       4.131   3.776  17.419  0.00  0.00    +0.000 A 
ATOM      9  C   UNL     1       2.786   3.747  17.026  0.00  0.00    +0.000 A 
ATOM     10  C   UNL     1       1.789   3.420  17.946  0.00  0.00    +0.000 A 
ATOM     11  C   UNL     1       2.121   3.129  19.273  0.00  0.00    +0.000 A 
ATOM     12  C   UNL     1       1.053   2.894  20.299  0.00  0.00    +0.000 C 
ATOM     13  C   UNL     1       3.470   3.106  19.650  0.00  0.00    +0.000 A 
ATOM     14  C   UNL     1       4.473   3.432  18.732  0.00  0.00    +0.000 A 
ENDBRANCH   3   8
BRANCH   1  15
ATOM     15  C   UNL     1       6.453   3.269  13.242  0.00  0.00    +0.000 C 
BRANCH  15  17
ATOM     16  C   UNL     1       4.274   3.539  11.709  0.00  0.00    +0.000 C 
ATOM     17  C   UNL     1       5.252   3.425  12.399  0.00  0.00    +0.000 C 
ENDBRANCH  15  17
ENDBRANCH   1  15
TORSDOF 3
ENDMDL
MODEL 6
REMARK VINA RESULT:      -6.7      0.730      1.297
REMARK  Name = 
REMARK  4 active torsions:
REMARK  status: ('A' for Active; 'I' for Inactive)
REMARK    1  A    between atoms: C_2  and  C_3
REMARK    2  A    between atoms: C_3  and  N_4
REMARK    3  A    between atoms: C_6  and  C_7
REMARK    4  A    between atoms: C_10  and  C_11
REMARK                            x       y       z     vdW  Elec       q    Type
REMARK                         _______ _______ _______ _____ _____    ______ ____
ROOT
ATOM      1  N   UNL     1       6.182   4.212  14.663  0.00  0.00    +0.000 N 
ATOM      2  N   UNL     1       5.106   3.888  15.462  0.00  0.00    +0.000 NA
ATOM      3  C   UNL     1       4.791   4.700  16.424  0.00  0.00    +0.000 A 
ATOM      4  C   UNL     1       5.513   5.956  16.713  0.00  0.00    +0.000 A 
ATOM      5  C   UNL     1       6.579   6.226  15.956  0.00  0.00    +0.000 A 
ATOM      6  C   UNL     1       6.993   5.318  14.866  0.00  0.00    +0.000 A 
ATOM      7  O   UNL     1       7.996   5.594  14.214  0.00  0.00    +0.000 OA
ENDROOT
BRANCH   3   8
ATOM      8  C   UNL     1       3.631   4.356  17.292  0.00  0.00    +0.000 A 
ATOM      9  C   UNL     1       3.304   5.228  18.340  0.00  0.00    +0.000 A 
ATOM     10  C   UNL     1       2.312   4.885  19.260  0.00  0.00    +0.000 A 
ATOM     11  C   UNL     1       1.644   3.661  19.153  0.00  0.00    +0.000 A 
ATOM     12  C   UNL     1       0.663   3.227  20.202  0.00  0.00    +0.000 C 
ATOM     13  C   UNL     1       1.935   2.816  18.075  0.00  0.00    +0.000 A 
ATOM     14  C   UNL     1       2.927   3.155  17.150  0.00  0.00    +0.000 A 
ENDBRANCH   3   8
BRANCH   1  15
ATOM     15  C   UNL     1       6.413   3.360  13.503  0.00  0.00    +0.000 C 
BRANCH  15  17
ATOM     16  C   UNL     1       4.387   3.558  11.763  0.00  0.00    +0.000 C 
ATOM     17  C   UNL     1       5.299   3.462  12.541  0.00  0.00    +0.000 C 
ENDBRANCH  15  17
ENDBRANCH   1  15
TORSDOF 3
ENDMDL
MODEL 7
REMARK VINA RESULT:      -6.6      3.538      5.376
REMARK  Name = 
REMARK  4 active torsions:
REMARK  status: ('A' for Active; 'I' for Inactive)
REMARK    1  A    between atoms: C_2  and  C_3
REMARK    2  A    between atoms: C_3  and  N_4
REMARK    3  A    between atoms: C_6  and  C_7
REMARK    4  A    between atoms: C_10  and  C_11
REMARK                            x       y       z     vdW  Elec       q    Type
REMARK                         _______ _______ _______ _____ _____    ______ ____
ROOT
ATOM      1  N   UNL     1       5.278   5.627  16.984  0.00  0.00    +0.000 N 
ATOM      2  N   UNL     1       4.492   6.581  17.594  0.00  0.00    +0.000 NA
ATOM      3  C   UNL     1       3.298   6.239  17.973  0.00  0.00    +0.000 A 
ATOM      4  C   UNL     1       2.731   4.887  17.796  0.00  0.00    +0.000 A 
ATOM      5  C   UNL     1       3.494   3.993  17.163  0.00  0.00    +0.000 A 
ATOM      6  C   UNL     1       4.849   4.342  16.689  0.00  0.00    +0.000 A 
ATOM      7  O   UNL     1       5.503   3.494  16.088  0.00  0.00    +0.000 OA
ENDROOT
BRANCH   3   8
ATOM      8  C   UNL     1       2.441   7.266  18.630  0.00  0.00    +0.000 A 
ATOM      9  C   UNL     1       2.037   8.375  17.874  0.00  0.00    +0.000 A 
ATOM     10  C   UNL     1       1.347   9.427  18.479  0.00  0.00    +0.000 A 
ATOM     11  C   UNL     1       1.063   9.390  19.848  0.00  0.00    +0.000 A 
ATOM     12  C   UNL     1       0.431  10.565  20.534  0.00  0.00    +0.000 C 
ATOM     13  C   UNL     1       1.421   8.257  20.589  0.00  0.00    +0.000 A 
ATOM     14  C   UNL     1       2.111   7.200  19.988  0.00  0.00    +0.000 A 
ENDBRANCH   3   8
BRANCH   1  15
ATOM     15  C   UNL     1       6.661   5.999  16.711  0.00  0.00    +0.000 C 
BRANCH  15  17
ATOM     16  C   UNL     1       8.048   6.314  18.980  0.00  0.00    +0.000 C 
ATOM     17  C   UNL     1       7.419   6.176  17.964  0.00  0.00    +0.000 C 
ENDBRANCH  15  17
ENDBRANCH   1  15
TORSDOF 3
ENDMDL
MODEL 8
REMARK VINA RESULT:      -6.6      3.870      5.746
REMARK  Name = 
REMARK  4 active torsions:
REMARK  status: ('A' for Active; 'I' for Inactive)
REMARK    1  A    between atoms: C_2  and  C_3
REMARK    2  A    between atoms: C_3  and  N_4
REMARK    3  A    between atoms: C_6  and  C_7
REMARK    4  A    between atoms: C_10  and  C_11
REMARK                            x       y       z     vdW  Elec       q    Type
REMARK                         _______ _______ _______ _____ _____    ______ ____
ROOT
ATOM      1  N   UNL     1       3.081   4.455  17.563  0.00  0.00    +0.000 N 
ATOM      2  N   UNL     1       2.408   5.513  18.137  0.00  0.00    +0.000 NA
ATOM      3  C   UNL     1       2.938   6.695  18.047  0.00  0.00    +0.000 A 
ATOM      4  C   UNL     1       4.215   6.978  17.361  0.00  0.00    +0.000 A 
ATOM      5  C   UNL     1       4.869   5.932  16.852  0.00  0.00    +0.000 A 
ATOM      6  C   UNL     1       4.321   4.563  16.954  0.00  0.00    +0.000 A 
ATOM      7  O   UNL     1       4.972   3.629  16.494  0.00  0.00    +0.000 OA
ENDROOT
BRANCH   3   8
ATOM      8  C   UNL     1       2.218   7.843  18.667  0.00  0.00    +0.000 A 
ATOM      9  C   UNL     1       1.905   7.771  20.032  0.00  0.00    +0.000 A 
ATOM     10  C   UNL     1       1.118   8.758  20.627  0.00  0.00    +0.000 A 
ATOM     11  C   UNL     1       0.624   9.822  19.866  0.00  0.00    +0.000 A 
ATOM     12  C   UNL     1      -0.320  10.822  20.465  0.00  0.00    +0.000 C 
ATOM     13  C   UNL     1       0.982   9.920  18.516  0.00  0.00    +0.000 A 
ATOM     14  C   UNL     1       1.772   8.934  17.914  0.00  0.00    +0.000 A 
ENDBRANCH   3   8
BRANCH   1  15
ATOM     15  C   UNL     1       2.388   3.172  17.550  0.00  0.00    +0.000 C 
BRANCH  15  17
ATOM     16  C   UNL     1       0.798   2.915  19.689  0.00  0.00    +0.000 C 
ATOM     17  C   UNL     1       1.506   3.035  18.725  0.00  0.00    +0.000 C 
ENDBRANCH  15  17
ENDBRANCH   1  15
TORSDOF 3
ENDMDL
MODEL 9
REMARK VINA RESULT:      -6.6      3.419      5.210
REMARK  Name = 
REMARK  4 active torsions:
REMARK  status: ('A' for Active; 'I' for Inactive)
REMARK    1  A    between atoms: C_2  and  C_3
REMARK    2  A    between atoms: C_3  and  N_4
REMARK    3  A    between atoms: C_6  and  C_7
REMARK    4  A    between atoms: C_10  and  C_11
REMARK                            x       y       z     vdW  Elec       q    Type
REMARK                         _______ _______ _______ _____ _____    ______ ____
ROOT
ATOM      1  N   UNL     1       3.918   4.142  17.414  0.00  0.00    +0.000 N 
ATOM      2  N   UNL     1       3.116   5.051  18.073  0.00  0.00    +0.000 NA
ATOM      3  C   UNL     1       3.336   6.315  17.876  0.00  0.00    +0.000 A 
ATOM      4  C   UNL     1       4.390   6.842  16.983  0.00  0.00    +0.000 A 
ATOM      5  C   UNL     1       5.181   5.944  16.393  0.00  0.00    +0.000 A 
ATOM      6  C   UNL     1       4.988   4.494  16.607  0.00  0.00    +0.000 A 
ATOM      7  O   UNL     1       5.759   3.708  16.064  0.00  0.00    +0.000 OA
ENDROOT
BRANCH   3   8
ATOM      8  C   UNL     1       2.476   7.303  18.585  0.00  0.00    +0.000 A 
ATOM      9  C   UNL     1       2.079   8.455  17.893  0.00  0.00    +0.000 A 
ATOM     10  C   UNL     1       1.386   9.472  18.552  0.00  0.00    +0.000 A 
ATOM     11  C   UNL     1       1.092   9.355  19.914  0.00  0.00    +0.000 A 
ATOM     12  C   UNL     1       0.456  10.489  20.663  0.00  0.00    +0.000 C 
ATOM     13  C   UNL     1       1.442   8.180  20.591  0.00  0.00    +0.000 A 
ATOM     14  C   UNL     1       2.136   7.159  19.934  0.00  0.00    +0.000 A 
ENDBRANCH   3   8
BRANCH   1  15
ATOM     15  C   UNL     1       3.548   2.737  17.538  0.00  0.00    +0.000 C 
BRANCH  15  17
ATOM     16  C   UNL     1       1.125   2.466  18.643  0.00  0.00    +0.000 C 
ATOM     17  C   UNL     1       2.210   2.594  18.142  0.00  0.00    +0.000 C 
ENDBRANCH  15  17
ENDBRANCH   1  15
TORSDOF 3
ENDMDL
