MODEL 1
REMARK VINA RESULT:      -7.7      0.000      0.000
REMARK  Name = 
REMARK  13 active torsions:
REMARK  status: ('A' for Active; 'I' for Inactive)
REMARK    1  A    between atoms: C_1  and  C_2
REMARK    2  A    between atoms: C_2  and  C_3
REMARK    3  A    between atoms: C_2  and  C_4
REMARK    4  A    between atoms: C_8  and  C_9
REMARK    5  A    between atoms: C_9  and  C_10
REMARK    6  A    between atoms: C_9  and  C_11
REMARK    7  A    between atoms: C_12  and  N_13
REMARK    8  A    between atoms: C_14  and  C_16
REMARK    9  A    between atoms: C_16  and  C_17
REMARK   10  A    between atoms: C_17  and  C_18
REMARK   11  A    between atoms: C_18  and  C_19
REMARK   12  A    between atoms: C_19  and  S_20
REMARK   13  A    between atoms: S_20  and  C_21
REMARK                            x       y       z     vdW  Elec       q    Type
REMARK                         _______ _______ _______ _____ _____    ______ ____
ROOT
ATOM      1  N   UNL     1       4.649   5.342  18.837  0.00  0.00    +0.000 N 
ATOM      2  C   UNL     1       4.979   5.264  17.485  0.00  0.00    +0.000 C 
ATOM      3  O   UNL     1       4.248   4.853  16.597  0.00  0.00    +0.000 OA
ATOM      4  H   UNL     1       5.435   5.396  19.459  0.00  0.00    +0.000 HD
ENDROOT
BRANCH   1  10
ATOM      5  C   UNL     1       2.395   5.803  19.743  0.00  0.00    +0.000 A 
ATOM      6  C   UNL     1       1.211   5.307  20.339  0.00  0.00    +0.000 A 
ATOM      7  C   UNL     1       1.045   3.962  20.619  0.00  0.00    +0.000 A 
ATOM      8  C   UNL     1       2.069   3.078  20.324  0.00  0.00    +0.000 A 
ATOM      9  C   UNL     1       3.285   3.506  19.730  0.00  0.00    +0.000 A 
ATOM     10  C   UNL     1       3.433   4.883  19.405  0.00  0.00    +0.000 A 
BRANCH   5  12
ATOM     11  C   UNL     1       2.264   7.794  18.177  0.00  0.00    +0.000 C 
ATOM     12  C   UNL     1       2.516   7.319  19.615  0.00  0.00    +0.000 C 
ATOM     13  C   UNL     1       1.560   8.033  20.583  0.00  0.00    +0.000 C 
ENDBRANCH   5  12
BRANCH   9  14
ATOM     14  C   UNL     1       4.237   2.349  19.400  0.00  0.00    +0.000 C 
ATOM     15  C   UNL     1       4.772   1.707  20.685  0.00  0.00    +0.000 C 
ATOM     16  C   UNL     1       3.779   1.277  18.412  0.00  0.00    +0.000 C 
ENDBRANCH   9  14
ENDBRANCH   1  10
BRANCH   2  17
ATOM     17  C   UNL     1       6.412   5.750  17.217  0.00  0.00    +0.000 C 
BRANCH  17  18
ATOM     18  C   UNL     1       6.561   7.272  17.331  0.00  0.00    +0.000 C 
BRANCH  18  19
ATOM     19  C   UNL     1       7.928   7.765  17.840  0.00  0.00    +0.000 C 
BRANCH  19  20
ATOM     20  C   UNL     1       8.109   9.287  17.829  0.00  0.00    +0.000 C 
BRANCH  20  21
ATOM     21  S   UNL     1       9.083   9.807  19.285  0.00  0.00    +0.000 S 
BRANCH  21  22
ATOM     22  C   UNL     1       9.643  11.382  18.783  0.00  0.00    +0.000 A 
ATOM     23  N   UNL     1       9.172  12.518  19.263  0.00  0.00    +0.000 NA
ATOM     24  C   UNL     1       9.797  13.477  18.504  0.00  0.00    +0.000 A 
ATOM     25  C   UNL     1       9.668  14.872  18.499  0.00  0.00    +0.000 A 
ATOM     26  C   UNL     1      10.396  15.600  17.545  0.00  0.00    +0.000 A 
ATOM     27  C   UNL     1      11.254  14.957  16.644  0.00  0.00    +0.000 A 
ATOM     28  C   UNL     1      11.421  13.566  16.661  0.00  0.00    +0.000 A 
ATOM     29  C   UNL     1      10.658  12.879  17.602  0.00  0.00    +0.000 A 
ATOM     30  O   UNL     1      10.585  11.530  17.792  0.00  0.00    +0.000 OA
ENDBRANCH  21  22
ENDBRANCH  20  21
ENDBRANCH  19  20
ENDBRANCH  18  19
ENDBRANCH  17  18
ENDBRANCH   2  17
TORSDOF 9
ENDMDL
MODEL 2
REMARK VINA RESULT:      -7.4      5.402      8.714
REMARK  Name = 
REMARK  13 active torsions:
REMARK  status: ('A' for Active; 'I' for Inactive)
REMARK    1  A    between atoms: C_1  and  C_2
REMARK    2  A    between atoms: C_2  and  C_3
REMARK    3  A    between atoms: C_2  and  C_4
REMARK    4  A    between atoms: C_8  and  C_9
REMARK    5  A    between atoms: C_9  and  C_10
REMARK    6  A    between atoms: C_9  and  C_11
REMARK    7  A    between atoms: C_12  and  N_13
REMARK    8  A    between atoms: C_14  and  C_16
REMARK    9  A    between atoms: C_16  and  C_17
REMARK   10  A    between atoms: C_17  and  C_18
REMARK   11  A    between atoms: C_18  and  C_19
REMARK   12  A    between atoms: C_19  and  S_20
REMARK   13  A    between atoms: S_20  and  C_21
REMARK                            x       y       z     vdW  Elec       q    Type
REMARK                         _______ _______ _______ _____ _____    ______ ____
ROOT
ATOM      1  N   UNL     1       2.792   6.434  19.320  0.00  0.00    +0.000 N 
ATOM      2  C   UNL     1       2.175   7.484  18.644  0.00  0.00    +0.000 C 
ATOM      3  O   UNL     1       1.858   7.482  17.464  0.00  0.00    +0.000 OA
ATOM      4  H   UNL     1       3.261   6.697  20.168  0.00  0.00    +0.000 HD
ENDROOT
BRANCH   1  10
ATOM      5  C   UNL     1       2.576   3.987  19.040  0.00  0.00    +0.000 A 
ATOM      6  C   UNL     1       3.054   2.794  18.447  0.00  0.00    +0.000 A 
ATOM      7  C   UNL     1       4.137   2.793  17.586  0.00  0.00    +0.000 A 
ATOM      8  C   UNL     1       4.782   3.987  17.309  0.00  0.00    +0.000 A 
ATOM      9  C   UNL     1       4.360   5.219  17.872  0.00  0.00    +0.000 A 
ATOM     10  C   UNL     1       3.219   5.220  18.722  0.00  0.00    +0.000 A 
BRANCH   5  12
ATOM     11  C   UNL     1       0.506   2.694  19.732  0.00  0.00    +0.000 C 
ATOM     12  C   UNL     1       1.466   3.839  20.079  0.00  0.00    +0.000 C 
ATOM     13  C   UNL     1       2.051   3.633  21.485  0.00  0.00    +0.000 C 
ENDBRANCH   5  12
BRANCH   9  14
ATOM     14  C   UNL     1       5.153   6.425  17.353  0.00  0.00    +0.000 C 
ATOM     15  C   UNL     1       6.624   6.323  17.768  0.00  0.00    +0.000 C 
ATOM     16  C   UNL     1       5.035   6.804  15.876  0.00  0.00    +0.000 C 
ENDBRANCH   9  14
ENDBRANCH   1  10
BRANCH   2  17
ATOM     17  C   UNL     1       1.939   8.695  19.560  0.00  0.00    +0.000 C 
BRANCH  17  18
ATOM     18  C   UNL     1       1.237   8.326  20.873  0.00  0.00    +0.000 C 
BRANCH  18  19
ATOM     19  C   UNL     1       0.827   9.517  21.759  0.00  0.00    +0.000 C 
BRANCH  19  20
ATOM     20  C   UNL     1       0.921  10.888  21.079  0.00  0.00    +0.000 C 
BRANCH  20  21
ATOM     21  S   UNL     1      -0.642  11.805  21.312  0.00  0.00    +0.000 S 
BRANCH  21  22
ATOM     22  C   UNL     1      -1.527  11.351  19.879  0.00  0.00    +0.000 A 
ATOM     23  N   UNL     1      -1.086  10.487  18.984  0.00  0.00    +0.000 NA
ATOM     24  C   UNL     1      -2.030  10.537  17.988  0.00  0.00    +0.000 A 
ATOM     25  C   UNL     1      -2.092   9.889  16.747  0.00  0.00    +0.000 A 
ATOM     26  C   UNL     1      -3.161  10.196  15.892  0.00  0.00    +0.000 A 
ATOM     27  C   UNL     1      -4.160  11.099  16.279  0.00  0.00    +0.000 A 
ATOM     28  C   UNL     1      -4.132  11.727  17.532  0.00  0.00    +0.000 A 
ATOM     29  C   UNL     1      -3.038  11.418  18.336  0.00  0.00    +0.000 A 
ATOM     30  O   UNL     1      -2.736  11.928  19.564  0.00  0.00    +0.000 OA
ENDBRANCH  21  22
ENDBRANCH  20  21
ENDBRANCH  19  20
ENDBRANCH  18  19
ENDBRANCH  17  18
ENDBRANCH   2  17
TORSDOF 9
ENDMDL
MODEL 3
REMARK VINA RESULT:      -7.3      5.472      8.649
REMARK  Name = 
REMARK  13 active torsions:
REMARK  status: ('A' for Active; 'I' for Inactive)
REMARK    1  A    between atoms: C_1  and  C_2
REMARK    2  A    between atoms: C_2  and  C_3
REMARK    3  A    between atoms: C_2  and  C_4
REMARK    4  A    between atoms: C_8  and  C_9
REMARK    5  A    between atoms: C_9  and  C_10
REMARK    6  A    between atoms: C_9  and  C_11
REMARK    7  A    between atoms: C_12  and  N_13
REMARK    8  A    between atoms: C_14  and  C_16
REMARK    9  A    between atoms: C_16  and  C_17
REMARK   10  A    between atoms: C_17  and  C_18
REMARK   11  A    between atoms: C_18  and  C_19
REMARK   12  A    between atoms: C_19  and  S_20
REMARK   13  A    between atoms: S_20  and  C_21
REMARK                            x       y       z     vdW  Elec       q    Type
REMARK                         _______ _______ _______ _____ _____    ______ ____
ROOT
ATOM      1  N   UNL     1       2.997   6.207  19.730  0.00  0.00    +0.000 N 
ATOM      2  C   UNL     1       2.231   7.253  19.217  0.00  0.00    +0.000 C 
ATOM      3  O   UNL     1       1.723   7.284  18.107  0.00  0.00    +0.000 OA
ATOM      4  H   UNL     1       3.588   6.457  20.501  0.00  0.00    +0.000 HD
ENDROOT
BRANCH   1  10
ATOM      5  C   UNL     1       2.717   3.797  19.250  0.00  0.00    +0.000 A 
ATOM      6  C   UNL     1       3.142   2.653  18.533  0.00  0.00    +0.000 A 
ATOM      7  C   UNL     1       4.184   2.709  17.625  0.00  0.00    +0.000 A 
ATOM      8  C   UNL     1       4.841   3.912  17.422  0.00  0.00    +0.000 A 
ATOM      9  C   UNL     1       4.471   5.098  18.109  0.00  0.00    +0.000 A 
ATOM     10  C   UNL     1       3.370   5.043  19.009  0.00  0.00    +0.000 A 
BRANCH   5  12
ATOM     11  C   UNL     1       0.482   2.734  19.806  0.00  0.00    +0.000 C 
ATOM     12  C   UNL     1       1.654   3.578  20.324  0.00  0.00    +0.000 C 
ATOM     13  C   UNL     1       2.261   2.930  21.578  0.00  0.00    +0.000 C 
ENDBRANCH   5  12
BRANCH   9  14
ATOM     14  C   UNL     1       5.264   6.331  17.658  0.00  0.00    +0.000 C 
ATOM     15  C   UNL     1       6.769   6.096  17.828  0.00  0.00    +0.000 C 
ATOM     16  C   UNL     1       4.964   6.939  16.288  0.00  0.00    +0.000 C 
ENDBRANCH   9  14
ENDBRANCH   1  10
BRANCH   2  17
ATOM     17  C   UNL     1       2.099   8.410  20.220  0.00  0.00    +0.000 C 
BRANCH  17  18
ATOM     18  C   UNL     1       0.891   8.260  21.152  0.00  0.00    +0.000 C 
BRANCH  18  19
ATOM     19  C   UNL     1       0.539   9.509  21.981  0.00  0.00    +0.000 C 
BRANCH  19  20
ATOM     20  C   UNL     1       0.838  10.846  21.291  0.00  0.00    +0.000 C 
BRANCH  20  21
ATOM     21  S   UNL     1      -0.610  11.952  21.427  0.00  0.00    +0.000 S 
BRANCH  21  22
ATOM     22  C   UNL     1      -1.431  11.634  19.920  0.00  0.00    +0.000 A 
ATOM     23  N   UNL     1      -2.585  12.179  19.581  0.00  0.00    +0.000 NA
ATOM     24  C   UNL     1      -2.906  11.555  18.401  0.00  0.00    +0.000 A 
ATOM     25  C   UNL     1      -4.038  11.665  17.582  0.00  0.00    +0.000 A 
ATOM     26  C   UNL     1      -4.123  10.835  16.455  0.00  0.00    +0.000 A 
ATOM     27  C   UNL     1      -3.092   9.943  16.134  0.00  0.00    +0.000 A 
ATOM     28  C   UNL     1      -1.937   9.848  16.922  0.00  0.00    +0.000 A 
ATOM     29  C   UNL     1      -1.907  10.666  18.048  0.00  0.00    +0.000 A 
ATOM     30  O   UNL     1      -0.940  10.729  19.008  0.00  0.00    +0.000 OA
ENDBRANCH  21  22
ENDBRANCH  20  21
ENDBRANCH  19  20
ENDBRANCH  18  19
ENDBRANCH  17  18
ENDBRANCH   2  17
TORSDOF 9
ENDMDL
MODEL 4
REMARK VINA RESULT:      -7.2      5.146      9.685
REMARK  Name = 
REMARK  13 active torsions:
REMARK  status: ('A' for Active; 'I' for Inactive)
REMARK    1  A    between atoms: C_1  and  C_2
REMARK    2  A    between atoms: C_2  and  C_3
REMARK    3  A    between atoms: C_2  and  C_4
REMARK    4  A    between atoms: C_8  and  C_9
REMARK    5  A    between atoms: C_9  and  C_10
REMARK    6  A    between atoms: C_9  and  C_11
REMARK    7  A    between atoms: C_12  and  N_13
REMARK    8  A    between atoms: C_14  and  C_16
REMARK    9  A    between atoms: C_16  and  C_17
REMARK   10  A    between atoms: C_17  and  C_18
REMARK   11  A    between atoms: C_18  and  C_19
REMARK   12  A    between atoms: C_19  and  S_20
REMARK   13  A    between atoms: S_20  and  C_21
REMARK                            x       y       z     vdW  Elec       q    Type
REMARK                         _______ _______ _______ _____ _____    ______ ____
ROOT
ATOM      1  N   UNL     1       0.715  10.552  17.964  0.00  0.00    +0.000 N 
ATOM      2  C   UNL     1       1.338   9.453  18.554  0.00  0.00    +0.000 C 
ATOM      3  O   UNL     1       1.198   9.096  19.714  0.00  0.00    +0.000 OA
ATOM      4  H   UNL     1       1.161  10.891  17.131  0.00  0.00    +0.000 HD
ENDROOT
BRANCH   1  10
ATOM      5  C   UNL     1       0.434  12.576  19.354  0.00  0.00    +0.000 A 
ATOM      6  C   UNL     1      -0.435  13.454  20.045  0.00  0.00    +0.000 A 
ATOM      7  C   UNL     1      -1.804  13.257  20.062  0.00  0.00    +0.000 A 
ATOM      8  C   UNL     1      -2.339  12.164  19.401  0.00  0.00    +0.000 A 
ATOM      9  C   UNL     1      -1.527  11.241  18.692  0.00  0.00    +0.000 A 
ATOM     10  C   UNL     1      -0.124  11.474  18.642  0.00  0.00    +0.000 A 
BRANCH   5  12
ATOM     11  C   UNL     1       2.537  13.548  18.319  0.00  0.00    +0.000 C 
ATOM     12  C   UNL     1       1.932  12.819  19.526  0.00  0.00    +0.000 C 
ATOM     13  C   UNL     1       2.220  13.602  20.816  0.00  0.00    +0.000 C 
ENDBRANCH   5  12
BRANCH   9  14
ATOM     14  C   UNL     1      -2.334  10.166  17.954  0.00  0.00    +0.000 C 
ATOM     15  C   UNL     1      -3.837  10.451  18.061  0.00  0.00    +0.000 C 
ATOM     16  C   UNL     1      -1.953   9.817  16.515  0.00  0.00    +0.000 C 
ENDBRANCH   9  14
ENDBRANCH   1  10
BRANCH   2  17
ATOM     17  C   UNL     1       2.262   8.721  17.569  0.00  0.00    +0.000 C 
BRANCH  17  18
ATOM     18  C   UNL     1       2.757   7.371  18.101  0.00  0.00    +0.000 C 
BRANCH  18  19
ATOM     19  C   UNL     1       4.267   7.112  17.939  0.00  0.00    +0.000 C 
BRANCH  19  20
ATOM     20  C   UNL     1       4.686   6.585  16.562  0.00  0.00    +0.000 C 
BRANCH  20  21
ATOM     21  S   UNL     1       5.368   4.897  16.725  0.00  0.00    +0.000 S 
BRANCH  21  22
ATOM     22  C   UNL     1       4.164   4.133  17.731  0.00  0.00    +0.000 A 
ATOM     23  N   UNL     1       2.965   3.782  17.307  0.00  0.00    +0.000 NA
ATOM     24  C   UNL     1       2.329   3.348  18.444  0.00  0.00    +0.000 A 
ATOM     25  C   UNL     1       1.017   2.901  18.650  0.00  0.00    +0.000 A 
ATOM     26  C   UNL     1       0.623   2.586  19.959  0.00  0.00    +0.000 A 
ATOM     27  C   UNL     1       1.522   2.681  21.028  0.00  0.00    +0.000 A 
ATOM     28  C   UNL     1       2.848   3.091  20.833  0.00  0.00    +0.000 A 
ATOM     29  C   UNL     1       3.189   3.424  19.524  0.00  0.00    +0.000 A 
ATOM     30  O   UNL     1       4.383   3.904  19.070  0.00  0.00    +0.000 OA
ENDBRANCH  21  22
ENDBRANCH  20  21
ENDBRANCH  19  20
ENDBRANCH  18  19
ENDBRANCH  17  18
ENDBRANCH   2  17
TORSDOF 9
ENDMDL
MODEL 5
REMARK VINA RESULT:      -7.2      5.333      8.680
REMARK  Name = 
REMARK  13 active torsions:
REMARK  status: ('A' for Active; 'I' for Inactive)
REMARK    1  A    between atoms: C_1  and  C_2
REMARK    2  A    between atoms: C_2  and  C_3
REMARK    3  A    between atoms: C_2  and  C_4
REMARK    4  A    between atoms: C_8  and  C_9
REMARK    5  A    between atoms: C_9  and  C_10
REMARK    6  A    between atoms: C_9  and  C_11
REMARK    7  A    between atoms: C_12  and  N_13
REMARK    8  A    between atoms: C_14  and  C_16
REMARK    9  A    between atoms: C_16  and  C_17
REMARK   10  A    between atoms: C_17  and  C_18
REMARK   11  A    between atoms: C_18  and  C_19
REMARK   12  A    between atoms: C_19  and  S_20
REMARK   13  A    between atoms: S_20  and  C_21
REMARK                            x       y       z     vdW  Elec       q    Type
REMARK                         _______ _______ _______ _____ _____    ______ ____
ROOT
ATOM      1  N   UNL     1       2.454   6.298  18.304  0.00  0.00    +0.000 N 
ATOM      2  C   UNL     1       2.465   6.846  19.586  0.00  0.00    +0.000 C 
ATOM      3  O   UNL     1       3.072   6.396  20.546  0.00  0.00    +0.000 OA
ATOM      4  H   UNL     1       1.683   6.587  17.730  0.00  0.00    +0.000 HD
ENDROOT
BRANCH   1  10
ATOM      5  C   UNL     1       4.257   5.097  17.113  0.00  0.00    +0.000 A 
ATOM      6  C   UNL     1       4.841   3.863  16.738  0.00  0.00    +0.000 A 
ATOM      7  C   UNL     1       4.297   2.653  17.127  0.00  0.00    +0.000 A 
ATOM      8  C   UNL     1       3.141   2.644  17.891  0.00  0.00    +0.000 A 
ATOM      9  C   UNL     1       2.500   3.843  18.299  0.00  0.00    +0.000 A 
ATOM     10  C   UNL     1       3.090   5.085  17.932  0.00  0.00    +0.000 A 
BRANCH   5  12
ATOM     11  C   UNL     1       6.004   6.919  17.372  0.00  0.00    +0.000 C 
ATOM     12  C   UNL     1       4.868   6.358  16.506  0.00  0.00    +0.000 C 
ATOM     13  C   UNL     1       5.372   6.095  15.078  0.00  0.00    +0.000 C 
ENDBRANCH   5  12
BRANCH   9  14
ATOM     14  C   UNL     1       1.297   3.602  19.219  0.00  0.00    +0.000 C 
ATOM     15  C   UNL     1       0.436   2.448  18.691  0.00  0.00    +0.000 C 
ATOM     16  C   UNL     1       1.535   3.453  20.721  0.00  0.00    +0.000 C 
ENDBRANCH   9  14
ENDBRANCH   1  10
BRANCH   2  17
ATOM     17  C   UNL     1       1.593   8.108  19.676  0.00  0.00    +0.000 C 
BRANCH  17  18
ATOM     18  C   UNL     1       1.271   8.512  21.120  0.00  0.00    +0.000 C 
BRANCH  18  19
ATOM     19  C   UNL     1      -0.117   9.143  21.335  0.00  0.00    +0.000 C 
BRANCH  19  20
ATOM     20  C   UNL     1      -0.099  10.545  21.954  0.00  0.00    +0.000 C 
BRANCH  20  21
ATOM     21  S   UNL     1       0.224  11.792  20.658  0.00  0.00    +0.000 S 
BRANCH  21  22
ATOM     22  C   UNL     1      -0.973  11.366  19.462  0.00  0.00    +0.000 A 
ATOM     23  N   UNL     1      -0.719  10.631  18.396  0.00  0.00    +0.000 NA
ATOM     24  C   UNL     1      -1.896  10.662  17.689  0.00  0.00    +0.000 A 
ATOM     25  C   UNL     1      -2.235  10.116  16.444  0.00  0.00    +0.000 A 
ATOM     26  C   UNL     1      -3.515  10.377  15.933  0.00  0.00    +0.000 A 
ATOM     27  C   UNL     1      -4.443  11.133  16.659  0.00  0.00    +0.000 A 
ATOM     28  C   UNL     1      -4.132  11.656  17.922  0.00  0.00    +0.000 A 
ATOM     29  C   UNL     1      -2.842  11.400  18.378  0.00  0.00    +0.000 A 
ATOM     30  O   UNL     1      -2.264  11.836  19.534  0.00  0.00    +0.000 OA
ENDBRANCH  21  22
ENDBRANCH  20  21
ENDBRANCH  19  20
ENDBRANCH  18  19
ENDBRANCH  17  18
ENDBRANCH   2  17
TORSDOF 9
ENDMDL
MODEL 6
REMARK VINA RESULT:      -7.2      2.077      3.077
REMARK  Name = 
REMARK  13 active torsions:
REMARK  status: ('A' for Active; 'I' for Inactive)
REMARK    1  A    between atoms: C_1  and  C_2
REMARK    2  A    between atoms: C_2  and  C_3
REMARK    3  A    between atoms: C_2  and  C_4
REMARK    4  A    between atoms: C_8  and  C_9
REMARK    5  A    between atoms: C_9  and  C_10
REMARK    6  A    between atoms: C_9  and  C_11
REMARK    7  A    between atoms: C_12  and  N_13
REMARK    8  A    between atoms: C_14  and  C_16
REMARK    9  A    between atoms: C_16  and  C_17
REMARK   10  A    between atoms: C_17  and  C_18
REMARK   11  A    between atoms: C_18  and  C_19
REMARK   12  A    between atoms: C_19  and  S_20
REMARK   13  A    between atoms: S_20  and  C_21
REMARK                            x       y       z     vdW  Elec       q    Type
REMARK                         _______ _______ _______ _____ _____    ______ ____
ROOT
ATOM      1  N   UNL     1       5.381   6.700  16.966  0.00  0.00    +0.000 N 
ATOM      2  C   UNL     1       6.447   6.900  17.841  0.00  0.00    +0.000 C 
ATOM      3  O   UNL     1       6.688   6.228  18.832  0.00  0.00    +0.000 OA
ATOM      4  H   UNL     1       5.141   7.498  16.405  0.00  0.00    +0.000 HD
ENDROOT
BRANCH   1  10
ATOM      5  C   UNL     1       3.190   6.025  17.891  0.00  0.00    +0.000 A 
ATOM      6  C   UNL     1       2.212   5.015  18.062  0.00  0.00    +0.000 A 
ATOM      7  C   UNL     1       2.375   3.748  17.532  0.00  0.00    +0.000 A 
ATOM      8  C   UNL     1       3.532   3.451  16.829  0.00  0.00    +0.000 A 
ATOM      9  C   UNL     1       4.555   4.413  16.623  0.00  0.00    +0.000 A 
ATOM     10  C   UNL     1       4.361   5.727  17.134  0.00  0.00    +0.000 A 
BRANCH   5  12
ATOM     11  C   UNL     1       2.258   8.381  17.765  0.00  0.00    +0.000 C 
ATOM     12  C   UNL     1       2.960   7.335  18.641  0.00  0.00    +0.000 C 
ATOM     13  C   UNL     1       2.159   7.100  19.931  0.00  0.00    +0.000 C 
ENDBRANCH   5  12
BRANCH   9  14
ATOM     14  C   UNL     1       5.696   3.902  15.736  0.00  0.00    +0.000 C 
ATOM     15  C   UNL     1       5.459   4.291  14.273  0.00  0.00    +0.000 C 
ATOM     16  C   UNL     1       7.139   4.201  16.146  0.00  0.00    +0.000 C 
ENDBRANCH   9  14
ENDBRANCH   1  10
BRANCH   2  17
ATOM     17  C   UNL     1       7.309   8.103  17.427  0.00  0.00    +0.000 C 
BRANCH  17  18
ATOM     18  C   UNL     1       8.578   8.251  18.276  0.00  0.00    +0.000 C 
BRANCH  18  19
ATOM     19  C   UNL     1       8.730   9.600  19.004  0.00  0.00    +0.000 C 
BRANCH  19  20
ATOM     20  C   UNL     1       9.243  10.750  18.129  0.00  0.00    +0.000 C 
BRANCH  20  21
ATOM     21  S   UNL     1      10.724  11.498  18.894  0.00  0.00    +0.000 S 
BRANCH  21  22
ATOM     22  C   UNL     1      10.496  13.185  18.513  0.00  0.00    +0.000 A 
ATOM     23  N   UNL     1      10.932  13.756  17.406  0.00  0.00    +0.000 NA
ATOM     24  C   UNL     1      10.648  15.087  17.590  0.00  0.00    +0.000 A 
ATOM     25  C   UNL     1      10.921  16.204  16.788  0.00  0.00    +0.000 A 
ATOM     26  C   UNL     1      10.568  17.471  17.277  0.00  0.00    +0.000 A 
ATOM     27  C   UNL     1       9.931  17.617  18.516  0.00  0.00    +0.000 A 
ATOM     28  C   UNL     1       9.619  16.506  19.312  0.00  0.00    +0.000 A 
ATOM     29  C   UNL     1      10.013  15.271  18.804  0.00  0.00    +0.000 A 
ATOM     30  O   UNL     1       9.888  14.048  19.395  0.00  0.00    +0.000 OA
ENDBRANCH  21  22
ENDBRANCH  20  21
ENDBRANCH  19  20
ENDBRANCH  18  19
ENDBRANCH  17  18
ENDBRANCH   2  17
TORSDOF 9
ENDMDL
MODEL 7
REMARK VINA RESULT:      -7.1      2.172      4.138
REMARK  Name = 
REMARK  13 active torsions:
REMARK  status: ('A' for Active; 'I' for Inactive)
REMARK    1  A    between atoms: C_1  and  C_2
REMARK    2  A    between atoms: C_2  and  C_3
REMARK    3  A    between atoms: C_2  and  C_4
REMARK    4  A    between atoms: C_8  and  C_9
REMARK    5  A    between atoms: C_9  and  C_10
REMARK    6  A    between atoms: C_9  and  C_11
REMARK    7  A    between atoms: C_12  and  N_13
REMARK    8  A    between atoms: C_14  and  C_16
REMARK    9  A    between atoms: C_16  and  C_17
REMARK   10  A    between atoms: C_17  and  C_18
REMARK   11  A    between atoms: C_18  and  C_19
REMARK   12  A    between atoms: C_19  and  S_20
REMARK   13  A    between atoms: S_20  and  C_21
REMARK                            x       y       z     vdW  Elec       q    Type
REMARK                         _______ _______ _______ _____ _____    ______ ____
ROOT
ATOM      1  N   UNL     1       5.567   7.262  17.002  0.00  0.00    +0.000 N 
ATOM      2  C   UNL     1       6.771   7.426  17.685  0.00  0.00    +0.000 C 
ATOM      3  O   UNL     1       7.291   6.598  18.417  0.00  0.00    +0.000 OA
ATOM      4  H   UNL     1       5.129   8.117  16.711  0.00  0.00    +0.000 HD
ENDROOT
BRANCH   1  10
ATOM      5  C   UNL     1       5.022   4.923  16.416  0.00  0.00    +0.000 A 
ATOM      6  C   UNL     1       4.131   3.829  16.524  0.00  0.00    +0.000 A 
ATOM      7  C   UNL     1       2.967   3.910  17.267  0.00  0.00    +0.000 A 
ATOM      8  C   UNL     1       2.655   5.097  17.910  0.00  0.00    +0.000 A 
ATOM      9  C   UNL     1       3.500   6.235  17.841  0.00  0.00    +0.000 A 
ATOM     10  C   UNL     1       4.717   6.131  17.110  0.00  0.00    +0.000 A 
BRANCH   5  12
ATOM     11  C   UNL     1       7.415   4.125  16.143  0.00  0.00    +0.000 C 
ATOM     12  C   UNL     1       6.198   4.757  15.455  0.00  0.00    +0.000 C 
ATOM     13  C   UNL     1       5.794   3.928  14.226  0.00  0.00    +0.000 C 
ENDBRANCH   5  12
BRANCH   9  14
ATOM     14  C   UNL     1       3.013   7.404  18.705  0.00  0.00    +0.000 C 
ATOM     15  C   UNL     1       2.295   8.450  17.844  0.00  0.00    +0.000 C 
ATOM     16  C   UNL     1       2.207   7.101  19.968  0.00  0.00    +0.000 C 
ENDBRANCH   9  14
ENDBRANCH   1  10
BRANCH   2  17
ATOM     17  C   UNL     1       7.391   8.808  17.429  0.00  0.00    +0.000 C 
BRANCH  17  18
ATOM     18  C   UNL     1       8.577   9.114  18.352  0.00  0.00    +0.000 C 
BRANCH  18  19
ATOM     19  C   UNL     1       8.944  10.604  18.482  0.00  0.00    +0.000 C 
BRANCH  19  20
ATOM     20  C   UNL     1       9.965  10.923  19.581  0.00  0.00    +0.000 C 
BRANCH  20  21
ATOM     21  S   UNL     1      11.518  11.523  18.829  0.00  0.00    +0.000 S 
BRANCH  21  22
ATOM     22  C   UNL     1      11.183  13.226  18.654  0.00  0.00    +0.000 A 
ATOM     23  N   UNL     1      10.500  13.937  19.532  0.00  0.00    +0.000 NA
ATOM     24  C   UNL     1      10.375  15.165  18.932  0.00  0.00    +0.000 A 
ATOM     25  C   UNL     1       9.705  16.325  19.344  0.00  0.00    +0.000 A 
ATOM     26  C   UNL     1       9.690  17.426  18.474  0.00  0.00    +0.000 A 
ATOM     27  C   UNL     1      10.354  17.383  17.241  0.00  0.00    +0.000 A 
ATOM     28  C   UNL     1      11.059  16.243  16.831  0.00  0.00    +0.000 A 
ATOM     29  C   UNL     1      11.023  15.163  17.710  0.00  0.00    +0.000 A 
ATOM     30  O   UNL     1      11.568  13.926  17.533  0.00  0.00    +0.000 OA
ENDBRANCH  21  22
ENDBRANCH  20  21
ENDBRANCH  19  20
ENDBRANCH  18  19
ENDBRANCH  17  18
ENDBRANCH   2  17
TORSDOF 9
ENDMDL
MODEL 8
REMARK VINA RESULT:      -7.1      2.253      4.272
REMARK  Name = 
REMARK  13 active torsions:
REMARK  status: ('A' for Active; 'I' for Inactive)
REMARK    1  A    between atoms: C_1  and  C_2
REMARK    2  A    between atoms: C_2  and  C_3
REMARK    3  A    between atoms: C_2  and  C_4
REMARK    4  A    between atoms: C_8  and  C_9
REMARK    5  A    between atoms: C_9  and  C_10
REMARK    6  A    between atoms: C_9  and  C_11
REMARK    7  A    between atoms: C_12  and  N_13
REMARK    8  A    between atoms: C_14  and  C_16
REMARK    9  A    between atoms: C_16  and  C_17
REMARK   10  A    between atoms: C_17  and  C_18
REMARK   11  A    between atoms: C_18  and  C_19
REMARK   12  A    between atoms: C_19  and  S_20
REMARK   13  A    between atoms: S_20  and  C_21
REMARK                            x       y       z     vdW  Elec       q    Type
REMARK                         _______ _______ _______ _____ _____    ______ ____
ROOT
ATOM      1  N   UNL     1       5.553   7.305  17.006  0.00  0.00    +0.000 N 
ATOM      2  C   UNL     1       6.752   7.491  17.691  0.00  0.00    +0.000 C 
ATOM      3  O   UNL     1       7.275   6.682  18.442  0.00  0.00    +0.000 OA
ATOM      4  H   UNL     1       5.110   8.150  16.695  0.00  0.00    +0.000 HD
ENDROOT
BRANCH   1  10
ATOM      5  C   UNL     1       5.034   4.946  16.477  0.00  0.00    +0.000 A 
ATOM      6  C   UNL     1       4.150   3.848  16.604  0.00  0.00    +0.000 A 
ATOM      7  C   UNL     1       2.975   3.940  17.328  0.00  0.00    +0.000 A 
ATOM      8  C   UNL     1       2.645   5.142  17.934  0.00  0.00    +0.000 A 
ATOM      9  C   UNL     1       3.483   6.284  17.845  0.00  0.00    +0.000 A 
ATOM     10  C   UNL     1       4.710   6.170  17.134  0.00  0.00    +0.000 A 
BRANCH   5  12
ATOM     11  C   UNL     1       7.450   4.201  16.268  0.00  0.00    +0.000 C 
ATOM     12  C   UNL     1       6.224   4.764  15.537  0.00  0.00    +0.000 C 
ATOM     13  C   UNL     1       5.856   3.862  14.349  0.00  0.00    +0.000 C 
ENDBRANCH   5  12
BRANCH   9  14
ATOM     14  C   UNL     1       2.974   7.473  18.670  0.00  0.00    +0.000 C 
ATOM     15  C   UNL     1       2.255   8.485  17.772  0.00  0.00    +0.000 C 
ATOM     16  C   UNL     1       2.158   7.197  19.933  0.00  0.00    +0.000 C 
ENDBRANCH   9  14
ENDBRANCH   1  10
BRANCH   2  17
ATOM     17  C   UNL     1       7.364   8.872  17.408  0.00  0.00    +0.000 C 
BRANCH  17  18
ATOM     18  C   UNL     1       8.566   9.190  18.305  0.00  0.00    +0.000 C 
BRANCH  18  19
ATOM     19  C   UNL     1       8.911  10.685  18.441  0.00  0.00    +0.000 C 
BRANCH  19  20
ATOM     20  C   UNL     1      10.034  11.000  19.437  0.00  0.00    +0.000 C 
BRANCH  20  21
ATOM     21  S   UNL     1      11.560  11.437  18.533  0.00  0.00    +0.000 S 
BRANCH  21  22
ATOM     22  C   UNL     1      11.390  13.167  18.381  0.00  0.00    +0.000 A 
ATOM     23  N   UNL     1      10.999  13.774  17.277  0.00  0.00    +0.000 NA
ATOM     24  C   UNL     1      11.133  15.108  17.572  0.00  0.00    +0.000 A 
ATOM     25  C   UNL     1      10.927  16.249  16.784  0.00  0.00    +0.000 A 
ATOM     26  C   UNL     1      11.220  17.502  17.344  0.00  0.00    +0.000 A 
ATOM     27  C   UNL     1      11.673  17.616  18.664  0.00  0.00    +0.000 A 
ATOM     28  C   UNL     1      11.850  16.487  19.476  0.00  0.00    +0.000 A 
ATOM     29  C   UNL     1      11.577  15.263  18.872  0.00  0.00    +0.000 A 
ATOM     30  O   UNL     1      11.721  14.017  19.410  0.00  0.00    +0.000 OA
ENDBRANCH  21  22
ENDBRANCH  20  21
ENDBRANCH  19  20
ENDBRANCH  18  19
ENDBRANCH  17  18
ENDBRANCH   2  17
TORSDOF 9
ENDMDL
MODEL 9
REMARK VINA RESULT:      -7.0      0.588      3.199
REMARK  Name = 
REMARK  13 active torsions:
REMARK  status: ('A' for Active; 'I' for Inactive)
REMARK    1  A    between atoms: C_1  and  C_2
REMARK    2  A    between atoms: C_2  and  C_3
REMARK    3  A    between atoms: C_2  and  C_4
REMARK    4  A    between atoms: C_8  and  C_9
REMARK    5  A    between atoms: C_9  and  C_10
REMARK    6  A    between atoms: C_9  and  C_11
REMARK    7  A    between atoms: C_12  and  N_13
REMARK    8  A    between atoms: C_14  and  C_16
REMARK    9  A    between atoms: C_16  and  C_17
REMARK   10  A    between atoms: C_17  and  C_18
REMARK   11  A    between atoms: C_18  and  C_19
REMARK   12  A    between atoms: C_19  and  S_20
REMARK   13  A    between atoms: S_20  and  C_21
REMARK                            x       y       z     vdW  Elec       q    Type
REMARK                         _______ _______ _______ _____ _____    ______ ____
ROOT
ATOM      1  N   UNL     1       5.022   5.054  19.050  0.00  0.00    +0.000 N 
ATOM      2  C   UNL     1       5.414   4.921  17.719  0.00  0.00    +0.000 C 
ATOM      3  O   UNL     1       4.705   4.530  16.805  0.00  0.00    +0.000 OA
ATOM      4  H   UNL     1       5.778   5.079  19.710  0.00  0.00    +0.000 HD
ENDROOT
BRANCH   1  10
ATOM      5  C   UNL     1       3.469   3.320  19.882  0.00  0.00    +0.000 A 
ATOM      6  C   UNL     1       2.181   2.986  20.364  0.00  0.00    +0.000 A 
ATOM      7  C   UNL     1       1.190   3.940  20.514  0.00  0.00    +0.000 A 
ATOM      8  C   UNL     1       1.459   5.255  20.170  0.00  0.00    +0.000 A 
ATOM      9  C   UNL     1       2.727   5.660  19.677  0.00  0.00    +0.000 A 
ATOM     10  C   UNL     1       3.754   4.682  19.566  0.00  0.00    +0.000 A 
BRANCH   5  12
ATOM     11  C   UNL     1       4.817   1.442  20.926  0.00  0.00    +0.000 C 
ATOM     12  C   UNL     1       4.428   2.160  19.627  0.00  0.00    +0.000 C 
ATOM     13  C   UNL     1       3.830   1.158  18.627  0.00  0.00    +0.000 C 
ENDBRANCH   5  12
BRANCH   9  14
ATOM     14  C   UNL     1       2.834   7.174  19.455  0.00  0.00    +0.000 C 
ATOM     15  C   UNL     1       2.868   7.499  17.958  0.00  0.00    +0.000 C 
ATOM     16  C   UNL     1       1.858   8.096  20.185  0.00  0.00    +0.000 C 
ENDBRANCH   9  14
ENDBRANCH   1  10
BRANCH   2  17
ATOM     17  C   UNL     1       6.885   5.316  17.513  0.00  0.00    +0.000 C 
BRANCH  17  18
ATOM     18  C   UNL     1       7.286   6.568  18.302  0.00  0.00    +0.000 C 
BRANCH  18  19
ATOM     19  C   UNL     1       6.939   7.910  17.631  0.00  0.00    +0.000 C 
BRANCH  19  20
ATOM     20  C   UNL     1       8.122   8.870  17.459  0.00  0.00    +0.000 C 
BRANCH  20  21
ATOM     21  S   UNL     1       8.810   9.306  19.094  0.00  0.00    +0.000 S 
BRANCH  21  22
ATOM     22  C   UNL     1       9.513  10.869  18.769  0.00  0.00    +0.000 A 
ATOM     23  N   UNL     1       9.306  11.940  19.513  0.00  0.00    +0.000 NA
ATOM     24  C   UNL     1       9.937  12.945  18.823  0.00  0.00    +0.000 A 
ATOM     25  C   UNL     1      10.023  14.320  19.077  0.00  0.00    +0.000 A 
ATOM     26  C   UNL     1      10.687  15.127  18.140  0.00  0.00    +0.000 A 
ATOM     27  C   UNL     1      11.278  14.572  16.998  0.00  0.00    +0.000 A 
ATOM     28  C   UNL     1      11.232  13.193  16.748  0.00  0.00    +0.000 A 
ATOM     29  C   UNL     1      10.538  12.434  17.686  0.00  0.00    +0.000 A 
ATOM     30  O   UNL     1      10.292  11.093  17.656  0.00  0.00    +0.000 OA
ENDBRANCH  21  22
ENDBRANCH  20  21
ENDBRANCH  19  20
ENDBRANCH  18  19
ENDBRANCH  17  18
ENDBRANCH   2  17
TORSDOF 9
ENDMDL
