MODEL 1
REMARK VINA RESULT:      -8.3      0.000      0.000
REMARK  Name = 
REMARK  8 active torsions:
REMARK  status: ('A' for Active; 'I' for Inactive)
REMARK    1  A    between atoms: C_1  and  C_2
REMARK    2  A    between atoms: C_4  and  C_5
REMARK    3  A    between atoms: C_6  and  C_7
REMARK    4  A    between atoms: C_8  and  C_9
REMARK    5  A    between atoms: C_9  and  C_11
REMARK    6  A    between atoms: C_12  and  C_13
REMARK    7  A    between atoms: C_16  and  N_17
REMARK    8  A    between atoms: C_23  and  C_24
REMARK                            x       y       z     vdW  Elec       q    Type
REMARK                         _______ _______ _______ _____ _____    ______ ____
ROOT
ATOM      1  C   UNL     1       7.465   6.965  17.397  0.00  0.00    +0.000 C 
ATOM      2  O   UNL     1       7.833   6.686  16.266  0.00  0.00    +0.000 OA
ENDROOT
BRANCH   1   4
ATOM      3  C   UNL     1       5.372   5.711  17.344  0.00  0.00    +0.000 C 
ATOM      4  C   UNL     1       6.353   6.251  18.086  0.00  0.00    +0.000 C 
BRANCH   3  10
ATOM      5  C   UNL     1       0.880   2.855  19.366  0.00  0.00    +0.000 C 
ATOM      6  C   UNL     1       2.068   3.598  18.829  0.00  0.00    +0.000 A 
ATOM      7  N   UNL     1       1.949   4.944  18.735  0.00  0.00    +0.000 NA
ATOM      8  C   UNL     1       3.022   5.627  18.250  0.00  0.00    +0.000 A 
ATOM      9  C   UNL     1       2.855   7.115  18.155  0.00  0.00    +0.000 C 
ATOM     10  C   UNL     1       4.203   4.977  17.866  0.00  0.00    +0.000 A 
ATOM     11  N   UNL     1       4.320   3.625  17.960  0.00  0.00    +0.000 NA
ATOM     12  C   UNL     1       3.241   2.944  18.445  0.00  0.00    +0.000 A 
ATOM     13  C   UNL     1       3.365   1.453  18.547  0.00  0.00    +0.000 C 
ENDBRANCH   3  10
ENDBRANCH   1   4
BRANCH   1  14
ATOM     14  C   UNL     1       8.095   8.051  18.194  0.00  0.00    +0.000 C 
ATOM     15  C   UNL     1       8.207   9.292  17.692  0.00  0.00    +0.000 C 
BRANCH  15  16
ATOM     16  C   UNL     1       8.835  10.398  18.433  0.00  0.00    +0.000 A 
ATOM     17  C   UNL     1       8.910  11.670  17.846  0.00  0.00    +0.000 A 
ATOM     18  C   UNL     1       9.487  12.744  18.536  0.00  0.00    +0.000 A 
ATOM     19  C   UNL     1       9.985  12.546  19.830  0.00  0.00    +0.000 A 
ATOM     20  C   UNL     1       9.923  11.282  20.426  0.00  0.00    +0.000 A 
ATOM     21  C   UNL     1       9.347  10.218  19.727  0.00  0.00    +0.000 A 
BRANCH  19  22
ATOM     22  N   UNL     1      10.574  13.670  20.567  0.00  0.00    +0.000 N 
ATOM     23  O   UNL     1      10.110  13.935  21.684  0.00  0.00    +0.000 OA
ATOM     24  O   UNL     1      11.506  14.287  20.028  0.00  0.00    +0.000 OA
ENDBRANCH  19  22
ENDBRANCH  15  16
ENDBRANCH   1  14
TORSDOF 5
ENDMDL
MODEL 2
REMARK VINA RESULT:      -8.2      0.167      1.178
REMARK  Name = 
REMARK  8 active torsions:
REMARK  status: ('A' for Active; 'I' for Inactive)
REMARK    1  A    between atoms: C_1  and  C_2
REMARK    2  A    between atoms: C_4  and  C_5
REMARK    3  A    between atoms: C_6  and  C_7
REMARK    4  A    between atoms: C_8  and  C_9
REMARK    5  A    between atoms: C_9  and  C_11
REMARK    6  A    between atoms: C_12  and  C_13
REMARK    7  A    between atoms: C_16  and  N_17
REMARK    8  A    between atoms: C_23  and  C_24
REMARK                            x       y       z     vdW  Elec       q    Type
REMARK                         _______ _______ _______ _____ _____    ______ ____
ROOT
ATOM      1  C   UNL     1       7.477   6.860  17.324  0.00  0.00    +0.000 C 
ATOM      2  O   UNL     1       7.866   6.600  16.196  0.00  0.00    +0.000 OA
ENDROOT
BRANCH   1   4
ATOM      3  C   UNL     1       5.287   5.785  17.333  0.00  0.00    +0.000 C 
ATOM      4  C   UNL     1       6.407   6.083  18.011  0.00  0.00    +0.000 C 
BRANCH   3  10
ATOM      5  C   UNL     1       0.863   2.848  19.389  0.00  0.00    +0.000 C 
ATOM      6  C   UNL     1       2.033   3.613  18.844  0.00  0.00    +0.000 A 
ATOM      7  N   UNL     1       1.881   4.954  18.731  0.00  0.00    +0.000 NA
ATOM      8  C   UNL     1       2.938   5.656  18.238  0.00  0.00    +0.000 A 
ATOM      9  C   UNL     1       2.734   7.138  18.122  0.00  0.00    +0.000 C 
ATOM     10  C   UNL     1       4.135   5.030  17.864  0.00  0.00    +0.000 A 
ATOM     11  N   UNL     1       4.285   3.683  17.978  0.00  0.00    +0.000 NA
ATOM     12  C   UNL     1       3.223   2.982  18.470  0.00  0.00    +0.000 A 
ATOM     13  C   UNL     1       3.383   1.496  18.593  0.00  0.00    +0.000 C 
ENDBRANCH   3  10
ENDBRANCH   1   4
BRANCH   1  14
ATOM     14  C   UNL     1       8.038   7.984  18.120  0.00  0.00    +0.000 C 
ATOM     15  C   UNL     1       8.150   9.212  17.586  0.00  0.00    +0.000 C 
BRANCH  15  16
ATOM     16  C   UNL     1       8.711  10.355  18.325  0.00  0.00    +0.000 A 
ATOM     17  C   UNL     1       9.196  10.165  19.628  0.00  0.00    +0.000 A 
ATOM     18  C   UNL     1       9.751  11.231  20.347  0.00  0.00    +0.000 A 
ATOM     19  C   UNL     1       9.831  12.497  19.753  0.00  0.00    +0.000 A 
ATOM     20  C   UNL     1       9.347  12.703  18.457  0.00  0.00    +0.000 A 
ATOM     21  C   UNL     1       8.793  11.632  17.751  0.00  0.00    +0.000 A 
BRANCH  19  22
ATOM     22  N   UNL     1      10.428  13.616  20.492  0.00  0.00    +0.000 N 
ATOM     23  O   UNL     1      11.106  14.433  19.856  0.00  0.00    +0.000 OA
ATOM     24  O   UNL     1      10.215  13.678  21.713  0.00  0.00    +0.000 OA
ENDBRANCH  19  22
ENDBRANCH  15  16
ENDBRANCH   1  14
TORSDOF 5
ENDMDL
MODEL 3
REMARK VINA RESULT:      -8.1      5.513      7.687
REMARK  Name = 
REMARK  8 active torsions:
REMARK  status: ('A' for Active; 'I' for Inactive)
REMARK    1  A    between atoms: C_1  and  C_2
REMARK    2  A    between atoms: C_4  and  C_5
REMARK    3  A    between atoms: C_6  and  C_7
REMARK    4  A    between atoms: C_8  and  C_9
REMARK    5  A    between atoms: C_9  and  C_11
REMARK    6  A    between atoms: C_12  and  C_13
REMARK    7  A    between atoms: C_16  and  N_17
REMARK    8  A    between atoms: C_23  and  C_24
REMARK                            x       y       z     vdW  Elec       q    Type
REMARK                         _______ _______ _______ _____ _____    ______ ____
ROOT
ATOM      1  C   UNL     1       3.010   4.482  18.899  0.00  0.00    +0.000 C 
ATOM      2  O   UNL     1       3.110   3.378  19.411  0.00  0.00    +0.000 OA
ENDROOT
BRANCH   1   4
ATOM      3  C   UNL     1       4.901   4.285  17.369  0.00  0.00    +0.000 C 
ATOM      4  C   UNL     1       3.717   4.857  17.641  0.00  0.00    +0.000 C 
BRANCH   3  10
ATOM      5  C   UNL     1       8.069   5.286  12.744  0.00  0.00    +0.000 C 
ATOM      6  C   UNL     1       7.230   5.014  13.957  0.00  0.00    +0.000 A 
ATOM      7  N   UNL     1       7.588   5.652  15.097  0.00  0.00    +0.000 NA
ATOM      8  C   UNL     1       6.832   5.412  16.203  0.00  0.00    +0.000 A 
ATOM      9  C   UNL     1       7.258   6.130  17.450  0.00  0.00    +0.000 C 
ATOM     10  C   UNL     1       5.729   4.547  16.175  0.00  0.00    +0.000 A 
ATOM     11  N   UNL     1       5.372   3.907  15.029  0.00  0.00    +0.000 NA
ATOM     12  C   UNL     1       6.133   4.148  13.923  0.00  0.00    +0.000 A 
ATOM     13  C   UNL     1       5.745   3.441  12.659  0.00  0.00    +0.000 C 
ENDBRANCH   3  10
ENDBRANCH   1   4
BRANCH   1  14
ATOM     14  C   UNL     1       2.171   5.560  19.486  0.00  0.00    +0.000 C 
ATOM     15  C   UNL     1       2.508   6.852  19.328  0.00  0.00    +0.000 C 
BRANCH  15  16
ATOM     16  C   UNL     1       1.722   7.956  19.901  0.00  0.00    +0.000 A 
ATOM     17  C   UNL     1       1.286   7.877  21.232  0.00  0.00    +0.000 A 
ATOM     18  C   UNL     1       0.550   8.922  21.807  0.00  0.00    +0.000 A 
ATOM     19  C   UNL     1       0.258  10.060  21.046  0.00  0.00    +0.000 A 
ATOM     20  C   UNL     1       0.681  10.151  19.716  0.00  0.00    +0.000 A 
ATOM     21  C   UNL     1       1.411   9.101  19.152  0.00  0.00    +0.000 A 
BRANCH  19  22
ATOM     22  N   UNL     1      -0.496  11.168  21.646  0.00  0.00    +0.000 N 
ATOM     23  O   UNL     1      -1.239  11.829  20.908  0.00  0.00    +0.000 OA
ATOM     24  O   UNL     1      -0.346  11.375  22.860  0.00  0.00    +0.000 OA
ENDBRANCH  19  22
ENDBRANCH  15  16
ENDBRANCH   1  14
TORSDOF 5
ENDMDL
MODEL 4
REMARK VINA RESULT:      -8.0      1.060      2.165
REMARK  Name = 
REMARK  8 active torsions:
REMARK  status: ('A' for Active; 'I' for Inactive)
REMARK    1  A    between atoms: C_1  and  C_2
REMARK    2  A    between atoms: C_4  and  C_5
REMARK    3  A    between atoms: C_6  and  C_7
REMARK    4  A    between atoms: C_8  and  C_9
REMARK    5  A    between atoms: C_9  and  C_11
REMARK    6  A    between atoms: C_12  and  C_13
REMARK    7  A    between atoms: C_16  and  N_17
REMARK    8  A    between atoms: C_23  and  C_24
REMARK                            x       y       z     vdW  Elec       q    Type
REMARK                         _______ _______ _______ _____ _____    ______ ____
ROOT
ATOM      1  C   UNL     1       7.468   7.060  17.434  0.00  0.00    +0.000 C 
ATOM      2  O   UNL     1       7.738   6.708  16.296  0.00  0.00    +0.000 OA
ENDROOT
BRANCH   1   4
ATOM      3  C   UNL     1       5.243   6.074  17.620  0.00  0.00    +0.000 C 
ATOM      4  C   UNL     1       6.380   6.434  18.238  0.00  0.00    +0.000 C 
BRANCH   3  10
ATOM      5  C   UNL     1       0.717   3.690  20.121  0.00  0.00    +0.000 C 
ATOM      6  C   UNL     1       1.910   4.326  19.470  0.00  0.00    +0.000 A 
ATOM      7  N   UNL     1       2.571   3.579  18.554  0.00  0.00    +0.000 NA
ATOM      8  C   UNL     1       3.653   4.148  17.957  0.00  0.00    +0.000 A 
ATOM      9  C   UNL     1       4.365   3.291  16.951  0.00  0.00    +0.000 C 
ATOM     10  C   UNL     1       4.073   5.449  18.267  0.00  0.00    +0.000 A 
ATOM     11  N   UNL     1       3.408   6.197  19.188  0.00  0.00    +0.000 NA
ATOM     12  C   UNL     1       2.325   5.623  19.786  0.00  0.00    +0.000 A 
ATOM     13  C   UNL     1       1.592   6.444  20.805  0.00  0.00    +0.000 C 
ENDBRANCH   3  10
ENDBRANCH   1   4
BRANCH   1  14
ATOM     14  C   UNL     1       8.202   8.152  18.125  0.00  0.00    +0.000 C 
ATOM     15  C   UNL     1       8.062   9.429  17.730  0.00  0.00    +0.000 C 
BRANCH  15  16
ATOM     16  C   UNL     1       8.777  10.545  18.369  0.00  0.00    +0.000 A 
ATOM     17  C   UNL     1       9.374  10.356  19.625  0.00  0.00    +0.000 A 
ATOM     18  C   UNL     1      10.075  11.396  20.248  0.00  0.00    +0.000 A 
ATOM     19  C   UNL     1      10.188  12.635  19.604  0.00  0.00    +0.000 A 
ATOM     20  C   UNL     1       9.593  12.841  18.355  0.00  0.00    +0.000 A 
ATOM     21  C   UNL     1       8.894  11.796  17.745  0.00  0.00    +0.000 A 
BRANCH  19  22
ATOM     22  N   UNL     1      10.936  13.725  20.242  0.00  0.00    +0.000 N 
ATOM     23  O   UNL     1      11.933  14.164  19.652  0.00  0.00    +0.000 OA
ATOM     24  O   UNL     1      10.524  14.145  21.334  0.00  0.00    +0.000 OA
ENDBRANCH  19  22
ENDBRANCH  15  16
ENDBRANCH   1  14
TORSDOF 5
ENDMDL
MODEL 5
REMARK VINA RESULT:      -8.0      6.002      7.910
REMARK  Name = 
REMARK  8 active torsions:
REMARK  status: ('A' for Active; 'I' for Inactive)
REMARK    1  A    between atoms: C_1  and  C_2
REMARK    2  A    between atoms: C_4  and  C_5
REMARK    3  A    between atoms: C_6  and  C_7
REMARK    4  A    between atoms: C_8  and  C_9
REMARK    5  A    between atoms: C_9  and  C_11
REMARK    6  A    between atoms: C_12  and  C_13
REMARK    7  A    between atoms: C_16  and  N_17
REMARK    8  A    between atoms: C_23  and  C_24
REMARK                            x       y       z     vdW  Elec       q    Type
REMARK                         _______ _______ _______ _____ _____    ______ ____
ROOT
ATOM      1  C   UNL     1       2.702   4.490  19.496  0.00  0.00    +0.000 C 
ATOM      2  O   UNL     1       2.703   3.397  20.040  0.00  0.00    +0.000 OA
ENDROOT
BRANCH   1   4
ATOM      3  C   UNL     1       2.293   6.891  19.642  0.00  0.00    +0.000 C 
ATOM      4  C   UNL     1       1.932   5.654  20.019  0.00  0.00    +0.000 C 
BRANCH   3  10
ATOM      5  C   UNL     1      -0.210  11.724  21.315  0.00  0.00    +0.000 C 
ATOM      6  C   UNL     1       0.446  10.446  20.883  0.00  0.00    +0.000 A 
ATOM      7  N   UNL     1       0.816  10.363  19.583  0.00  0.00    +0.000 NA
ATOM      8  C   UNL     1       1.413   9.208  19.182  0.00  0.00    +0.000 A 
ATOM      9  C   UNL     1       1.806   9.148  17.735  0.00  0.00    +0.000 C 
ATOM     10  C   UNL     1       1.642   8.145  20.068  0.00  0.00    +0.000 A 
ATOM     11  N   UNL     1       1.269   8.230  21.373  0.00  0.00    +0.000 NA
ATOM     12  C   UNL     1       0.669   9.389  21.770  0.00  0.00    +0.000 A 
ATOM     13  C   UNL     1       0.252   9.484  23.208  0.00  0.00    +0.000 C 
ENDBRANCH   3  10
ENDBRANCH   1   4
BRANCH   1  14
ATOM     14  C   UNL     1       3.474   4.762  18.254  0.00  0.00    +0.000 C 
ATOM     15  C   UNL     1       4.587   4.063  17.973  0.00  0.00    +0.000 C 
BRANCH  15  16
ATOM     16  C   UNL     1       5.395   4.302  16.766  0.00  0.00    +0.000 A 
ATOM     17  C   UNL     1       4.803   4.171  15.500  0.00  0.00    +0.000 A 
ATOM     18  C   UNL     1       5.545   4.410  14.336  0.00  0.00    +0.000 A 
ATOM     19  C   UNL     1       6.888   4.794  14.440  0.00  0.00    +0.000 A 
ATOM     20  C   UNL     1       7.493   4.923  15.694  0.00  0.00    +0.000 A 
ATOM     21  C   UNL     1       6.743   4.679  16.848  0.00  0.00    +0.000 A 
BRANCH  19  22
ATOM     22  N   UNL     1       7.668   5.064  13.226  0.00  0.00    +0.000 N 
ATOM     23  O   UNL     1       8.558   5.923  13.290  0.00  0.00    +0.000 OA
ATOM     24  O   UNL     1       7.390   4.414  12.207  0.00  0.00    +0.000 OA
ENDBRANCH  19  22
ENDBRANCH  15  16
ENDBRANCH   1  14
TORSDOF 5
ENDMDL
MODEL 6
REMARK VINA RESULT:      -8.0      5.472      7.572
REMARK  Name = 
REMARK  8 active torsions:
REMARK  status: ('A' for Active; 'I' for Inactive)
REMARK    1  A    between atoms: C_1  and  C_2
REMARK    2  A    between atoms: C_4  and  C_5
REMARK    3  A    between atoms: C_6  and  C_7
REMARK    4  A    between atoms: C_8  and  C_9
REMARK    5  A    between atoms: C_9  and  C_11
REMARK    6  A    between atoms: C_12  and  C_13
REMARK    7  A    between atoms: C_16  and  N_17
REMARK    8  A    between atoms: C_23  and  C_24
REMARK                            x       y       z     vdW  Elec       q    Type
REMARK                         _______ _______ _______ _____ _____    ______ ____
ROOT
ATOM      1  C   UNL     1       3.314   4.701  19.324  0.00  0.00    +0.000 C 
ATOM      2  O   UNL     1       3.376   3.575  19.792  0.00  0.00    +0.000 OA
ENDROOT
BRANCH   1   4
ATOM      3  C   UNL     1       5.031   4.363  17.624  0.00  0.00    +0.000 C 
ATOM      4  C   UNL     1       3.982   5.086  18.049  0.00  0.00    +0.000 C 
BRANCH   3  10
ATOM      5  C   UNL     1       7.988   5.309  12.851  0.00  0.00    +0.000 C 
ATOM      6  C   UNL     1       7.204   5.052  14.104  0.00  0.00    +0.000 A 
ATOM      7  N   UNL     1       7.619   5.695  15.221  0.00  0.00    +0.000 NA
ATOM      8  C   UNL     1       6.913   5.469  16.363  0.00  0.00    +0.000 A 
ATOM      9  C   UNL     1       7.401   6.194  17.582  0.00  0.00    +0.000 C 
ATOM     10  C   UNL     1       5.805   4.611  16.391  0.00  0.00    +0.000 A 
ATOM     11  N   UNL     1       5.391   3.964  15.268  0.00  0.00    +0.000 NA
ATOM     12  C   UNL     1       6.102   4.193  14.127  0.00  0.00    +0.000 A 
ATOM     13  C   UNL     1       5.652   3.478  12.887  0.00  0.00    +0.000 C 
ENDBRANCH   3  10
ENDBRANCH   1   4
BRANCH   1  14
ATOM     14  C   UNL     1       2.562   5.799  19.988  0.00  0.00    +0.000 C 
ATOM     15  C   UNL     1       2.374   6.975  19.364  0.00  0.00    +0.000 C 
BRANCH  15  16
ATOM     16  C   UNL     1       1.652   8.099  19.981  0.00  0.00    +0.000 A 
ATOM     17  C   UNL     1       1.361   9.238  19.216  0.00  0.00    +0.000 A 
ATOM     18  C   UNL     1       0.660  10.315  19.773  0.00  0.00    +0.000 A 
ATOM     19  C   UNL     1       0.236  10.246  21.107  0.00  0.00    +0.000 A 
ATOM     20  C   UNL     1       0.523   9.119  21.884  0.00  0.00    +0.000 A 
ATOM     21  C   UNL     1       1.226   8.053  21.317  0.00  0.00    +0.000 A 
BRANCH  19  22
ATOM     22  N   UNL     1      -0.516  11.362  21.694  0.00  0.00    +0.000 N 
ATOM     23  O   UNL     1      -1.219  12.046  20.939  0.00  0.00    +0.000 OA
ATOM     24  O   UNL     1      -0.405  11.552  22.915  0.00  0.00    +0.000 OA
ENDBRANCH  19  22
ENDBRANCH  15  16
ENDBRANCH   1  14
TORSDOF 5
ENDMDL
MODEL 7
REMARK VINA RESULT:      -7.9      1.035      1.870
REMARK  Name = 
REMARK  8 active torsions:
REMARK  status: ('A' for Active; 'I' for Inactive)
REMARK    1  A    between atoms: C_1  and  C_2
REMARK    2  A    between atoms: C_4  and  C_5
REMARK    3  A    between atoms: C_6  and  C_7
REMARK    4  A    between atoms: C_8  and  C_9
REMARK    5  A    between atoms: C_9  and  C_11
REMARK    6  A    between atoms: C_12  and  C_13
REMARK    7  A    between atoms: C_16  and  N_17
REMARK    8  A    between atoms: C_23  and  C_24
REMARK                            x       y       z     vdW  Elec       q    Type
REMARK                         _______ _______ _______ _____ _____    ______ ____
ROOT
ATOM      1  C   UNL     1       7.439   7.099  17.480  0.00  0.00    +0.000 C 
ATOM      2  O   UNL     1       7.730   6.777  16.339  0.00  0.00    +0.000 OA
ENDROOT
BRANCH   1   4
ATOM      3  C   UNL     1       5.275   5.977  17.591  0.00  0.00    +0.000 C 
ATOM      4  C   UNL     1       6.346   6.443  18.253  0.00  0.00    +0.000 C 
BRANCH   3  10
ATOM      5  C   UNL     1       0.767   3.425  19.956  0.00  0.00    +0.000 C 
ATOM      6  C   UNL     1       1.955   4.105  19.341  0.00  0.00    +0.000 A 
ATOM      7  N   UNL     1       2.619   3.415  18.383  0.00  0.00    +0.000 NA
ATOM      8  C   UNL     1       3.697   4.024  17.818  0.00  0.00    +0.000 A 
ATOM      9  C   UNL     1       4.412   3.231  16.764  0.00  0.00    +0.000 C 
ATOM     10  C   UNL     1       4.110   5.308  18.202  0.00  0.00    +0.000 A 
ATOM     11  N   UNL     1       3.441   5.998  19.165  0.00  0.00    +0.000 NA
ATOM     12  C   UNL     1       2.362   5.384  19.730  0.00  0.00    +0.000 A 
ATOM     13  C   UNL     1       1.626   6.140  20.795  0.00  0.00    +0.000 C 
ENDBRANCH   3  10
ENDBRANCH   1   4
BRANCH   1  14
ATOM     14  C   UNL     1       8.152   8.182  18.208  0.00  0.00    +0.000 C 
ATOM     15  C   UNL     1       8.149   9.441  17.736  0.00  0.00    +0.000 C 
BRANCH  15  16
ATOM     16  C   UNL     1       8.851  10.546  18.409  0.00  0.00    +0.000 A 
ATOM     17  C   UNL     1       8.906  11.806  17.794  0.00  0.00    +0.000 A 
ATOM     18  C   UNL     1       9.552  12.880  18.420  0.00  0.00    +0.000 A 
ATOM     19  C   UNL     1      10.139  12.693  19.678  0.00  0.00    +0.000 A 
ATOM     20  C   UNL     1      10.098  11.441  20.301  0.00  0.00    +0.000 A 
ATOM     21  C   UNL     1       9.453  10.377  19.664  0.00  0.00    +0.000 A 
BRANCH  19  22
ATOM     22  N   UNL     1      10.802  13.818  20.350  0.00  0.00    +0.000 N 
ATOM     23  O   UNL     1      11.698  14.412  19.736  0.00  0.00    +0.000 OA
ATOM     24  O   UNL     1      10.423  14.108  21.495  0.00  0.00    +0.000 OA
ENDBRANCH  19  22
ENDBRANCH  15  16
ENDBRANCH   1  14
TORSDOF 5
ENDMDL
MODEL 8
REMARK VINA RESULT:      -7.9      1.214      1.346
REMARK  Name = 
REMARK  8 active torsions:
REMARK  status: ('A' for Active; 'I' for Inactive)
REMARK    1  A    between atoms: C_1  and  C_2
REMARK    2  A    between atoms: C_4  and  C_5
REMARK    3  A    between atoms: C_6  and  C_7
REMARK    4  A    between atoms: C_8  and  C_9
REMARK    5  A    between atoms: C_9  and  C_11
REMARK    6  A    between atoms: C_12  and  C_13
REMARK    7  A    between atoms: C_16  and  N_17
REMARK    8  A    between atoms: C_23  and  C_24
REMARK                            x       y       z     vdW  Elec       q    Type
REMARK                         _______ _______ _______ _____ _____    ______ ____
ROOT
ATOM      1  C   UNL     1       7.404   6.940  17.179  0.00  0.00    +0.000 C 
ATOM      2  O   UNL     1       7.765   6.414  16.138  0.00  0.00    +0.000 OA
ENDROOT
BRANCH   1   4
ATOM      3  C   UNL     1       5.404   5.754  17.920  0.00  0.00    +0.000 C 
ATOM      4  C   UNL     1       6.627   6.217  18.226  0.00  0.00    +0.000 C 
BRANCH   3  10
ATOM      5  C   UNL     1       1.967   2.919  21.466  0.00  0.00    +0.000 C 
ATOM      6  C   UNL     1       2.878   3.657  20.530  0.00  0.00    +0.000 A 
ATOM      7  N   UNL     1       2.458   4.873  20.107  0.00  0.00    +0.000 NA
ATOM      8  C   UNL     1       3.278   5.550  19.259  0.00  0.00    +0.000 A 
ATOM      9  C   UNL     1       2.779   6.891  18.806  0.00  0.00    +0.000 C 
ATOM     10  C   UNL     1       4.507   5.023  18.837  0.00  0.00    +0.000 A 
ATOM     11  N   UNL     1       4.927   3.802  19.262  0.00  0.00    +0.000 NA
ATOM     12  C   UNL     1       4.101   3.125  20.111  0.00  0.00    +0.000 A 
ATOM     13  C   UNL     1       4.559   1.775  20.579  0.00  0.00    +0.000 C 
ENDBRANCH   3  10
ENDBRANCH   1   4
BRANCH   1  14
ATOM     14  C   UNL     1       7.706   8.360  17.500  0.00  0.00    +0.000 C 
ATOM     15  C   UNL     1       8.612   8.671  18.442  0.00  0.00    +0.000 C 
BRANCH  15  16
ATOM     16  C   UNL     1       8.938  10.059  18.809  0.00  0.00    +0.000 A 
ATOM     17  C   UNL     1       8.728  11.087  17.878  0.00  0.00    +0.000 A 
ATOM     18  C   UNL     1       9.013  12.419  18.207  0.00  0.00    +0.000 A 
ATOM     19  C   UNL     1       9.503  12.725  19.483  0.00  0.00    +0.000 A 
ATOM     20  C   UNL     1       9.722  11.710  20.420  0.00  0.00    +0.000 A 
ATOM     21  C   UNL     1       9.437  10.385  20.078  0.00  0.00    +0.000 A 
BRANCH  19  22
ATOM     22  N   UNL     1       9.787  14.120  19.843  0.00  0.00    +0.000 N 
ATOM     23  O   UNL     1      10.919  14.559  19.604  0.00  0.00    +0.000 OA
ATOM     24  O   UNL     1       8.872  14.777  20.363  0.00  0.00    +0.000 OA
ENDBRANCH  19  22
ENDBRANCH  15  16
ENDBRANCH   1  14
TORSDOF 5
ENDMDL
MODEL 9
REMARK VINA RESULT:      -7.9      1.081      1.452
REMARK  Name = 
REMARK  8 active torsions:
REMARK  status: ('A' for Active; 'I' for Inactive)
REMARK    1  A    between atoms: C_1  and  C_2
REMARK    2  A    between atoms: C_4  and  C_5
REMARK    3  A    between atoms: C_6  and  C_7
REMARK    4  A    between atoms: C_8  and  C_9
REMARK    5  A    between atoms: C_9  and  C_11
REMARK    6  A    between atoms: C_12  and  C_13
REMARK    7  A    between atoms: C_16  and  N_17
REMARK    8  A    between atoms: C_23  and  C_24
REMARK                            x       y       z     vdW  Elec       q    Type
REMARK                         _______ _______ _______ _____ _____    ______ ____
ROOT
ATOM      1  C   UNL     1       7.316   6.861  17.082  0.00  0.00    +0.000 C 
ATOM      2  O   UNL     1       7.785   6.369  16.068  0.00  0.00    +0.000 OA
ENDROOT
BRANCH   1   4
ATOM      3  C   UNL     1       5.157   6.016  17.843  0.00  0.00    +0.000 C 
ATOM      4  C   UNL     1       6.482   6.090  18.047  0.00  0.00    +0.000 C 
BRANCH   3  10
ATOM      5  C   UNL     1       1.459   3.234  21.162  0.00  0.00    +0.000 C 
ATOM      6  C   UNL     1       2.439   3.958  20.286  0.00  0.00    +0.000 A 
ATOM      7  N   UNL     1       2.056   5.171  19.821  0.00  0.00    +0.000 NA
ATOM      8  C   UNL     1       2.939   5.836  19.026  0.00  0.00    +0.000 A 
ATOM      9  C   UNL     1       2.481   7.173  18.524  0.00  0.00    +0.000 C 
ATOM     10  C   UNL     1       4.192   5.299  18.700  0.00  0.00    +0.000 A 
ATOM     11  N   UNL     1       4.574   4.081  19.167  0.00  0.00    +0.000 NA
ATOM     12  C   UNL     1       3.686   3.417  19.962  0.00  0.00    +0.000 A 
ATOM     13  C   UNL     1       4.103   2.071  20.476  0.00  0.00    +0.000 C 
ENDBRANCH   3  10
ENDBRANCH   1   4
BRANCH   1  14
ATOM     14  C   UNL     1       7.534   8.286  17.451  0.00  0.00    +0.000 C 
ATOM     15  C   UNL     1       8.588   8.644  18.204  0.00  0.00    +0.000 C 
BRANCH  15  16
ATOM     16  C   UNL     1       8.842  10.036  18.609  0.00  0.00    +0.000 A 
ATOM     17  C   UNL     1       9.334  10.303  19.896  0.00  0.00    +0.000 A 
ATOM     18  C   UNL     1       9.600  11.617  20.301  0.00  0.00    +0.000 A 
ATOM     19  C   UNL     1       9.383  12.673  19.407  0.00  0.00    +0.000 A 
ATOM     20  C   UNL     1       8.887  12.423  18.123  0.00  0.00    +0.000 A 
ATOM     21  C   UNL     1       8.622  11.107  17.732  0.00  0.00    +0.000 A 
BRANCH  19  22
ATOM     22  N   UNL     1       9.677  14.052  19.817  0.00  0.00    +0.000 N 
ATOM     23  O   UNL     1       9.161  14.467  20.862  0.00  0.00    +0.000 OA
ATOM     24  O   UNL     1      10.430  14.719  19.090  0.00  0.00    +0.000 OA
ENDBRANCH  19  22
ENDBRANCH  15  16
ENDBRANCH   1  14
TORSDOF 5
ENDMDL
