MODEL 1
REMARK VINA RESULT:      -7.1      0.000      0.000
REMARK  Name = 
REMARK  12 active torsions:
REMARK  status: ('A' for Active; 'I' for Inactive)
REMARK    1  A    between atoms: C_1  and  O_2
REMARK    2  A    between atoms: O_2  and  C_3
REMARK    3  A    between atoms: C_3  and  C_4
REMARK    4  A    between atoms: C_4  and  N_5
REMARK    5  A    between atoms: N_5  and  C_6
REMARK    6  A    between atoms: N_5  and  C_19
REMARK    7  A    between atoms: C_6  and  C_7
REMARK    8  A    between atoms: C_10  and  C_11
REMARK    9  A    between atoms: C_15  and  C_16
REMARK   10  A    between atoms: C_19  and  C_20
REMARK   11  A    between atoms: C_19  and  C_21
REMARK   12  A    between atoms: C_19  and  C_22
REMARK                            x       y       z     vdW  Elec       q    Type
REMARK                         _______ _______ _______ _____ _____    ______ ____
ROOT
ATOM      1  C   UNL     1       5.906   4.604  17.981  0.00  0.00    +0.000 A 
ATOM      2  C   UNL     1       7.094   5.304  17.948  0.00  0.00    +0.000 A 
ATOM      3  O   UNL     1       7.509   5.383  16.653  0.00  0.00    +0.000 OA
ATOM      4  C   UNL     1       6.552   4.701  15.951  0.00  0.00    +0.000 A 
ATOM      5  N   UNL     1       5.570   4.234  16.698  0.00  0.00    +0.000 NA
ENDROOT
BRANCH   4   6
ATOM      6  C   UNL     1       6.776   4.490  14.527  0.00  0.00    +0.000 A 
ATOM      7  C   UNL     1       7.703   5.304  13.858  0.00  0.00    +0.000 A 
ATOM      8  C   UNL     1       7.852   5.230  12.475  0.00  0.00    +0.000 A 
ATOM      9  C   UNL     1       7.072   4.341  11.740  0.00  0.00    +0.000 A 
ATOM     10  C   UNL     1       6.158   3.500  12.385  0.00  0.00    +0.000 A 
ATOM     11  C   UNL     1       5.278   2.575  11.598  0.00  0.00    +0.000 C 
ATOM     12  C   UNL     1       6.027   3.571  13.781  0.00  0.00    +0.000 A 
ENDBRANCH   4   6
BRANCH   1  13
ATOM     13  C   UNL     1       5.075   4.206  19.157  0.00  0.00    +0.000 C 
BRANCH  13  14
ATOM     14  N   UNL     1       3.644   4.547  19.043  0.00  0.00    +0.000 NA
BRANCH  14  15
ATOM     15  C   UNL     1       2.685   3.418  18.856  0.00  0.00    +0.000 C 
ATOM     16  C   UNL     1       1.922   3.585  17.514  0.00  0.00    +0.000 C 
ATOM     17  C   UNL     1       3.423   2.062  18.741  0.00  0.00    +0.000 C 
ATOM     18  C   UNL     1       1.616   3.293  19.963  0.00  0.00    +0.000 C 
ENDBRANCH  14  15
BRANCH  14  19
ATOM     19  C   UNL     1       3.205   5.592  20.001  0.00  0.00    +0.000 C 
BRANCH  19  20
ATOM     20  C   UNL     1       2.445   6.830  19.466  0.00  0.00    +0.000 C 
BRANCH  20  22
ATOM     21  C   UNL     1       2.345   8.456  17.765  0.00  0.00    +0.000 C 
ATOM     22  O   UNL     1       3.002   7.281  18.228  0.00  0.00    +0.000 OA
ENDBRANCH  20  22
ENDBRANCH  19  20
ENDBRANCH  14  19
ENDBRANCH  13  14
ENDBRANCH   1  13
TORSDOF 7
ENDMDL
MODEL 2
REMARK VINA RESULT:      -7.1      0.745      1.186
REMARK  Name = 
REMARK  12 active torsions:
REMARK  status: ('A' for Active; 'I' for Inactive)
REMARK    1  A    between atoms: C_1  and  O_2
REMARK    2  A    between atoms: O_2  and  C_3
REMARK    3  A    between atoms: C_3  and  C_4
REMARK    4  A    between atoms: C_4  and  N_5
REMARK    5  A    between atoms: N_5  and  C_6
REMARK    6  A    between atoms: N_5  and  C_19
REMARK    7  A    between atoms: C_6  and  C_7
REMARK    8  A    between atoms: C_10  and  C_11
REMARK    9  A    between atoms: C_15  and  C_16
REMARK   10  A    between atoms: C_19  and  C_20
REMARK   11  A    between atoms: C_19  and  C_21
REMARK   12  A    between atoms: C_19  and  C_22
REMARK                            x       y       z     vdW  Elec       q    Type
REMARK                         _______ _______ _______ _____ _____    ______ ____
ROOT
ATOM      1  C   UNL     1       5.809   4.497  18.032  0.00  0.00    +0.000 A 
ATOM      2  C   UNL     1       7.132   4.887  18.078  0.00  0.00    +0.000 A 
ATOM      3  O   UNL     1       7.604   4.953  16.801  0.00  0.00    +0.000 OA
ATOM      4  C   UNL     1       6.537   4.578  16.028  0.00  0.00    +0.000 A 
ATOM      5  N   UNL     1       5.443   4.313  16.717  0.00  0.00    +0.000 NA
ENDROOT
BRANCH   4   6
ATOM      6  C   UNL     1       6.758   4.422  14.597  0.00  0.00    +0.000 A 
ATOM      7  C   UNL     1       7.678   5.265  13.956  0.00  0.00    +0.000 A 
ATOM      8  C   UNL     1       7.824   5.243  12.571  0.00  0.00    +0.000 A 
ATOM      9  C   UNL     1       7.047   4.377  11.806  0.00  0.00    +0.000 A 
ATOM     10  C   UNL     1       6.140   3.507  12.421  0.00  0.00    +0.000 A 
ATOM     11  C   UNL     1       5.263   2.606  11.604  0.00  0.00    +0.000 C 
ATOM     12  C   UNL     1       6.013   3.526  13.819  0.00  0.00    +0.000 A 
ENDBRANCH   4   6
BRANCH   1  13
ATOM     13  C   UNL     1       4.862   4.231  19.156  0.00  0.00    +0.000 C 
BRANCH  13  14
ATOM     14  N   UNL     1       3.487   4.712  18.928  0.00  0.00    +0.000 NA
BRANCH  14  15
ATOM     15  C   UNL     1       2.371   3.871  19.456  0.00  0.00    +0.000 C 
ATOM     16  C   UNL     1       2.937   2.559  20.064  0.00  0.00    +0.000 C 
ATOM     17  C   UNL     1       1.633   4.577  20.618  0.00  0.00    +0.000 C 
ATOM     18  C   UNL     1       1.323   3.457  18.400  0.00  0.00    +0.000 C 
ENDBRANCH  14  15
BRANCH  14  19
ATOM     19  C   UNL     1       3.326   6.172  19.139  0.00  0.00    +0.000 C 
BRANCH  19  20
ATOM     20  C   UNL     1       2.563   7.005  18.080  0.00  0.00    +0.000 C 
BRANCH  20  22
ATOM     21  C   UNL     1       1.600   9.138  17.811  0.00  0.00    +0.000 C 
ATOM     22  O   UNL     1       2.707   8.408  18.327  0.00  0.00    +0.000 OA
ENDBRANCH  20  22
ENDBRANCH  19  20
ENDBRANCH  14  19
ENDBRANCH  13  14
ENDBRANCH   1  13
TORSDOF 7
ENDMDL
MODEL 3
REMARK VINA RESULT:      -6.9      1.605      2.895
REMARK  Name = 
REMARK  12 active torsions:
REMARK  status: ('A' for Active; 'I' for Inactive)
REMARK    1  A    between atoms: C_1  and  O_2
REMARK    2  A    between atoms: O_2  and  C_3
REMARK    3  A    between atoms: C_3  and  C_4
REMARK    4  A    between atoms: C_4  and  N_5
REMARK    5  A    between atoms: N_5  and  C_6
REMARK    6  A    between atoms: N_5  and  C_19
REMARK    7  A    between atoms: C_6  and  C_7
REMARK    8  A    between atoms: C_10  and  C_11
REMARK    9  A    between atoms: C_15  and  C_16
REMARK   10  A    between atoms: C_19  and  C_20
REMARK   11  A    between atoms: C_19  and  C_21
REMARK   12  A    between atoms: C_19  and  C_22
REMARK                            x       y       z     vdW  Elec       q    Type
REMARK                         _______ _______ _______ _____ _____    ______ ____
ROOT
ATOM      1  C   UNL     1       6.055   5.216  17.883  0.00  0.00    +0.000 A 
ATOM      2  C   UNL     1       7.336   4.711  17.981  0.00  0.00    +0.000 A 
ATOM      3  O   UNL     1       7.802   4.481  16.721  0.00  0.00    +0.000 OA
ATOM      4  C   UNL     1       6.763   4.843  15.906  0.00  0.00    +0.000 A 
ATOM      5  N   UNL     1       5.709   5.302  16.553  0.00  0.00    +0.000 NA
ENDROOT
BRANCH   4   6
ATOM      6  C   UNL     1       6.902   4.591  14.478  0.00  0.00    +0.000 A 
ATOM      7  C   UNL     1       7.772   5.396  13.728  0.00  0.00    +0.000 A 
ATOM      8  C   UNL     1       7.837   5.280  12.341  0.00  0.00    +0.000 A 
ATOM      9  C   UNL     1       7.028   4.357  11.684  0.00  0.00    +0.000 A 
ATOM     10  C   UNL     1       6.169   3.524  12.410  0.00  0.00    +0.000 A 
ATOM     11  C   UNL     1       5.258   2.561  11.710  0.00  0.00    +0.000 C 
ATOM     12  C   UNL     1       6.124   3.637  13.809  0.00  0.00    +0.000 A 
ENDBRANCH   4   6
BRANCH   1  13
ATOM     13  C   UNL     1       5.098   5.583  18.969  0.00  0.00    +0.000 C 
BRANCH  13  14
ATOM     14  N   UNL     1       3.956   4.662  19.120  0.00  0.00    +0.000 NA
BRANCH  14  15
ATOM     15  C   UNL     1       2.592   5.218  18.875  0.00  0.00    +0.000 C 
ATOM     16  C   UNL     1       1.864   4.379  17.790  0.00  0.00    +0.000 C 
ATOM     17  C   UNL     1       1.704   5.114  20.138  0.00  0.00    +0.000 C 
ATOM     18  C   UNL     1       2.572   6.684  18.391  0.00  0.00    +0.000 C 
ENDBRANCH  14  15
BRANCH  14  19
ATOM     19  C   UNL     1       4.199   3.317  18.542  0.00  0.00    +0.000 C 
BRANCH  19  20
ATOM     20  C   UNL     1       4.097   2.074  19.461  0.00  0.00    +0.000 C 
BRANCH  20  22
ATOM     21  C   UNL     1       5.350   0.900  21.073  0.00  0.00    +0.000 C 
ATOM     22  O   UNL     1       4.989   2.184  20.575  0.00  0.00    +0.000 OA
ENDBRANCH  20  22
ENDBRANCH  19  20
ENDBRANCH  14  19
ENDBRANCH  13  14
ENDBRANCH   1  13
TORSDOF 7
ENDMDL
MODEL 4
REMARK VINA RESULT:      -6.8      1.875      3.106
REMARK  Name = 
REMARK  12 active torsions:
REMARK  status: ('A' for Active; 'I' for Inactive)
REMARK    1  A    between atoms: C_1  and  O_2
REMARK    2  A    between atoms: O_2  and  C_3
REMARK    3  A    between atoms: C_3  and  C_4
REMARK    4  A    between atoms: C_4  and  N_5
REMARK    5  A    between atoms: N_5  and  C_6
REMARK    6  A    between atoms: N_5  and  C_19
REMARK    7  A    between atoms: C_6  and  C_7
REMARK    8  A    between atoms: C_10  and  C_11
REMARK    9  A    between atoms: C_15  and  C_16
REMARK   10  A    between atoms: C_19  and  C_20
REMARK   11  A    between atoms: C_19  and  C_21
REMARK   12  A    between atoms: C_19  and  C_22
REMARK                            x       y       z     vdW  Elec       q    Type
REMARK                         _______ _______ _______ _____ _____    ______ ____
ROOT
ATOM      1  C   UNL     1       5.282   4.956  18.067  0.00  0.00    +0.000 A 
ATOM      2  C   UNL     1       6.639   4.834  18.281  0.00  0.00    +0.000 A 
ATOM      3  O   UNL     1       7.255   4.712  17.072  0.00  0.00    +0.000 OA
ATOM      4  C   UNL     1       6.227   4.746  16.167  0.00  0.00    +0.000 A 
ATOM      5  N   UNL     1       5.037   4.906  16.713  0.00  0.00    +0.000 NA
ENDROOT
BRANCH   4   6
ATOM      6  C   UNL     1       6.549   4.506  14.766  0.00  0.00    +0.000 A 
ATOM      7  C   UNL     1       7.612   5.213  14.184  0.00  0.00    +0.000 A 
ATOM      8  C   UNL     1       7.871   5.117  12.818  0.00  0.00    +0.000 A 
ATOM      9  C   UNL     1       7.065   4.313  12.015  0.00  0.00    +0.000 A 
ATOM     10  C   UNL     1       6.014   3.579  12.574  0.00  0.00    +0.000 A 
ATOM     11  C   UNL     1       5.111   2.750  11.711  0.00  0.00    +0.000 C 
ATOM     12  C   UNL     1       5.772   3.669  13.954  0.00  0.00    +0.000 A 
ENDBRANCH   4   6
BRANCH   1  13
ATOM     13  C   UNL     1       4.174   5.066  19.063  0.00  0.00    +0.000 C 
BRANCH  13  14
ATOM     14  N   UNL     1       3.496   3.794  19.372  0.00  0.00    +0.000 NA
BRANCH  14  15
ATOM     15  C   UNL     1       2.203   3.520  18.675  0.00  0.00    +0.000 C 
ATOM     16  C   UNL     1       2.373   2.333  17.689  0.00  0.00    +0.000 C 
ATOM     17  C   UNL     1       1.108   3.071  19.673  0.00  0.00    +0.000 C 
ATOM     18  C   UNL     1       1.651   4.706  17.855  0.00  0.00    +0.000 C 
ENDBRANCH  14  15
BRANCH  14  19
ATOM     19  C   UNL     1       4.420   2.635  19.459  0.00  0.00    +0.000 C 
BRANCH  19  20
ATOM     20  C   UNL     1       4.592   1.912  20.818  0.00  0.00    +0.000 C 
BRANCH  20  22
ATOM     21  C   UNL     1       5.935   0.400  22.025  0.00  0.00    +0.000 C 
ATOM     22  O   UNL     1       5.593   0.893  20.734  0.00  0.00    +0.000 OA
ENDBRANCH  20  22
ENDBRANCH  19  20
ENDBRANCH  14  19
ENDBRANCH  13  14
ENDBRANCH   1  13
TORSDOF 7
ENDMDL
MODEL 5
REMARK VINA RESULT:      -6.8      1.332      1.694
REMARK  Name = 
REMARK  12 active torsions:
REMARK  status: ('A' for Active; 'I' for Inactive)
REMARK    1  A    between atoms: C_1  and  O_2
REMARK    2  A    between atoms: O_2  and  C_3
REMARK    3  A    between atoms: C_3  and  C_4
REMARK    4  A    between atoms: C_4  and  N_5
REMARK    5  A    between atoms: N_5  and  C_6
REMARK    6  A    between atoms: N_5  and  C_19
REMARK    7  A    between atoms: C_6  and  C_7
REMARK    8  A    between atoms: C_10  and  C_11
REMARK    9  A    between atoms: C_15  and  C_16
REMARK   10  A    between atoms: C_19  and  C_20
REMARK   11  A    between atoms: C_19  and  C_21
REMARK   12  A    between atoms: C_19  and  C_22
REMARK                            x       y       z     vdW  Elec       q    Type
REMARK                         _______ _______ _______ _____ _____    ______ ____
ROOT
ATOM      1  C   UNL     1       4.889   5.613  17.708  0.00  0.00    +0.000 A 
ATOM      2  C   UNL     1       5.201   6.848  17.177  0.00  0.00    +0.000 A 
ATOM      3  O   UNL     1       5.631   6.668  15.897  0.00  0.00    +0.000 OA
ATOM      4  C   UNL     1       5.578   5.312  15.712  0.00  0.00    +0.000 A 
ATOM      5  N   UNL     1       5.127   4.646  16.758  0.00  0.00    +0.000 NA
ENDROOT
BRANCH   4   6
ATOM      6  C   UNL     1       6.104   4.777  14.463  0.00  0.00    +0.000 A 
ATOM      7  C   UNL     1       7.331   5.259  13.982  0.00  0.00    +0.000 A 
ATOM      8  C   UNL     1       7.807   4.876  12.730  0.00  0.00    +0.000 A 
ATOM      9  C   UNL     1       7.060   4.006  11.940  0.00  0.00    +0.000 A 
ATOM     10  C   UNL     1       5.845   3.491  12.407  0.00  0.00    +0.000 A 
ATOM     11  C   UNL     1       5.010   2.593  11.545  0.00  0.00    +0.000 C 
ATOM     12  C   UNL     1       5.382   3.870  13.677  0.00  0.00    +0.000 A 
ENDBRANCH   4   6
BRANCH   1  13
ATOM     13  C   UNL     1       4.425   5.266  19.084  0.00  0.00    +0.000 C 
BRANCH  13  14
ATOM     14  N   UNL     1       2.965   5.108  19.219  0.00  0.00    +0.000 NA
BRANCH  14  15
ATOM     15  C   UNL     1       2.459   3.782  19.685  0.00  0.00    +0.000 C 
ATOM     16  C   UNL     1       3.624   2.757  19.732  0.00  0.00    +0.000 C 
ATOM     17  C   UNL     1       1.922   3.860  21.134  0.00  0.00    +0.000 C 
ATOM     18  C   UNL     1       1.358   3.166  18.795  0.00  0.00    +0.000 C 
ENDBRANCH  14  15
BRANCH  14  19
ATOM     19  C   UNL     1       2.295   6.284  19.829  0.00  0.00    +0.000 C 
BRANCH  19  20
ATOM     20  C   UNL     1       2.258   7.619  19.044  0.00  0.00    +0.000 C 
BRANCH  20  22
ATOM     21  C   UNL     1       1.221   8.178  21.083  0.00  0.00    +0.000 C 
ATOM     22  O   UNL     1       1.538   8.621  19.768  0.00  0.00    +0.000 OA
ENDBRANCH  20  22
ENDBRANCH  19  20
ENDBRANCH  14  19
ENDBRANCH  13  14
ENDBRANCH   1  13
TORSDOF 7
ENDMDL
MODEL 6
REMARK VINA RESULT:      -6.8      1.113      1.140
REMARK  Name = 
REMARK  12 active torsions:
REMARK  status: ('A' for Active; 'I' for Inactive)
REMARK    1  A    between atoms: C_1  and  O_2
REMARK    2  A    between atoms: O_2  and  C_3
REMARK    3  A    between atoms: C_3  and  C_4
REMARK    4  A    between atoms: C_4  and  N_5
REMARK    5  A    between atoms: N_5  and  C_6
REMARK    6  A    between atoms: N_5  and  C_19
REMARK    7  A    between atoms: C_6  and  C_7
REMARK    8  A    between atoms: C_10  and  C_11
REMARK    9  A    between atoms: C_15  and  C_16
REMARK   10  A    between atoms: C_19  and  C_20
REMARK   11  A    between atoms: C_19  and  C_21
REMARK   12  A    between atoms: C_19  and  C_22
REMARK                            x       y       z     vdW  Elec       q    Type
REMARK                         _______ _______ _______ _____ _____    ______ ____
ROOT
ATOM      1  C   UNL     1       4.859   5.424  17.605  0.00  0.00    +0.000 A 
ATOM      2  C   UNL     1       5.247   6.671  17.162  0.00  0.00    +0.000 A 
ATOM      3  O   UNL     1       5.734   6.545  15.896  0.00  0.00    +0.000 OA
ATOM      4  C   UNL     1       5.637   5.205  15.631  0.00  0.00    +0.000 A 
ATOM      5  N   UNL     1       5.106   4.501  16.613  0.00  0.00    +0.000 NA
ENDROOT
BRANCH   4   6
ATOM      6  C   UNL     1       6.204   4.717  14.380  0.00  0.00    +0.000 A 
ATOM      7  C   UNL     1       7.359   5.332  13.875  0.00  0.00    +0.000 A 
ATOM      8  C   UNL     1       7.860   4.991  12.620  0.00  0.00    +0.000 A 
ATOM      9  C   UNL     1       7.208   4.030  11.851  0.00  0.00    +0.000 A 
ATOM     10  C   UNL     1       6.068   3.383  12.343  0.00  0.00    +0.000 A 
ATOM     11  C   UNL     1       5.330   2.384  11.504  0.00  0.00    +0.000 C 
ATOM     12  C   UNL     1       5.581   3.723  13.615  0.00  0.00    +0.000 A 
ENDBRANCH   4   6
BRANCH   1  13
ATOM     13  C   UNL     1       4.311   5.020  18.934  0.00  0.00    +0.000 C 
BRANCH  13  14
ATOM     14  N   UNL     1       2.922   4.528  18.903  0.00  0.00    +0.000 NA
BRANCH  14  15
ATOM     15  C   UNL     1       2.687   3.113  19.321  0.00  0.00    +0.000 C 
ATOM     16  C   UNL     1       2.421   2.228  18.074  0.00  0.00    +0.000 C 
ATOM     17  C   UNL     1       3.943   2.508  19.994  0.00  0.00    +0.000 C 
ATOM     18  C   UNL     1       1.487   2.915  20.273  0.00  0.00    +0.000 C 
ENDBRANCH  14  15
BRANCH  14  19
ATOM     19  C   UNL     1       1.934   5.507  19.421  0.00  0.00    +0.000 C 
BRANCH  19  20
ATOM     20  C   UNL     1       2.444   6.802  20.100  0.00  0.00    +0.000 C 
BRANCH  20  22
ATOM     21  C   UNL     1       2.190   8.186  18.212  0.00  0.00    +0.000 C 
ATOM     22  O   UNL     1       1.794   7.957  19.560  0.00  0.00    +0.000 OA
ENDBRANCH  20  22
ENDBRANCH  19  20
ENDBRANCH  14  19
ENDBRANCH  13  14
ENDBRANCH   1  13
TORSDOF 7
ENDMDL
MODEL 7
REMARK VINA RESULT:      -6.8      0.770      1.257
REMARK  Name = 
REMARK  12 active torsions:
REMARK  status: ('A' for Active; 'I' for Inactive)
REMARK    1  A    between atoms: C_1  and  O_2
REMARK    2  A    between atoms: O_2  and  C_3
REMARK    3  A    between atoms: C_3  and  C_4
REMARK    4  A    between atoms: C_4  and  N_5
REMARK    5  A    between atoms: N_5  and  C_6
REMARK    6  A    between atoms: N_5  and  C_19
REMARK    7  A    between atoms: C_6  and  C_7
REMARK    8  A    between atoms: C_10  and  C_11
REMARK    9  A    between atoms: C_15  and  C_16
REMARK   10  A    between atoms: C_19  and  C_20
REMARK   11  A    between atoms: C_19  and  C_21
REMARK   12  A    between atoms: C_19  and  C_22
REMARK                            x       y       z     vdW  Elec       q    Type
REMARK                         _______ _______ _______ _____ _____    ______ ____
ROOT
ATOM      1  C   UNL     1       5.592   5.103  17.836  0.00  0.00    +0.000 A 
ATOM      2  C   UNL     1       6.202   6.307  17.547  0.00  0.00    +0.000 A 
ATOM      3  O   UNL     1       6.576   6.294  16.237  0.00  0.00    +0.000 OA
ATOM      4  C   UNL     1       6.188   5.059  15.788  0.00  0.00    +0.000 A 
ATOM      5  N   UNL     1       5.584   4.323  16.701  0.00  0.00    +0.000 NA
ENDROOT
BRANCH   4   6
ATOM      6  C   UNL     1       6.568   4.679  14.434  0.00  0.00    +0.000 A 
ATOM      7  C   UNL     1       7.569   5.412  13.779  0.00  0.00    +0.000 A 
ATOM      8  C   UNL     1       7.871   5.172  12.441  0.00  0.00    +0.000 A 
ATOM      9  C   UNL     1       7.171   4.195  11.737  0.00  0.00    +0.000 A 
ATOM     10  C   UNL     1       6.185   3.433  12.373  0.00  0.00    +0.000 A 
ATOM     11  C   UNL     1       5.391   2.413  11.611  0.00  0.00    +0.000 C 
ATOM     12  C   UNL     1       5.900   3.671  13.726  0.00  0.00    +0.000 A 
ENDBRANCH   4   6
BRANCH   1  13
ATOM     13  C   UNL     1       5.052   4.605  19.136  0.00  0.00    +0.000 C 
BRANCH  13  14
ATOM     14  N   UNL     1       3.621   4.250  19.113  0.00  0.00    +0.000 NA
BRANCH  14  15
ATOM     15  C   UNL     1       3.263   2.828  19.398  0.00  0.00    +0.000 C 
ATOM     16  C   UNL     1       4.440   2.120  20.121  0.00  0.00    +0.000 C 
ATOM     17  C   UNL     1       2.065   2.732  20.373  0.00  0.00    +0.000 C 
ATOM     18  C   UNL     1       2.935   1.984  18.148  0.00  0.00    +0.000 C 
ENDBRANCH  14  15
BRANCH  14  19
ATOM     19  C   UNL     1       2.749   5.259  19.764  0.00  0.00    +0.000 C 
BRANCH  19  20
ATOM     20  C   UNL     1       2.051   6.328  18.886  0.00  0.00    +0.000 C 
BRANCH  20  22
ATOM     21  C   UNL     1       2.440   8.390  17.817  0.00  0.00    +0.000 C 
ATOM     22  O   UNL     1       2.749   7.576  18.943  0.00  0.00    +0.000 OA
ENDBRANCH  20  22
ENDBRANCH  19  20
ENDBRANCH  14  19
ENDBRANCH  13  14
ENDBRANCH   1  13
TORSDOF 7
ENDMDL
MODEL 8
REMARK VINA RESULT:      -6.6      3.270      8.379
REMARK  Name = 
REMARK  12 active torsions:
REMARK  status: ('A' for Active; 'I' for Inactive)
REMARK    1  A    between atoms: C_1  and  O_2
REMARK    2  A    between atoms: O_2  and  C_3
REMARK    3  A    between atoms: C_3  and  C_4
REMARK    4  A    between atoms: C_4  and  N_5
REMARK    5  A    between atoms: N_5  and  C_6
REMARK    6  A    between atoms: N_5  and  C_19
REMARK    7  A    between atoms: C_6  and  C_7
REMARK    8  A    between atoms: C_10  and  C_11
REMARK    9  A    between atoms: C_15  and  C_16
REMARK   10  A    between atoms: C_19  and  C_20
REMARK   11  A    between atoms: C_19  and  C_21
REMARK   12  A    between atoms: C_19  and  C_22
REMARK                            x       y       z     vdW  Elec       q    Type
REMARK                         _______ _______ _______ _____ _____    ______ ____
ROOT
ATOM      1  C   UNL     1       2.444   7.492  18.596  0.00  0.00    +0.000 A 
ATOM      2  C   UNL     1       2.030   8.557  17.823  0.00  0.00    +0.000 A 
ATOM      3  O   UNL     1       1.405   9.457  18.632  0.00  0.00    +0.000 OA
ATOM      4  C   UNL     1       1.452   8.881  19.874  0.00  0.00    +0.000 A 
ATOM      5  N   UNL     1       2.075   7.719  19.903  0.00  0.00    +0.000 NA
ENDROOT
BRANCH   4   6
ATOM      6  C   UNL     1       0.743   9.549  20.958  0.00  0.00    +0.000 A 
ATOM      7  C   UNL     1       0.207   8.773  21.997  0.00  0.00    +0.000 A 
ATOM      8  C   UNL     1      -0.591   9.351  22.982  0.00  0.00    +0.000 A 
ATOM      9  C   UNL     1      -0.867  10.715  22.939  0.00  0.00    +0.000 A 
ATOM     10  C   UNL     1      -0.324  11.516  21.927  0.00  0.00    +0.000 A 
ATOM     11  C   UNL     1      -0.655  12.976  21.843  0.00  0.00    +0.000 C 
ATOM     12  C   UNL     1       0.492  10.927  20.949  0.00  0.00    +0.000 A 
ENDBRANCH   4   6
BRANCH   1  13
ATOM     13  C   UNL     1       3.128   6.231  18.180  0.00  0.00    +0.000 C 
BRANCH  13  14
ATOM     14  N   UNL     1       3.161   5.179  19.214  0.00  0.00    +0.000 NA
BRANCH  14  15
ATOM     15  C   UNL     1       2.150   4.086  19.111  0.00  0.00    +0.000 C 
ATOM     16  C   UNL     1       1.434   4.152  17.736  0.00  0.00    +0.000 C 
ATOM     17  C   UNL     1       2.819   2.691  19.159  0.00  0.00    +0.000 C 
ATOM     18  C   UNL     1       1.046   4.128  20.191  0.00  0.00    +0.000 C 
ENDBRANCH  14  15
BRANCH  14  19
ATOM     19  C   UNL     1       4.534   4.734  19.562  0.00  0.00    +0.000 C 
BRANCH  19  20
ATOM     20  C   UNL     1       5.743   5.432  18.893  0.00  0.00    +0.000 C 
BRANCH  20  22
ATOM     21  C   UNL     1       7.187   4.653  17.204  0.00  0.00    +0.000 C 
ATOM     22  O   UNL     1       6.759   4.485  18.551  0.00  0.00    +0.000 OA
ENDBRANCH  20  22
ENDBRANCH  19  20
ENDBRANCH  14  19
ENDBRANCH  13  14
ENDBRANCH   1  13
TORSDOF 7
ENDMDL
MODEL 9
REMARK VINA RESULT:      -6.5      1.804      3.043
REMARK  Name = 
REMARK  12 active torsions:
REMARK  status: ('A' for Active; 'I' for Inactive)
REMARK    1  A    between atoms: C_1  and  O_2
REMARK    2  A    between atoms: O_2  and  C_3
REMARK    3  A    between atoms: C_3  and  C_4
REMARK    4  A    between atoms: C_4  and  N_5
REMARK    5  A    between atoms: N_5  and  C_6
REMARK    6  A    between atoms: N_5  and  C_19
REMARK    7  A    between atoms: C_6  and  C_7
REMARK    8  A    between atoms: C_10  and  C_11
REMARK    9  A    between atoms: C_15  and  C_16
REMARK   10  A    between atoms: C_19  and  C_20
REMARK   11  A    between atoms: C_19  and  C_21
REMARK   12  A    between atoms: C_19  and  C_22
REMARK                            x       y       z     vdW  Elec       q    Type
REMARK                         _______ _______ _______ _____ _____    ______ ____
ROOT
ATOM      1  C   UNL     1       5.119   5.612  17.682  0.00  0.00    +0.000 A 
ATOM      2  C   UNL     1       4.914   6.787  16.988  0.00  0.00    +0.000 A 
ATOM      3  O   UNL     1       5.261   6.581  15.686  0.00  0.00    +0.000 OA
ATOM      4  C   UNL     1       5.686   5.279  15.653  0.00  0.00    +0.000 A 
ATOM      5  N   UNL     1       5.603   4.659  16.814  0.00  0.00    +0.000 NA
ENDROOT
BRANCH   4   6
ATOM      6  C   UNL     1       6.254   4.783  14.407  0.00  0.00    +0.000 A 
ATOM      7  C   UNL     1       7.403   5.402  13.891  0.00  0.00    +0.000 A 
ATOM      8  C   UNL     1       7.903   5.050  12.639  0.00  0.00    +0.000 A 
ATOM      9  C   UNL     1       7.257   4.075  11.883  0.00  0.00    +0.000 A 
ATOM     10  C   UNL     1       6.123   3.425  12.384  0.00  0.00    +0.000 A 
ATOM     11  C   UNL     1       5.391   2.410  11.559  0.00  0.00    +0.000 C 
ATOM     12  C   UNL     1       5.637   3.775  13.654  0.00  0.00    +0.000 A 
ENDBRANCH   4   6
BRANCH   1  13
ATOM     13  C   UNL     1       4.938   5.330  19.138  0.00  0.00    +0.000 C 
BRANCH  13  14
ATOM     14  N   UNL     1       3.820   4.423  19.455  0.00  0.00    +0.000 NA
BRANCH  14  15
ATOM     15  C   UNL     1       2.449   5.013  19.490  0.00  0.00    +0.000 C 
ATOM     16  C   UNL     1       1.696   4.688  18.172  0.00  0.00    +0.000 C 
ATOM     17  C   UNL     1       1.593   4.386  20.617  0.00  0.00    +0.000 C 
ATOM     18  C   UNL     1       2.413   6.548  19.656  0.00  0.00    +0.000 C 
ENDBRANCH  14  15
BRANCH  14  19
ATOM     19  C   UNL     1       3.918   3.103  18.782  0.00  0.00    +0.000 C 
BRANCH  19  20
ATOM     20  C   UNL     1       4.113   1.833  19.646  0.00  0.00    +0.000 C 
BRANCH  20  22
ATOM     21  C   UNL     1       5.456   0.803  21.283  0.00  0.00    +0.000 C 
ATOM     22  O   UNL     1       5.156   2.020  20.608  0.00  0.00    +0.000 OA
ENDBRANCH  20  22
ENDBRANCH  19  20
ENDBRANCH  14  19
ENDBRANCH  13  14
ENDBRANCH   1  13
TORSDOF 7
ENDMDL
