MODEL 1
REMARK VINA RESULT:      -9.0      0.000      0.000
REMARK  Name = 
REMARK  8 active torsions:
REMARK  status: ('A' for Active; 'I' for Inactive)
REMARK    1  A    between atoms: C_1  and  C_2
REMARK    2  A    between atoms: C_2  and  C_3
REMARK    3  A    between atoms: C_12  and  C_13
REMARK    4  A    between atoms: N_15  and  C_16
REMARK    5  A    between atoms: C_16  and  C_17
REMARK    6  A    between atoms: N_25  and  C_26
REMARK    7  A    between atoms: C_26  and  C_27
REMARK    8  A    between atoms: C_30  and  C_31
REMARK                            x       y       z     vdW  Elec       q    Type
REMARK                         _______ _______ _______ _____ _____    ______ ____
ROOT
ATOM      1  C   UNL     1       1.315   9.035  18.967  0.00  0.00    +0.000 A 
ATOM      2  C   UNL     1       1.300   8.304  20.164  0.00  0.00    +0.000 A 
ATOM      3  C   UNL     1       2.073   7.116  20.286  0.00  0.00    +0.000 A 
ATOM      4  C   UNL     1       2.961   6.726  19.252  0.00  0.00    +0.000 A 
ATOM      5  C   UNL     1       2.837   7.453  18.060  0.00  0.00    +0.000 A 
ATOM      6  C   UNL     1       1.894   8.455  17.861  0.00  0.00    +0.000 A 
ATOM      7  C   UNL     1       3.904   7.363  17.015  0.00  0.00    +0.000 C 
ATOM      8  C   UNL     1       5.245   7.068  17.645  0.00  0.00    +0.000 C 
ATOM      9  N   UNL     1       5.173   5.829  18.392  0.00  0.00    +0.000 NA
ATOM     10  C   UNL     1       4.049   5.634  19.331  0.00  0.00    +0.000 C 
ENDROOT
BRANCH   1  11
ATOM     11  C   UNL     1       1.132  10.532  18.847  0.00  0.00    +0.000 C 
BRANCH  11  14
ATOM     12  C   UNL     1      -1.201  11.127  19.279  0.00  0.00    +0.000 C 
ATOM     13  O   UNL     1      -1.026  11.031  20.488  0.00  0.00    +0.000 OA
ATOM     14  N   UNL     1      -0.161  10.956  18.372  0.00  0.00    +0.000 N 
ATOM     15  H   UNL     1      -0.388  10.767  17.408  0.00  0.00    +0.000 HD
BRANCH  12  25
ATOM     16  C   UNL     1      -2.978  10.875  17.485  0.00  0.00    +0.000 A 
ATOM     17  N   UNL     1      -4.255  11.325  17.242  0.00  0.00    +0.000 NA
ATOM     18  C   UNL     1      -4.578  12.058  18.283  0.00  0.00    +0.000 A 
ATOM     19  C   UNL     1      -5.767  12.788  18.573  0.00  0.00    +0.000 A 
ATOM     20  C   UNL     1      -5.865  13.472  19.726  0.00  0.00    +0.000 A 
ATOM     21 CL   UNL     1      -7.282  14.384  20.102  0.00  0.00    +0.000 Cl
ATOM     22  C   UNL     1      -4.790  13.463  20.702  0.00  0.00    +0.000 A 
ATOM     23  C   UNL     1      -3.668  12.773  20.436  0.00  0.00    +0.000 A 
ATOM     24  N   UNL     1      -3.544  12.094  19.221  0.00  0.00    +0.000 N 
ATOM     25  C   UNL     1      -2.494  11.364  18.693  0.00  0.00    +0.000 A 
BRANCH  16  27
ATOM     26  C   UNL     1      -3.049   9.947  15.145  0.00  0.00    +0.000 C 
ATOM     27  C   UNL     1      -2.290  10.033  16.460  0.00  0.00    +0.000 C 
ENDBRANCH  16  27
ENDBRANCH  12  25
ENDBRANCH  11  14
ENDBRANCH   1  11
BRANCH   9  28
ATOM     28  C   UNL     1       6.068   4.776  17.925  0.00  0.00    +0.000 C 
BRANCH  28  29
ATOM     29  C   UNL     1       6.146   4.571  16.417  0.00  0.00    +0.000 A 
ATOM     30  C   UNL     1       7.258   4.979  15.649  0.00  0.00    +0.000 A 
ATOM     31  C   UNL     1       7.366   4.693  14.281  0.00  0.00    +0.000 A 
ATOM     32  C   UNL     1       6.341   3.986  13.627  0.00  0.00    +0.000 A 
ATOM     33  C   UNL     1       6.462   3.563  12.186  0.00  0.00    +0.000 C 
ATOM     34  C   UNL     1       5.204   3.630  14.362  0.00  0.00    +0.000 A 
ATOM     35  C   UNL     1       5.104   3.930  15.730  0.00  0.00    +0.000 A 
ENDBRANCH  28  29
ENDBRANCH   9  28
TORSDOF 6
ENDMDL
MODEL 2
REMARK VINA RESULT:      -8.9      4.074     11.414
REMARK  Name = 
REMARK  8 active torsions:
REMARK  status: ('A' for Active; 'I' for Inactive)
REMARK    1  A    between atoms: C_1  and  C_2
REMARK    2  A    between atoms: C_2  and  C_3
REMARK    3  A    between atoms: C_12  and  C_13
REMARK    4  A    between atoms: N_15  and  C_16
REMARK    5  A    between atoms: C_16  and  C_17
REMARK    6  A    between atoms: N_25  and  C_26
REMARK    7  A    between atoms: C_26  and  C_27
REMARK    8  A    between atoms: C_30  and  C_31
REMARK                            x       y       z     vdW  Elec       q    Type
REMARK                         _______ _______ _______ _____ _____    ______ ____
ROOT
ATOM      1  C   UNL     1       2.380   6.531  19.492  0.00  0.00    +0.000 A 
ATOM      2  C   UNL     1       1.802   6.560  20.770  0.00  0.00    +0.000 A 
ATOM      3  C   UNL     1       1.107   7.718  21.215  0.00  0.00    +0.000 A 
ATOM      4  C   UNL     1       0.882   8.805  20.334  0.00  0.00    +0.000 A 
ATOM      5  C   UNL     1       1.577   8.734  19.118  0.00  0.00    +0.000 A 
ATOM      6  C   UNL     1       2.462   7.714  18.792  0.00  0.00    +0.000 A 
ATOM      7  C   UNL     1       1.194   9.635  17.985  0.00  0.00    +0.000 C 
ATOM      8  C   UNL     1      -0.271   9.992  18.058  0.00  0.00    +0.000 C 
ATOM      9  N   UNL     1      -0.557  10.635  19.325  0.00  0.00    +0.000 NA
ATOM     10  C   UNL     1      -0.064  10.002  20.565  0.00  0.00    +0.000 C 
ENDROOT
BRANCH   1  11
ATOM     11  C   UNL     1       2.558   5.298  18.634  0.00  0.00    +0.000 C 
BRANCH  11  14
ATOM     12  C   UNL     1       4.846   4.825  17.909  0.00  0.00    +0.000 C 
ATOM     13  O   UNL     1       5.054   4.164  18.919  0.00  0.00    +0.000 OA
ATOM     14  N   UNL     1       3.601   5.386  17.643  0.00  0.00    +0.000 N 
ATOM     15  H   UNL     1       3.543   6.135  16.970  0.00  0.00    +0.000 HD
BRANCH  12  25
ATOM     16  C   UNL     1       6.999   5.923  17.133  0.00  0.00    +0.000 A 
ATOM     17  N   UNL     1       7.750   5.998  15.982  0.00  0.00    +0.000 NA
ATOM     18  C   UNL     1       7.128   5.247  15.103  0.00  0.00    +0.000 A 
ATOM     19  C   UNL     1       7.435   4.964  13.739  0.00  0.00    +0.000 A 
ATOM     20  C   UNL     1       6.635   4.148  13.031  0.00  0.00    +0.000 A 
ATOM     21 CL   UNL     1       6.965   3.798  11.373  0.00  0.00    +0.000 Cl
ATOM     22  C   UNL     1       5.470   3.525  13.634  0.00  0.00    +0.000 A 
ATOM     23  C   UNL     1       5.177   3.785  14.919  0.00  0.00    +0.000 A 
ATOM     24  N   UNL     1       5.983   4.664  15.648  0.00  0.00    +0.000 N 
ATOM     25  C   UNL     1       5.873   5.128  16.947  0.00  0.00    +0.000 A 
BRANCH  16  27
ATOM     26  C   UNL     1       8.051   5.853  19.419  0.00  0.00    +0.000 C 
ATOM     27  C   UNL     1       7.416   6.707  18.334  0.00  0.00    +0.000 C 
ENDBRANCH  16  27
ENDBRANCH  12  25
ENDBRANCH  11  14
ENDBRANCH   1  11
BRANCH   9  28
ATOM     28  C   UNL     1      -1.060  12.000  19.221  0.00  0.00    +0.000 C 
BRANCH  28  29
ATOM     29  C   UNL     1      -2.551  12.196  19.470  0.00  0.00    +0.000 A 
ATOM     30  C   UNL     1      -3.053  12.862  20.608  0.00  0.00    +0.000 A 
ATOM     31  C   UNL     1      -4.419  13.129  20.776  0.00  0.00    +0.000 A 
ATOM     32  C   UNL     1      -5.341  12.718  19.797  0.00  0.00    +0.000 A 
ATOM     33  C   UNL     1      -6.802  13.076  19.883  0.00  0.00    +0.000 C 
ATOM     34  C   UNL     1      -4.865  12.000  18.693  0.00  0.00    +0.000 A 
ATOM     35  C   UNL     1      -3.495  11.733  18.540  0.00  0.00    +0.000 A 
ENDBRANCH  28  29
ENDBRANCH   9  28
TORSDOF 6
ENDMDL
MODEL 3
REMARK VINA RESULT:      -8.9      3.953     11.650
REMARK  Name = 
REMARK  8 active torsions:
REMARK  status: ('A' for Active; 'I' for Inactive)
REMARK    1  A    between atoms: C_1  and  C_2
REMARK    2  A    between atoms: C_2  and  C_3
REMARK    3  A    between atoms: C_12  and  C_13
REMARK    4  A    between atoms: N_15  and  C_16
REMARK    5  A    between atoms: C_16  and  C_17
REMARK    6  A    between atoms: N_25  and  C_26
REMARK    7  A    between atoms: C_26  and  C_27
REMARK    8  A    between atoms: C_30  and  C_31
REMARK                            x       y       z     vdW  Elec       q    Type
REMARK                         _______ _______ _______ _____ _____    ______ ____
ROOT
ATOM      1  C   UNL     1       0.354   9.950  18.808  0.00  0.00    +0.000 A 
ATOM      2  C   UNL     1      -0.781  10.172  18.014  0.00  0.00    +0.000 A 
ATOM      3  C   UNL     1      -1.813  11.040  18.467  0.00  0.00    +0.000 A 
ATOM      4  C   UNL     1      -1.653  11.785  19.662  0.00  0.00    +0.000 A 
ATOM      5  C   UNL     1      -0.541  11.427  20.438  0.00  0.00    +0.000 A 
ATOM      6  C   UNL     1       0.330  10.395  20.111  0.00  0.00    +0.000 A 
ATOM      7  C   UNL     1      -0.080  12.327  21.542  0.00  0.00    +0.000 C 
ATOM      8  C   UNL     1      -0.422  13.766  21.237  0.00  0.00    +0.000 C 
ATOM      9  N   UNL     1      -1.853  13.901  21.050  0.00  0.00    +0.000 NA
ATOM     10  C   UNL     1      -2.539  12.949  20.151  0.00  0.00    +0.000 C 
ENDROOT
BRANCH   1  11
ATOM     11  C   UNL     1       1.742   9.641  18.293  0.00  0.00    +0.000 C 
BRANCH  11  14
ATOM     12  C   UNL     1       2.323   7.356  18.946  0.00  0.00    +0.000 C 
ATOM     13  O   UNL     1       2.333   7.672  20.130  0.00  0.00    +0.000 OA
ATOM     14  N   UNL     1       1.976   8.262  17.948  0.00  0.00    +0.000 N 
ATOM     15  H   UNL     1       2.243   8.058  16.997  0.00  0.00    +0.000 HD
BRANCH  12  25
ATOM     16  C   UNL     1       2.223   4.820  18.889  0.00  0.00    +0.000 A 
ATOM     17  N   UNL     1       2.856   3.788  18.235  0.00  0.00    +0.000 NA
ATOM     18  C   UNL     1       3.710   4.357  17.416  0.00  0.00    +0.000 A 
ATOM     19  C   UNL     1       4.645   3.785  16.503  0.00  0.00    +0.000 A 
ATOM     20  C   UNL     1       5.423   4.588  15.756  0.00  0.00    +0.000 A 
ATOM     21 CL   UNL     1       6.579   3.931  14.655  0.00  0.00    +0.000 Cl
ATOM     22  C   UNL     1       5.314   6.033  15.838  0.00  0.00    +0.000 A 
ATOM     23  C   UNL     1       4.433   6.578  16.694  0.00  0.00    +0.000 A 
ATOM     24  N   UNL     1       3.650   5.749  17.502  0.00  0.00    +0.000 N 
ATOM     25  C   UNL     1       2.720   6.053  18.480  0.00  0.00    +0.000 A 
BRANCH  16  27
ATOM     26  C   UNL     1       1.794   3.846  21.171  0.00  0.00    +0.000 C 
ATOM     27  C   UNL     1       1.204   4.510  19.936  0.00  0.00    +0.000 C 
ENDBRANCH  16  27
ENDBRANCH  12  25
ENDBRANCH  11  14
ENDBRANCH   1  11
BRANCH   9  28
ATOM     28  C   UNL     1      -2.516  14.789  21.997  0.00  0.00    +0.000 C 
BRANCH  28  29
ATOM     29  C   UNL     1      -3.874  14.334  22.518  0.00  0.00    +0.000 A 
ATOM     30  C   UNL     1      -4.017  13.321  23.490  0.00  0.00    +0.000 A 
ATOM     31  C   UNL     1      -5.263  12.982  24.039  0.00  0.00    +0.000 A 
ATOM     32  C   UNL     1      -6.423  13.652  23.613  0.00  0.00    +0.000 A 
ATOM     33  C   UNL     1      -7.765  13.397  24.250  0.00  0.00    +0.000 C 
ATOM     34  C   UNL     1      -6.305  14.615  22.604  0.00  0.00    +0.000 A 
ATOM     35  C   UNL     1      -5.054  14.939  22.057  0.00  0.00    +0.000 A 
ENDBRANCH  28  29
ENDBRANCH   9  28
TORSDOF 6
ENDMDL
MODEL 4
REMARK VINA RESULT:      -8.8      2.628      3.313
REMARK  Name = 
REMARK  8 active torsions:
REMARK  status: ('A' for Active; 'I' for Inactive)
REMARK    1  A    between atoms: C_1  and  C_2
REMARK    2  A    between atoms: C_2  and  C_3
REMARK    3  A    between atoms: C_12  and  C_13
REMARK    4  A    between atoms: N_15  and  C_16
REMARK    5  A    between atoms: C_16  and  C_17
REMARK    6  A    between atoms: N_25  and  C_26
REMARK    7  A    between atoms: C_26  and  C_27
REMARK    8  A    between atoms: C_30  and  C_31
REMARK                            x       y       z     vdW  Elec       q    Type
REMARK                         _______ _______ _______ _____ _____    ______ ____
ROOT
ATOM      1  C   UNL     1       1.932   6.613  20.011  0.00  0.00    +0.000 A 
ATOM      2  C   UNL     1       2.247   5.328  20.476  0.00  0.00    +0.000 A 
ATOM      3  C   UNL     1       3.240   4.552  19.816  0.00  0.00    +0.000 A 
ATOM      4  C   UNL     1       4.009   5.110  18.765  0.00  0.00    +0.000 A 
ATOM      5  C   UNL     1       3.561   6.356  18.302  0.00  0.00    +0.000 A 
ATOM      6  C   UNL     1       2.427   6.998  18.785  0.00  0.00    +0.000 A 
ATOM      7  C   UNL     1       4.446   7.192  17.431  0.00  0.00    +0.000 C 
ATOM      8  C   UNL     1       5.901   6.916  17.727  0.00  0.00    +0.000 C 
ATOM      9  N   UNL     1       6.185   5.510  17.522  0.00  0.00    +0.000 NA
ATOM     10  C   UNL     1       5.282   4.511  18.131  0.00  0.00    +0.000 C 
ENDROOT
BRANCH   1  11
ATOM     11  C   UNL     1       1.454   7.766  20.866  0.00  0.00    +0.000 C 
BRANCH  11  14
ATOM     12  C   UNL     1       0.153   9.820  20.593  0.00  0.00    +0.000 C 
ATOM     13  O   UNL     1      -0.451   9.604  21.637  0.00  0.00    +0.000 OA
ATOM     14  N   UNL     1       1.175   8.986  20.150  0.00  0.00    +0.000 N 
ATOM     15  H   UNL     1       1.448   9.030  19.181  0.00  0.00    +0.000 HD
BRANCH  12  25
ATOM     16  C   UNL     1      -1.029  10.881  18.613  0.00  0.00    +0.000 A 
ATOM     17  N   UNL     1      -1.086  12.110  17.996  0.00  0.00    +0.000 NA
ATOM     18  C   UNL     1      -0.309  12.898  18.703  0.00  0.00    +0.000 A 
ATOM     19  C   UNL     1       0.028  14.272  18.527  0.00  0.00    +0.000 A 
ATOM     20  C   UNL     1       0.858  14.873  19.398  0.00  0.00    +0.000 A 
ATOM     21 CL   UNL     1       1.303  16.529  19.206  0.00  0.00    +0.000 Cl
ATOM     22  C   UNL     1       1.401  14.155  20.538  0.00  0.00    +0.000 A 
ATOM     23  C   UNL     1       1.084  12.861  20.712  0.00  0.00    +0.000 A 
ATOM     24  N   UNL     1       0.255  12.222  19.786  0.00  0.00    +0.000 N 
ATOM     25  C   UNL     1      -0.175  10.909  19.710  0.00  0.00    +0.000 A 
BRANCH  16  27
ATOM     26  C   UNL     1      -2.535  10.091  16.757  0.00  0.00    +0.000 C 
ATOM     27  C   UNL     1      -1.782   9.731  18.028  0.00  0.00    +0.000 C 
ENDBRANCH  16  27
ENDBRANCH  12  25
ENDBRANCH  11  14
ENDBRANCH   1  11
BRANCH   9  28
ATOM     28  C   UNL     1       7.177   5.226  16.491  0.00  0.00    +0.000 C 
BRANCH  28  29
ATOM     29  C   UNL     1       6.641   4.748  15.147  0.00  0.00    +0.000 A 
ATOM     30  C   UNL     1       7.409   4.783  13.964  0.00  0.00    +0.000 A 
ATOM     31  C   UNL     1       6.946   4.245  12.755  0.00  0.00    +0.000 A 
ATOM     32  C   UNL     1       5.671   3.655  12.692  0.00  0.00    +0.000 A 
ATOM     33  C   UNL     1       5.174   2.970  11.444  0.00  0.00    +0.000 C 
ATOM     34  C   UNL     1       4.872   3.669  13.841  0.00  0.00    +0.000 A 
ATOM     35  C   UNL     1       5.345   4.218  15.043  0.00  0.00    +0.000 A 
ENDBRANCH  28  29
ENDBRANCH   9  28
TORSDOF 6
ENDMDL
MODEL 5
REMARK VINA RESULT:      -8.8      4.364     10.851
REMARK  Name = 
REMARK  8 active torsions:
REMARK  status: ('A' for Active; 'I' for Inactive)
REMARK    1  A    between atoms: C_1  and  C_2
REMARK    2  A    between atoms: C_2  and  C_3
REMARK    3  A    between atoms: C_12  and  C_13
REMARK    4  A    between atoms: N_15  and  C_16
REMARK    5  A    between atoms: C_16  and  C_17
REMARK    6  A    between atoms: N_25  and  C_26
REMARK    7  A    between atoms: C_26  and  C_27
REMARK    8  A    between atoms: C_30  and  C_31
REMARK                            x       y       z     vdW  Elec       q    Type
REMARK                         _______ _______ _______ _____ _____    ______ ____
ROOT
ATOM      1  C   UNL     1       2.497   6.736  19.734  0.00  0.00    +0.000 A 
ATOM      2  C   UNL     1       1.833   6.897  20.958  0.00  0.00    +0.000 A 
ATOM      3  C   UNL     1       1.067   8.069  21.209  0.00  0.00    +0.000 A 
ATOM      4  C   UNL     1       0.862   9.027  20.185  0.00  0.00    +0.000 A 
ATOM      5  C   UNL     1       1.640   8.837  19.034  0.00  0.00    +0.000 A 
ATOM      6  C   UNL     1       2.582   7.825  18.895  0.00  0.00    +0.000 A 
ATOM      7  C   UNL     1       1.302   9.572  17.774  0.00  0.00    +0.000 C 
ATOM      8  C   UNL     1      -0.178   9.868  17.709  0.00  0.00    +0.000 C 
ATOM      9  N   UNL     1      -0.573  10.651  18.864  0.00  0.00    +0.000 NA
ATOM     10  C   UNL     1      -0.141  10.199  20.203  0.00  0.00    +0.000 C 
ENDROOT
BRANCH   1  11
ATOM     11  C   UNL     1       2.777   5.416  19.051  0.00  0.00    +0.000 C 
BRANCH  11  14
ATOM     12  C   UNL     1       5.048   5.044  18.218  0.00  0.00    +0.000 C 
ATOM     13  O   UNL     1       5.375   4.522  19.278  0.00  0.00    +0.000 OA
ATOM     14  N   UNL     1       3.744   5.471  17.983  0.00  0.00    +0.000 N 
ATOM     15  H   UNL     1       3.580   6.130  17.238  0.00  0.00    +0.000 HD
BRANCH  12  25
ATOM     16  C   UNL     1       7.069   6.180  17.187  0.00  0.00    +0.000 A 
ATOM     17  N   UNL     1       7.728   6.192  15.979  0.00  0.00    +0.000 NA
ATOM     18  C   UNL     1       7.089   5.335  15.217  0.00  0.00    +0.000 A 
ATOM     19  C   UNL     1       7.312   4.948  13.863  0.00  0.00    +0.000 A 
ATOM     20  C   UNL     1       6.511   4.032  13.290  0.00  0.00    +0.000 A 
ATOM     21 CL   UNL     1       6.739   3.554  11.647  0.00  0.00    +0.000 Cl
ATOM     22  C   UNL     1       5.433   3.404  14.033  0.00  0.00    +0.000 A 
ATOM     23  C   UNL     1       5.220   3.761  15.310  0.00  0.00    +0.000 A 
ATOM     24  N   UNL     1       6.024   4.742  15.898  0.00  0.00    +0.000 N 
ATOM     25  C   UNL     1       5.982   5.314  17.157  0.00  0.00    +0.000 A 
BRANCH  16  27
ATOM     26  C   UNL     1       8.073   8.414  17.772  0.00  0.00    +0.000 C 
ATOM     27  C   UNL     1       7.526   7.089  18.280  0.00  0.00    +0.000 C 
ENDBRANCH  16  27
ENDBRANCH  12  25
ENDBRANCH  11  14
ENDBRANCH   1  11
BRANCH   9  28
ATOM     28  C   UNL     1      -1.117  11.968  18.557  0.00  0.00    +0.000 C 
BRANCH  28  29
ATOM     29  C   UNL     1      -0.177  13.152  18.746  0.00  0.00    +0.000 A 
ATOM     30  C   UNL     1      -0.606  14.388  19.276  0.00  0.00    +0.000 A 
ATOM     31  C   UNL     1       0.286  15.436  19.544  0.00  0.00    +0.000 A 
ATOM     32  C   UNL     1       1.657  15.278  19.274  0.00  0.00    +0.000 A 
ATOM     33  C   UNL     1       2.666  16.335  19.644  0.00  0.00    +0.000 C 
ATOM     34  C   UNL     1       2.088  14.081  18.690  0.00  0.00    +0.000 A 
ATOM     35  C   UNL     1       1.183  13.042  18.419  0.00  0.00    +0.000 A 
ENDBRANCH  28  29
ENDBRANCH   9  28
TORSDOF 6
ENDMDL
MODEL 6
REMARK VINA RESULT:      -8.7      4.415     10.999
REMARK  Name = 
REMARK  8 active torsions:
REMARK  status: ('A' for Active; 'I' for Inactive)
REMARK    1  A    between atoms: C_1  and  C_2
REMARK    2  A    between atoms: C_2  and  C_3
REMARK    3  A    between atoms: C_12  and  C_13
REMARK    4  A    between atoms: N_15  and  C_16
REMARK    5  A    between atoms: C_16  and  C_17
REMARK    6  A    between atoms: N_25  and  C_26
REMARK    7  A    between atoms: C_26  and  C_27
REMARK    8  A    between atoms: C_30  and  C_31
REMARK                            x       y       z     vdW  Elec       q    Type
REMARK                         _______ _______ _______ _____ _____    ______ ____
ROOT
ATOM      1  C   UNL     1       2.342   6.817  19.416  0.00  0.00    +0.000 A 
ATOM      2  C   UNL     1       1.873   6.899  20.735  0.00  0.00    +0.000 A 
ATOM      3  C   UNL     1       1.172   8.056  21.175  0.00  0.00    +0.000 A 
ATOM      4  C   UNL     1       0.829   9.081  20.258  0.00  0.00    +0.000 A 
ATOM      5  C   UNL     1       1.421   8.964  18.992  0.00  0.00    +0.000 A 
ATOM      6  C   UNL     1       2.316   7.958  18.647  0.00  0.00    +0.000 A 
ATOM      7  C   UNL     1       0.908   9.783  17.849  0.00  0.00    +0.000 C 
ATOM      8  C   UNL     1      -0.560  10.090  18.028  0.00  0.00    +0.000 C 
ATOM      9  N   UNL     1      -0.764  10.796  19.277  0.00  0.00    +0.000 NA
ATOM     10  C   UNL     1      -0.142  10.254  20.504  0.00  0.00    +0.000 C 
ENDROOT
BRANCH   1  11
ATOM     11  C   UNL     1       2.497   5.543  18.615  0.00  0.00    +0.000 C 
BRANCH  11  14
ATOM     12  C   UNL     1       4.771   4.951  17.935  0.00  0.00    +0.000 C 
ATOM     13  O   UNL     1       4.936   4.308  18.965  0.00  0.00    +0.000 OA
ATOM     14  N   UNL     1       3.556   5.559  17.637  0.00  0.00    +0.000 N 
ATOM     15  H   UNL     1       3.540   6.291  16.944  0.00  0.00    +0.000 HD
BRANCH  12  25
ATOM     16  C   UNL     1       6.987   5.920  17.166  0.00  0.00    +0.000 A 
ATOM     17  N   UNL     1       7.754   5.936  16.023  0.00  0.00    +0.000 NA
ATOM     18  C   UNL     1       7.102   5.204  15.149  0.00  0.00    +0.000 A 
ATOM     19  C   UNL     1       7.409   4.882  13.794  0.00  0.00    +0.000 A 
ATOM     20  C   UNL     1       6.574   4.098  13.090  0.00  0.00    +0.000 A 
ATOM     21 CL   UNL     1       6.902   3.703  11.442  0.00  0.00    +0.000 Cl
ATOM     22  C   UNL     1       5.371   3.547  13.689  0.00  0.00    +0.000 A 
ATOM     23  C   UNL     1       5.079   3.844  14.967  0.00  0.00    +0.000 A 
ATOM     24  N   UNL     1       5.922   4.691  15.691  0.00  0.00    +0.000 N 
ATOM     25  C   UNL     1       5.823   5.182  16.980  0.00  0.00    +0.000 A 
BRANCH  16  27
ATOM     26  C   UNL     1       7.979   5.830  19.479  0.00  0.00    +0.000 C 
ATOM     27  C   UNL     1       7.433   6.702  18.359  0.00  0.00    +0.000 C 
ENDBRANCH  16  27
ENDBRANCH  12  25
ENDBRANCH  11  14
ENDBRANCH   1  11
BRANCH   9  28
ATOM     28  C   UNL     1      -1.329  12.134  19.142  0.00  0.00    +0.000 C 
BRANCH  28  29
ATOM     29  C   UNL     1      -0.352  13.298  19.254  0.00  0.00    +0.000 A 
ATOM     30  C   UNL     1       0.926  13.280  18.655  0.00  0.00    +0.000 A 
ATOM     31  C   UNL     1       1.776  14.395  18.674  0.00  0.00    +0.000 A 
ATOM     32  C   UNL     1       1.368  15.578  19.315  0.00  0.00    +0.000 A 
ATOM     33  C   UNL     1       2.201  16.833  19.269  0.00  0.00    +0.000 C 
ATOM     34  C   UNL     1       0.130  15.590  19.968  0.00  0.00    +0.000 A 
ATOM     35  C   UNL     1      -0.708  14.464  19.948  0.00  0.00    +0.000 A 
ENDBRANCH  28  29
ENDBRANCH   9  28
TORSDOF 6
ENDMDL
MODEL 7
REMARK VINA RESULT:      -8.7      1.002      1.806
REMARK  Name = 
REMARK  8 active torsions:
REMARK  status: ('A' for Active; 'I' for Inactive)
REMARK    1  A    between atoms: C_1  and  C_2
REMARK    2  A    between atoms: C_2  and  C_3
REMARK    3  A    between atoms: C_12  and  C_13
REMARK    4  A    between atoms: N_15  and  C_16
REMARK    5  A    between atoms: C_16  and  C_17
REMARK    6  A    between atoms: N_25  and  C_26
REMARK    7  A    between atoms: C_26  and  C_27
REMARK    8  A    between atoms: C_30  and  C_31
REMARK                            x       y       z     vdW  Elec       q    Type
REMARK                         _______ _______ _______ _____ _____    ______ ____
ROOT
ATOM      1  C   UNL     1       0.848   9.202  19.820  0.00  0.00    +0.000 A 
ATOM      2  C   UNL     1       1.252   9.636  18.549  0.00  0.00    +0.000 A 
ATOM      3  C   UNL     1       2.249   8.918  17.831  0.00  0.00    +0.000 A 
ATOM      4  C   UNL     1       2.753   7.692  18.331  0.00  0.00    +0.000 A 
ATOM      5  C   UNL     1       2.370   7.388  19.646  0.00  0.00    +0.000 A 
ATOM      6  C   UNL     1       1.596   8.226  20.439  0.00  0.00    +0.000 A 
ATOM      7  C   UNL     1       2.563   6.002  20.178  0.00  0.00    +0.000 C 
ATOM      8  C   UNL     1       2.496   4.987  19.062  0.00  0.00    +0.000 C 
ATOM      9  N   UNL     1       3.508   5.283  18.068  0.00  0.00    +0.000 NA
ATOM     10  C   UNL     1       3.622   6.670  17.569  0.00  0.00    +0.000 C 
ENDROOT
BRANCH   1  11
ATOM     11  C   UNL     1      -0.530   9.388  20.416  0.00  0.00    +0.000 C 
BRANCH  11  14
ATOM     12  C   UNL     1      -1.795  11.167  19.312  0.00  0.00    +0.000 C 
ATOM     13  O   UNL     1      -1.101  12.024  19.846  0.00  0.00    +0.000 OA
ATOM     14  N   UNL     1      -1.548   9.809  19.487  0.00  0.00    +0.000 N 
ATOM     15  H   UNL     1      -2.284   9.153  19.273  0.00  0.00    +0.000 HD
BRANCH  12  25
ATOM     16  C   UNL     1      -3.194  11.115  17.195  0.00  0.00    +0.000 A 
ATOM     17  N   UNL     1      -4.401  11.611  16.756  0.00  0.00    +0.000 NA
ATOM     18  C   UNL     1      -4.916  12.251  17.780  0.00  0.00    +0.000 A 
ATOM     19  C   UNL     1      -6.138  12.975  17.905  0.00  0.00    +0.000 A 
ATOM     20  C   UNL     1      -6.455  13.551  19.078  0.00  0.00    +0.000 A 
ATOM     21 CL   UNL     1      -7.916  14.452  19.260  0.00  0.00    +0.000 Cl
ATOM     22  C   UNL     1      -5.587  13.431  20.236  0.00  0.00    +0.000 A 
ATOM     23  C   UNL     1      -4.436  12.747  20.125  0.00  0.00    +0.000 A 
ATOM     24  N   UNL     1      -4.082  12.180  18.898  0.00  0.00    +0.000 N 
ATOM     25  C   UNL     1      -2.951  11.482  18.514  0.00  0.00    +0.000 A 
BRANCH  16  27
ATOM     26  C   UNL     1      -3.050   9.916  14.986  0.00  0.00    +0.000 C 
ATOM     27  C   UNL     1      -2.323  10.359  16.246  0.00  0.00    +0.000 C 
ENDBRANCH  16  27
ENDBRANCH  12  25
ENDBRANCH  11  14
ENDBRANCH   1  11
BRANCH   9  28
ATOM     28  C   UNL     1       4.503   4.236  17.872  0.00  0.00    +0.000 C 
BRANCH  28  29
ATOM     29  C   UNL     1       5.339   4.323  16.600  0.00  0.00    +0.000 A 
ATOM     30  C   UNL     1       4.805   4.067  15.319  0.00  0.00    +0.000 A 
ATOM     31  C   UNL     1       5.554   4.251  14.147  0.00  0.00    +0.000 A 
ATOM     32  C   UNL     1       6.886   4.694  14.227  0.00  0.00    +0.000 A 
ATOM     33  C   UNL     1       7.693   5.009  12.993  0.00  0.00    +0.000 C 
ATOM     34  C   UNL     1       7.448   4.892  15.493  0.00  0.00    +0.000 A 
ATOM     35  C   UNL     1       6.690   4.696  16.659  0.00  0.00    +0.000 A 
ENDBRANCH  28  29
ENDBRANCH   9  28
TORSDOF 6
ENDMDL
MODEL 8
REMARK VINA RESULT:      -8.7      1.031      1.374
REMARK  Name = 
REMARK  8 active torsions:
REMARK  status: ('A' for Active; 'I' for Inactive)
REMARK    1  A    between atoms: C_1  and  C_2
REMARK    2  A    between atoms: C_2  and  C_3
REMARK    3  A    between atoms: C_12  and  C_13
REMARK    4  A    between atoms: N_15  and  C_16
REMARK    5  A    between atoms: C_16  and  C_17
REMARK    6  A    between atoms: N_25  and  C_26
REMARK    7  A    between atoms: C_26  and  C_27
REMARK    8  A    between atoms: C_30  and  C_31
REMARK                            x       y       z     vdW  Elec       q    Type
REMARK                         _______ _______ _______ _____ _____    ______ ____
ROOT
ATOM      1  C   UNL     1       1.605   8.482  18.940  0.00  0.00    +0.000 A 
ATOM      2  C   UNL     1       1.676   7.640  20.059  0.00  0.00    +0.000 A 
ATOM      3  C   UNL     1       2.596   6.554  20.081  0.00  0.00    +0.000 A 
ATOM      4  C   UNL     1       3.534   6.386  19.032  0.00  0.00    +0.000 A 
ATOM      5  C   UNL     1       3.326   7.207  17.915  0.00  0.00    +0.000 A 
ATOM      6  C   UNL     1       2.264   8.094  17.795  0.00  0.00    +0.000 A 
ATOM      7  C   UNL     1       4.405   7.358  16.888  0.00  0.00    +0.000 C 
ATOM      8  C   UNL     1       5.767   7.176  17.514  0.00  0.00    +0.000 C 
ATOM      9  N   UNL     1       5.851   5.869  18.135  0.00  0.00    +0.000 NA
ATOM     10  C   UNL     1       4.753   5.440  19.027  0.00  0.00    +0.000 C 
ENDROOT
BRANCH   1  11
ATOM     11  C   UNL     1       1.232   9.948  18.964  0.00  0.00    +0.000 C 
BRANCH  11  14
ATOM     12  C   UNL     1      -0.595  11.545  18.650  0.00  0.00    +0.000 C 
ATOM     13  O   UNL     1       0.199  12.477  18.594  0.00  0.00    +0.000 OA
ATOM     14  N   UNL     1      -0.170  10.226  18.773  0.00  0.00    +0.000 N 
ATOM     15  H   UNL     1      -0.830   9.535  19.092  0.00  0.00    +0.000 HD
BRANCH  12  25
ATOM     16  C   UNL     1      -2.909  11.510  17.608  0.00  0.00    +0.000 A 
ATOM     17  N   UNL     1      -4.199  11.814  17.976  0.00  0.00    +0.000 NA
ATOM     18  C   UNL     1      -4.130  12.194  19.232  0.00  0.00    +0.000 A 
ATOM     19  C   UNL     1      -5.148  12.639  20.125  0.00  0.00    +0.000 A 
ATOM     20  C   UNL     1      -4.828  12.976  21.387  0.00  0.00    +0.000 A 
ATOM     21 CL   UNL     1      -6.030  13.538  22.490  0.00  0.00    +0.000 Cl
ATOM     22  C   UNL     1      -3.463  12.872  21.871  0.00  0.00    +0.000 A 
ATOM     23  C   UNL     1      -2.500  12.449  21.035  0.00  0.00    +0.000 A 
ATOM     24  N   UNL     1      -2.821  12.136  19.711  0.00  0.00    +0.000 N 
ATOM     25  C   UNL     1      -2.022  11.733  18.656  0.00  0.00    +0.000 A 
BRANCH  16  27
ATOM     26  C   UNL     1      -2.867   9.592  15.978  0.00  0.00    +0.000 C 
ATOM     27  C   UNL     1      -2.629  11.076  16.207  0.00  0.00    +0.000 C 
ENDBRANCH  16  27
ENDBRANCH  12  25
ENDBRANCH  11  14
ENDBRANCH   1  11
BRANCH   9  28
ATOM     28  C   UNL     1       6.879   4.992  17.586  0.00  0.00    +0.000 C 
BRANCH  28  29
ATOM     29  C   UNL     1       6.669   4.514  16.154  0.00  0.00    +0.000 A 
ATOM     30  C   UNL     1       5.657   3.596  15.798  0.00  0.00    +0.000 A 
ATOM     31  C   UNL     1       5.404   3.242  14.465  0.00  0.00    +0.000 A 
ATOM     32  C   UNL     1       6.179   3.799  13.432  0.00  0.00    +0.000 A 
ATOM     33  C   UNL     1       5.875   3.532  11.980  0.00  0.00    +0.000 C 
ATOM     34  C   UNL     1       7.227   4.661  13.774  0.00  0.00    +0.000 A 
ATOM     35  C   UNL     1       7.474   5.001  15.114  0.00  0.00    +0.000 A 
ENDBRANCH  28  29
ENDBRANCH   9  28
TORSDOF 6
ENDMDL
MODEL 9
REMARK VINA RESULT:      -8.7      1.081      1.259
REMARK  Name = 
REMARK  8 active torsions:
REMARK  status: ('A' for Active; 'I' for Inactive)
REMARK    1  A    between atoms: C_1  and  C_2
REMARK    2  A    between atoms: C_2  and  C_3
REMARK    3  A    between atoms: C_12  and  C_13
REMARK    4  A    between atoms: N_15  and  C_16
REMARK    5  A    between atoms: C_16  and  C_17
REMARK    6  A    between atoms: N_25  and  C_26
REMARK    7  A    between atoms: C_26  and  C_27
REMARK    8  A    between atoms: C_30  and  C_31
REMARK                            x       y       z     vdW  Elec       q    Type
REMARK                         _______ _______ _______ _____ _____    ______ ____
ROOT
ATOM      1  C   UNL     1       1.681   7.929  19.542  0.00  0.00    +0.000 A 
ATOM      2  C   UNL     1       1.836   6.880  20.460  0.00  0.00    +0.000 A 
ATOM      3  C   UNL     1       2.773   5.840  20.208  0.00  0.00    +0.000 A 
ATOM      4  C   UNL     1       3.648   5.914  19.095  0.00  0.00    +0.000 A 
ATOM      5  C   UNL     1       3.357   6.938  18.182  0.00  0.00    +0.000 A 
ATOM      6  C   UNL     1       2.274   7.800  18.306  0.00  0.00    +0.000 A 
ATOM      7  C   UNL     1       4.367   7.326  17.148  0.00  0.00    +0.000 C 
ATOM      8  C   UNL     1       5.769   7.061  17.644  0.00  0.00    +0.000 C 
ATOM      9  N   UNL     1       5.913   5.658  17.980  0.00  0.00    +0.000 NA
ATOM     10  C   UNL     1       4.880   5.026  18.827  0.00  0.00    +0.000 C 
ENDROOT
BRANCH   1  11
ATOM     11  C   UNL     1       1.285   9.347  19.886  0.00  0.00    +0.000 C 
BRANCH  11  14
ATOM     12  C   UNL     1      -0.312  10.916  18.896  0.00  0.00    +0.000 C 
ATOM     13  O   UNL     1       0.601  11.641  18.517  0.00  0.00    +0.000 OA
ATOM     14  N   UNL     1      -0.068   9.707  19.540  0.00  0.00    +0.000 N 
ATOM     15  H   UNL     1      -0.813   9.286  20.073  0.00  0.00    +0.000 HD
BRANCH  12  25
ATOM     16  C   UNL     1      -2.545  11.005  17.693  0.00  0.00    +0.000 A 
ATOM     17  N   UNL     1      -3.804  11.513  17.914  0.00  0.00    +0.000 NA
ATOM     18  C   UNL     1      -3.761  12.063  19.106  0.00  0.00    +0.000 A 
ATOM     19  C   UNL     1      -4.764  12.754  19.848  0.00  0.00    +0.000 A 
ATOM     20  C   UNL     1      -4.477  13.233  21.071  0.00  0.00    +0.000 A 
ATOM     21 CL   UNL     1      -5.659  14.091  21.989  0.00  0.00    +0.000 Cl
ATOM     22  C   UNL     1      -3.168  13.037  21.669  0.00  0.00    +0.000 A 
ATOM     23  C   UNL     1      -2.220  12.384  20.977  0.00  0.00    +0.000 A 
ATOM     24  N   UNL     1      -2.500  11.920  19.689  0.00  0.00    +0.000 N 
ATOM     25  C   UNL     1      -1.700  11.272  18.765  0.00  0.00    +0.000 A 
BRANCH  16  27
ATOM     26  C   UNL     1      -3.440  10.267  15.458  0.00  0.00    +0.000 C 
ATOM     27  C   UNL     1      -2.241  10.339  16.391  0.00  0.00    +0.000 C 
ENDBRANCH  16  27
ENDBRANCH  12  25
ENDBRANCH  11  14
ENDBRANCH   1  11
BRANCH   9  28
ATOM     28  C   UNL     1       6.919   4.941  17.206  0.00  0.00    +0.000 C 
BRANCH  28  29
ATOM     29  C   UNL     1       6.551   4.596  15.768  0.00  0.00    +0.000 A 
ATOM     30  C   UNL     1       7.414   4.847  14.679  0.00  0.00    +0.000 A 
ATOM     31  C   UNL     1       7.111   4.432  13.375  0.00  0.00    +0.000 A 
ATOM     32  C   UNL     1       5.908   3.751  13.116  0.00  0.00    +0.000 A 
ATOM     33  C   UNL     1       5.590   3.193  11.752  0.00  0.00    +0.000 C 
ATOM     34  C   UNL     1       5.014   3.551  14.174  0.00  0.00    +0.000 A 
ATOM     35  C   UNL     1       5.325   3.979  15.474  0.00  0.00    +0.000 A 
ENDBRANCH  28  29
ENDBRANCH   9  28
TORSDOF 6
ENDMDL
