MODEL 1
REMARK VINA RESULT:      -6.9      0.000      0.000
REMARK  Name = 
REMARK  6 active torsions:
REMARK  status: ('A' for Active; 'I' for Inactive)
REMARK    1  A    between atoms: C_1  and  O_2
REMARK    2  A    between atoms: O_2  and  C_3
REMARK    3  A    between atoms: C_6  and  C_7
REMARK    4  A    between atoms: C_7  and  N_8
REMARK    5  A    between atoms: N_16  and  C_17
REMARK    6  A    between atoms: N_20  and  C_21
REMARK                            x       y       z     vdW  Elec       q    Type
REMARK                         _______ _______ _______ _____ _____    ______ ____
ROOT
ATOM      1  N   UNL     1       6.165   4.327  15.457  0.00  0.00    +0.000 NA
ATOM      2  C   UNL     1       5.038   3.648  16.090  0.00  0.00    +0.000 C 
ATOM      3  C   UNL     1       4.100   4.559  16.884  0.00  0.00    +0.000 C 
ATOM      4  C   UNL     1       4.813   5.563  17.819  0.00  0.00    +0.000 C 
ATOM      5  C   UNL     1       6.163   6.059  17.259  0.00  0.00    +0.000 C 
ATOM      6  C   UNL     1       6.953   5.043  16.448  0.00  0.00    +0.000 C 
ATOM      7  C   UNL     1       4.860   5.033  19.270  0.00  0.00    +0.000 C 
ATOM      8  C   UNL     1       3.464   5.344  19.813  0.00  0.00    +0.000 C 
ATOM      9  N   UNL     1       3.118   6.573  19.159  0.00  0.00    +0.000 N 
ATOM     10  C   UNL     1       3.899   6.786  18.010  0.00  0.00    +0.000 C 
ATOM     11  O   UNL     1       3.873   7.737  17.243  0.00  0.00    +0.000 OA
ENDROOT
BRANCH   9  12
ATOM     12  C   UNL     1       2.182   7.518  19.579  0.00  0.00    +0.000 A 
ATOM     13  C   UNL     1       1.699   8.674  18.924  0.00  0.00    +0.000 A 
ATOM     14  N   UNL     1       0.855   9.388  19.663  0.00  0.00    +0.000 NA
ATOM     15  N   UNL     1       0.754   8.675  20.793  0.00  0.00    +0.000 N 
ATOM     16  C   UNL     1      -0.069   9.181  21.866  0.00  0.00    +0.000 C 
ATOM     17  C   UNL     1       1.504   7.530  20.785  0.00  0.00    +0.000 A 
ENDBRANCH   9  12
BRANCH   1  18
ATOM     18  C   UNL     1       5.830   5.086  14.239  0.00  0.00    +0.000 C 
BRANCH  18  22
ATOM     19  C   UNL     1       6.413   1.977  11.326  0.00  0.00    +0.000 A 
ATOM     20  C   UNL     1       5.123   2.301  11.757  0.00  0.00    +0.000 A 
ATOM     21  C   UNL     1       4.895   3.398  12.590  0.00  0.00    +0.000 A 
ATOM     22  C   UNL     1       5.972   4.174  13.029  0.00  0.00    +0.000 A 
ATOM     23  C   UNL     1       7.241   3.934  12.480  0.00  0.00    +0.000 A 
ATOM     24  C   UNL     1       7.463   2.837  11.638  0.00  0.00    +0.000 A 
BRANCH  19  26
ATOM     25  C   UNL     1       6.064  -0.396  11.218  0.00  0.00    +0.000 C 
ATOM     26  O   UNL     1       6.491   0.816  10.610  0.00  0.00    +0.000 OA
ENDBRANCH  19  26
ENDBRANCH  18  22
ENDBRANCH   1  18
TORSDOF 4
ENDMDL
MODEL 2
REMARK VINA RESULT:      -6.7      5.231     12.370
REMARK  Name = 
REMARK  6 active torsions:
REMARK  status: ('A' for Active; 'I' for Inactive)
REMARK    1  A    between atoms: C_1  and  O_2
REMARK    2  A    between atoms: O_2  and  C_3
REMARK    3  A    between atoms: C_6  and  C_7
REMARK    4  A    between atoms: C_7  and  N_8
REMARK    5  A    between atoms: N_16  and  C_17
REMARK    6  A    between atoms: N_20  and  C_21
REMARK                            x       y       z     vdW  Elec       q    Type
REMARK                         _______ _______ _______ _____ _____    ______ ____
ROOT
ATOM      1  N   UNL     1      -1.271  12.172  20.797  0.00  0.00    +0.000 NA
ATOM      2  C   UNL     1      -1.586  11.323  19.652  0.00  0.00    +0.000 C 
ATOM      3  C   UNL     1      -0.740  10.052  19.540  0.00  0.00    +0.000 C 
ATOM      4  C   UNL     1       0.777  10.266  19.745  0.00  0.00    +0.000 C 
ATOM      5  C   UNL     1       1.100  11.384  20.760  0.00  0.00    +0.000 C 
ATOM      6  C   UNL     1       0.132  12.556  20.780  0.00  0.00    +0.000 C 
ATOM      7  C   UNL     1       1.510  10.381  18.389  0.00  0.00    +0.000 C 
ATOM      8  C   UNL     1       1.660   8.928  17.936  0.00  0.00    +0.000 C 
ATOM      9  N   UNL     1       1.842   8.212  19.166  0.00  0.00    +0.000 N 
ATOM     10  C   UNL     1       1.388   8.955  20.269  0.00  0.00    +0.000 C 
ATOM     11  O   UNL     1       1.416   8.648  21.452  0.00  0.00    +0.000 OA
ENDROOT
BRANCH   9  12
ATOM     12  C   UNL     1       2.439   6.963  19.336  0.00  0.00    +0.000 A 
ATOM     13  C   UNL     1       2.117   5.914  20.225  0.00  0.00    +0.000 A 
ATOM     14  N   UNL     1       2.958   4.885  20.158  0.00  0.00    +0.000 NA
ATOM     15  N   UNL     1       3.811   5.246  19.191  0.00  0.00    +0.000 N 
ATOM     16  C   UNL     1       4.911   4.367  18.865  0.00  0.00    +0.000 C 
ATOM     17  C   UNL     1       3.530   6.469  18.643  0.00  0.00    +0.000 A 
ENDBRANCH   9  12
BRANCH   1  18
ATOM     18  C   UNL     1      -1.783  11.687  22.092  0.00  0.00    +0.000 C 
BRANCH  18  22
ATOM     19  C   UNL     1      -5.360  13.824  23.156  0.00  0.00    +0.000 A 
ATOM     20  C   UNL     1      -4.712  13.026  24.103  0.00  0.00    +0.000 A 
ATOM     21  C   UNL     1      -3.475  12.439  23.828  0.00  0.00    +0.000 A 
ATOM     22  C   UNL     1      -2.882  12.622  22.575  0.00  0.00    +0.000 A 
ATOM     23  C   UNL     1      -3.462  13.538  21.684  0.00  0.00    +0.000 A 
ATOM     24  C   UNL     1      -4.699  14.131  21.968  0.00  0.00    +0.000 A 
BRANCH  19  26
ATOM     25  C   UNL     1      -7.477  13.307  24.163  0.00  0.00    +0.000 C 
ATOM     26  O   UNL     1      -6.608  14.235  23.526  0.00  0.00    +0.000 OA
ENDBRANCH  19  26
ENDBRANCH  18  22
ENDBRANCH   1  18
TORSDOF 4
ENDMDL
MODEL 3
REMARK VINA RESULT:      -6.6      4.334      7.563
REMARK  Name = 
REMARK  6 active torsions:
REMARK  status: ('A' for Active; 'I' for Inactive)
REMARK    1  A    between atoms: C_1  and  O_2
REMARK    2  A    between atoms: O_2  and  C_3
REMARK    3  A    between atoms: C_6  and  C_7
REMARK    4  A    between atoms: C_7  and  N_8
REMARK    5  A    between atoms: N_16  and  C_17
REMARK    6  A    between atoms: N_20  and  C_21
REMARK                            x       y       z     vdW  Elec       q    Type
REMARK                         _______ _______ _______ _____ _____    ______ ____
ROOT
ATOM      1  N   UNL     1       1.599   9.460  17.826  0.00  0.00    +0.000 NA
ATOM      2  C   UNL     1       2.067  10.830  18.015  0.00  0.00    +0.000 C 
ATOM      3  C   UNL     1       1.368  11.600  19.138  0.00  0.00    +0.000 C 
ATOM      4  C   UNL     1      -0.172  11.474  19.146  0.00  0.00    +0.000 C 
ATOM      5  C   UNL     1      -0.670  10.096  18.660  0.00  0.00    +0.000 C 
ATOM      6  C   UNL     1       0.167   9.439  17.572  0.00  0.00    +0.000 C 
ATOM      7  C   UNL     1      -0.833  12.689  18.458  0.00  0.00    +0.000 C 
ATOM      8  C   UNL     1      -0.802  13.775  19.535  0.00  0.00    +0.000 C 
ATOM      9  N   UNL     1      -0.978  13.040  20.755  0.00  0.00    +0.000 N 
ATOM     10  C   UNL     1      -0.670  11.679  20.588  0.00  0.00    +0.000 C 
ATOM     11  O   UNL     1      -0.734  10.781  21.415  0.00  0.00    +0.000 OA
ENDROOT
BRANCH   9  12
ATOM     12  C   UNL     1      -1.449  13.527  21.974  0.00  0.00    +0.000 A 
ATOM     13  C   UNL     1      -2.753  13.509  22.518  0.00  0.00    +0.000 A 
ATOM     14  N   UNL     1      -2.847  14.137  23.687  0.00  0.00    +0.000 NA
ATOM     15  N   UNL     1      -1.590  14.533  23.928  0.00  0.00    +0.000 N 
ATOM     16  C   UNL     1      -1.316  15.300  25.121  0.00  0.00    +0.000 C 
ATOM     17  C   UNL     1      -0.706  14.169  22.948  0.00  0.00    +0.000 A 
ENDBRANCH   9  12
BRANCH   1  18
ATOM     18  C   UNL     1       2.084   8.493  18.826  0.00  0.00    +0.000 C 
BRANCH  18  22
ATOM     19  C   UNL     1       3.847   4.817  17.458  0.00  0.00    +0.000 A 
ATOM     20  C   UNL     1       2.519   4.837  17.894  0.00  0.00    +0.000 A 
ATOM     21  C   UNL     1       1.881   6.039  18.207  0.00  0.00    +0.000 A 
ATOM     22  C   UNL     1       2.583   7.245  18.112  0.00  0.00    +0.000 A 
ATOM     23  C   UNL     1       3.863   7.234  17.536  0.00  0.00    +0.000 A 
ATOM     24  C   UNL     1       4.496   6.026  17.217  0.00  0.00    +0.000 A 
BRANCH  19  26
ATOM     25  C   UNL     1       3.677   2.457  17.865  0.00  0.00    +0.000 C 
ATOM     26  O   UNL     1       4.368   3.564  17.300  0.00  0.00    +0.000 OA
ENDBRANCH  19  26
ENDBRANCH  18  22
ENDBRANCH   1  18
TORSDOF 4
ENDMDL
MODEL 4
REMARK VINA RESULT:      -6.5      5.307      8.618
REMARK  Name = 
REMARK  6 active torsions:
REMARK  status: ('A' for Active; 'I' for Inactive)
REMARK    1  A    between atoms: C_1  and  O_2
REMARK    2  A    between atoms: O_2  and  C_3
REMARK    3  A    between atoms: C_6  and  C_7
REMARK    4  A    between atoms: C_7  and  N_8
REMARK    5  A    between atoms: N_16  and  C_17
REMARK    6  A    between atoms: N_20  and  C_21
REMARK                            x       y       z     vdW  Elec       q    Type
REMARK                         _______ _______ _______ _____ _____    ______ ____
ROOT
ATOM      1  N   UNL     1       0.551   9.055  19.925  0.00  0.00    +0.000 NA
ATOM      2  C   UNL     1       0.551   9.761  18.647  0.00  0.00    +0.000 C 
ATOM      3  C   UNL     1       1.039  11.210  18.712  0.00  0.00    +0.000 C 
ATOM      4  C   UNL     1       0.441  12.041  19.871  0.00  0.00    +0.000 C 
ATOM      5  C   UNL     1       0.171  11.205  21.140  0.00  0.00    +0.000 C 
ATOM      6  C   UNL     1      -0.258   9.765  20.902  0.00  0.00    +0.000 C 
ATOM      7  C   UNL     1      -0.751  12.895  19.384  0.00  0.00    +0.000 C 
ATOM      8  C   UNL     1      -0.084  14.097  18.714  0.00  0.00    +0.000 C 
ATOM      9  N   UNL     1       1.098  14.304  19.500  0.00  0.00    +0.000 N 
ATOM     10  C   UNL     1       1.437  13.155  20.236  0.00  0.00    +0.000 C 
ATOM     11  O   UNL     1       2.367  13.002  21.015  0.00  0.00    +0.000 OA
ENDROOT
BRANCH   9  12
ATOM     12  C   UNL     1       1.838  15.480  19.620  0.00  0.00    +0.000 A 
ATOM     13  C   UNL     1       2.828  16.023  18.771  0.00  0.00    +0.000 A 
ATOM     14  N   UNL     1       3.378  17.138  19.244  0.00  0.00    +0.000 NA
ATOM     15  N   UNL     1       2.716  17.347  20.389  0.00  0.00    +0.000 N 
ATOM     16  C   UNL     1       3.085  18.477  21.212  0.00  0.00    +0.000 C 
ATOM     17  C   UNL     1       1.762  16.401  20.650  0.00  0.00    +0.000 A 
ENDBRANCH   9  12
BRANCH   1  18
ATOM     18  C   UNL     1       1.877   8.614  20.393  0.00  0.00    +0.000 C 
BRANCH  18  22
ATOM     19  C   UNL     1       1.847   4.605  18.839  0.00  0.00    +0.000 A 
ATOM     20  C   UNL     1       2.428   5.639  18.099  0.00  0.00    +0.000 A 
ATOM     21  C   UNL     1       2.580   6.917  18.641  0.00  0.00    +0.000 A 
ATOM     22  C   UNL     1       2.118   7.183  19.934  0.00  0.00    +0.000 A 
ATOM     23  C   UNL     1       1.671   6.112  20.722  0.00  0.00    +0.000 A 
ATOM     24  C   UNL     1       1.529   4.830  20.176  0.00  0.00    +0.000 A 
BRANCH  19  26
ATOM     25  C   UNL     1       2.126   2.224  18.701  0.00  0.00    +0.000 C 
ATOM     26  O   UNL     1       1.666   3.446  18.139  0.00  0.00    +0.000 OA
ENDBRANCH  19  26
ENDBRANCH  18  22
ENDBRANCH   1  18
TORSDOF 4
ENDMDL
MODEL 5
REMARK VINA RESULT:      -6.5      4.399      7.856
REMARK  Name = 
REMARK  6 active torsions:
REMARK  status: ('A' for Active; 'I' for Inactive)
REMARK    1  A    between atoms: C_1  and  O_2
REMARK    2  A    between atoms: O_2  and  C_3
REMARK    3  A    between atoms: C_6  and  C_7
REMARK    4  A    between atoms: C_7  and  N_8
REMARK    5  A    between atoms: N_16  and  C_17
REMARK    6  A    between atoms: N_20  and  C_21
REMARK                            x       y       z     vdW  Elec       q    Type
REMARK                         _______ _______ _______ _____ _____    ______ ____
ROOT
ATOM      1  N   UNL     1       1.392   9.499  18.109  0.00  0.00    +0.000 NA
ATOM      2  C   UNL     1       2.000  10.823  18.198  0.00  0.00    +0.000 C 
ATOM      3  C   UNL     1       1.442  11.715  19.309  0.00  0.00    +0.000 C 
ATOM      4  C   UNL     1      -0.101  11.744  19.401  0.00  0.00    +0.000 C 
ATOM      5  C   UNL     1      -0.755  10.399  19.017  0.00  0.00    +0.000 C 
ATOM      6  C   UNL     1      -0.048   9.609  17.927  0.00  0.00    +0.000 C 
ATOM      7  C   UNL     1      -0.677  12.982  18.679  0.00  0.00    +0.000 C 
ATOM      8  C   UNL     1      -0.482  14.113  19.691  0.00  0.00    +0.000 C 
ATOM      9  N   UNL     1      -0.662  13.462  20.957  0.00  0.00    +0.000 N 
ATOM     10  C   UNL     1      -0.497  12.070  20.851  0.00  0.00    +0.000 C 
ATOM     11  O   UNL     1      -0.603  11.226  21.729  0.00  0.00    +0.000 OA
ENDROOT
BRANCH   9  12
ATOM     12  C   UNL     1      -1.016  14.055  22.169  0.00  0.00    +0.000 A 
ATOM     13  C   UNL     1      -0.256  14.866  23.041  0.00  0.00    +0.000 A 
ATOM     14  N   UNL     1      -0.904  15.197  24.155  0.00  0.00    +0.000 NA
ATOM     15  N   UNL     1      -2.108  14.634  23.991  0.00  0.00    +0.000 N 
ATOM     16  C   UNL     1      -3.086  14.756  25.049  0.00  0.00    +0.000 C 
ATOM     17  C   UNL     1      -2.241  13.962  22.806  0.00  0.00    +0.000 A 
ENDBRANCH   9  12
BRANCH   1  18
ATOM     18  C   UNL     1       1.834   8.540  19.136  0.00  0.00    +0.000 C 
BRANCH  18  22
ATOM     19  C   UNL     1       4.514   5.495  17.708  0.00  0.00    +0.000 A 
ATOM     20  C   UNL     1       3.509   5.171  18.624  0.00  0.00    +0.000 A 
ATOM     21  C   UNL     1       2.539   6.105  18.992  0.00  0.00    +0.000 A 
ATOM     22  C   UNL     1       2.584   7.399  18.463  0.00  0.00    +0.000 A 
ATOM     23  C   UNL     1       3.502   7.675  17.438  0.00  0.00    +0.000 A 
ATOM     24  C   UNL     1       4.468   6.731  17.067  0.00  0.00    +0.000 A 
BRANCH  19  26
ATOM     25  C   UNL     1       6.782   4.755  17.972  0.00  0.00    +0.000 C 
ATOM     26  O   UNL     1       5.451   4.517  17.533  0.00  0.00    +0.000 OA
ENDBRANCH  19  26
ENDBRANCH  18  22
ENDBRANCH   1  18
TORSDOF 4
ENDMDL
MODEL 6
REMARK VINA RESULT:      -6.5      5.030     10.558
REMARK  Name = 
REMARK  6 active torsions:
REMARK  status: ('A' for Active; 'I' for Inactive)
REMARK    1  A    between atoms: C_1  and  O_2
REMARK    2  A    between atoms: O_2  and  C_3
REMARK    3  A    between atoms: C_6  and  C_7
REMARK    4  A    between atoms: C_7  and  N_8
REMARK    5  A    between atoms: N_16  and  C_17
REMARK    6  A    between atoms: N_20  and  C_21
REMARK                            x       y       z     vdW  Elec       q    Type
REMARK                         _______ _______ _______ _____ _____    ______ ____
ROOT
ATOM      1  N   UNL     1      -0.464  13.047  19.832  0.00  0.00    +0.000 NA
ATOM      2  C   UNL     1       0.552  12.610  20.784  0.00  0.00    +0.000 C 
ATOM      3  C   UNL     1       1.261  11.305  20.415  0.00  0.00    +0.000 C 
ATOM      4  C   UNL     1       0.321  10.166  19.957  0.00  0.00    +0.000 C 
ATOM      5  C   UNL     1      -0.918  10.675  19.190  0.00  0.00    +0.000 C 
ATOM      6  C   UNL     1      -1.473  12.015  19.648  0.00  0.00    +0.000 C 
ATOM      7  C   UNL     1       0.018   9.194  21.119  0.00  0.00    +0.000 C 
ATOM      8  C   UNL     1       1.259   8.301  21.176  0.00  0.00    +0.000 C 
ATOM      9  N   UNL     1       1.657   8.196  19.801  0.00  0.00    +0.000 N 
ATOM     10  C   UNL     1       1.108   9.230  19.023  0.00  0.00    +0.000 C 
ATOM     11  O   UNL     1       1.231   9.420  17.822  0.00  0.00    +0.000 OA
ENDROOT
BRANCH   9  12
ATOM     12  C   UNL     1       2.436   7.195  19.222  0.00  0.00    +0.000 A 
ATOM     13  C   UNL     1       3.193   7.207  18.029  0.00  0.00    +0.000 A 
ATOM     14  N   UNL     1       3.757   6.035  17.747  0.00  0.00    +0.000 NA
ATOM     15  N   UNL     1       3.400   5.264  18.783  0.00  0.00    +0.000 N 
ATOM     16  C   UNL     1       3.811   3.879  18.796  0.00  0.00    +0.000 C 
ATOM     17  C   UNL     1       2.633   5.916  19.711  0.00  0.00    +0.000 A 
ENDBRANCH   9  12
BRANCH   1  18
ATOM     18  C   UNL     1       0.061  13.653  18.595  0.00  0.00    +0.000 C 
BRANCH  18  22
ATOM     19  C   UNL     1       3.444  16.296  18.852  0.00  0.00    +0.000 A 
ATOM     20  C   UNL     1       2.226  16.656  19.437  0.00  0.00    +0.000 A 
ATOM     21  C   UNL     1       1.158  15.758  19.493  0.00  0.00    +0.000 A 
ATOM     22  C   UNL     1       1.290  14.485  18.930  0.00  0.00    +0.000 A 
ATOM     23  C   UNL     1       2.555  14.078  18.477  0.00  0.00    +0.000 A 
ATOM     24  C   UNL     1       3.625  14.981  18.430  0.00  0.00    +0.000 A 
BRANCH  19  26
ATOM     25  C   UNL     1       5.737  17.006  18.861  0.00  0.00    +0.000 C 
ATOM     26  O   UNL     1       4.352  17.313  18.772  0.00  0.00    +0.000 OA
ENDBRANCH  19  26
ENDBRANCH  18  22
ENDBRANCH   1  18
TORSDOF 4
ENDMDL
MODEL 7
REMARK VINA RESULT:      -6.5      5.096      9.683
REMARK  Name = 
REMARK  6 active torsions:
REMARK  status: ('A' for Active; 'I' for Inactive)
REMARK    1  A    between atoms: C_1  and  O_2
REMARK    2  A    between atoms: O_2  and  C_3
REMARK    3  A    between atoms: C_6  and  C_7
REMARK    4  A    between atoms: C_7  and  N_8
REMARK    5  A    between atoms: N_16  and  C_17
REMARK    6  A    between atoms: N_20  and  C_21
REMARK                            x       y       z     vdW  Elec       q    Type
REMARK                         _______ _______ _______ _____ _____    ______ ____
ROOT
ATOM      1  N   UNL     1       0.838  10.490  21.123  0.00  0.00    +0.000 NA
ATOM      2  C   UNL     1       0.172  10.316  22.411  0.00  0.00    +0.000 C 
ATOM      3  C   UNL     1      -1.209  10.967  22.514  0.00  0.00    +0.000 C 
ATOM      4  C   UNL     1      -1.283  12.415  21.979  0.00  0.00    +0.000 C 
ATOM      5  C   UNL     1      -0.342  12.666  20.780  0.00  0.00    +0.000 C 
ATOM      6  C   UNL     1       0.973  11.903  20.804  0.00  0.00    +0.000 C 
ATOM      7  C   UNL     1      -1.166  13.440  23.129  0.00  0.00    +0.000 C 
ATOM      8  C   UNL     1      -2.572  13.470  23.730  0.00  0.00    +0.000 C 
ATOM      9  N   UNL     1      -3.425  13.265  22.594  0.00  0.00    +0.000 N 
ATOM     10  C   UNL     1      -2.725  12.693  21.518  0.00  0.00    +0.000 C 
ATOM     11  O   UNL     1      -3.145  12.411  20.406  0.00  0.00    +0.000 OA
ENDROOT
BRANCH   9  12
ATOM     12  C   UNL     1      -4.769  13.618  22.473  0.00  0.00    +0.000 A 
ATOM     13  C   UNL     1      -5.928  12.959  22.940  0.00  0.00    +0.000 A 
ATOM     14  N   UNL     1      -7.060  13.554  22.574  0.00  0.00    +0.000 NA
ATOM     15  N   UNL     1      -6.637  14.631  21.897  0.00  0.00    +0.000 N 
ATOM     16  C   UNL     1      -7.618  15.510  21.302  0.00  0.00    +0.000 C 
ATOM     17  C   UNL     1      -5.274  14.734  21.830  0.00  0.00    +0.000 A 
ENDBRANCH   9  12
BRANCH   1  18
ATOM     18  C   UNL     1       0.325   9.636  20.036  0.00  0.00    +0.000 C 
BRANCH  18  22
ATOM     19  C   UNL     1       2.975   6.755  18.255  0.00  0.00    +0.000 A 
ATOM     20  C   UNL     1       2.722   7.969  17.609  0.00  0.00    +0.000 A 
ATOM     21  C   UNL     1       1.983   8.978  18.230  0.00  0.00    +0.000 A 
ATOM     22  C   UNL     1       1.458   8.767  19.509  0.00  0.00    +0.000 A 
ATOM     23  C   UNL     1       1.835   7.611  20.209  0.00  0.00    +0.000 A 
ATOM     24  C   UNL     1       2.583   6.605  19.583  0.00  0.00    +0.000 A 
BRANCH  19  26
ATOM     25  C   UNL     1       4.827   6.189  16.836  0.00  0.00    +0.000 C 
ATOM     26  O   UNL     1       3.612   5.828  17.480  0.00  0.00    +0.000 OA
ENDBRANCH  19  26
ENDBRANCH  18  22
ENDBRANCH   1  18
TORSDOF 4
ENDMDL
MODEL 8
REMARK VINA RESULT:      -6.4      3.567      4.760
REMARK  Name = 
REMARK  6 active torsions:
REMARK  status: ('A' for Active; 'I' for Inactive)
REMARK    1  A    between atoms: C_1  and  O_2
REMARK    2  A    between atoms: O_2  and  C_3
REMARK    3  A    between atoms: C_6  and  C_7
REMARK    4  A    between atoms: C_7  and  N_8
REMARK    5  A    between atoms: N_16  and  C_17
REMARK    6  A    between atoms: N_20  and  C_21
REMARK                            x       y       z     vdW  Elec       q    Type
REMARK                         _______ _______ _______ _____ _____    ______ ____
ROOT
ATOM      1  N   UNL     1       3.868   3.336  17.452  0.00  0.00    +0.000 NA
ATOM      2  C   UNL     1       2.448   3.371  17.787  0.00  0.00    +0.000 C 
ATOM      3  C   UNL     1       1.952   4.705  18.352  0.00  0.00    +0.000 C 
ATOM      4  C   UNL     1       2.855   5.317  19.447  0.00  0.00    +0.000 C 
ATOM      5  C   UNL     1       4.355   5.021  19.232  0.00  0.00    +0.000 C 
ATOM      6  C   UNL     1       4.677   3.669  18.614  0.00  0.00    +0.000 C 
ATOM      7  C   UNL     1       2.318   4.989  20.857  0.00  0.00    +0.000 C 
ATOM      8  C   UNL     1       1.190   6.002  21.059  0.00  0.00    +0.000 C 
ATOM      9  N   UNL     1       1.659   7.166  20.364  0.00  0.00    +0.000 N 
ATOM     10  C   UNL     1       2.665   6.845  19.437  0.00  0.00    +0.000 C 
ATOM     11  O   UNL     1       3.288   7.598  18.702  0.00  0.00    +0.000 OA
ENDROOT
BRANCH   9  12
ATOM     12  C   UNL     1       1.263   8.488  20.566  0.00  0.00    +0.000 A 
ATOM     13  C   UNL     1       1.183   9.242  21.759  0.00  0.00    +0.000 A 
ATOM     14  N   UNL     1       0.689  10.464  21.581  0.00  0.00    +0.000 NA
ATOM     15  N   UNL     1       0.482  10.524  20.259  0.00  0.00    +0.000 N 
ATOM     16  C   UNL     1      -0.100  11.722  19.697  0.00  0.00    +0.000 C 
ATOM     17  C   UNL     1       0.836   9.379  19.597  0.00  0.00    +0.000 A 
ENDBRANCH   9  12
BRANCH   1  18
ATOM     18  C   UNL     1       4.231   4.029  16.202  0.00  0.00    +0.000 C 
BRANCH  18  22
ATOM     19  C   UNL     1       7.301   6.664  17.659  0.00  0.00    +0.000 A 
ATOM     20  C   UNL     1       7.547   5.292  17.554  0.00  0.00    +0.000 A 
ATOM     21  C   UNL     1       6.622   4.437  16.952  0.00  0.00    +0.000 A 
ATOM     22  C   UNL     1       5.414   4.949  16.468  0.00  0.00    +0.000 A 
ATOM     23  C   UNL     1       5.236   6.341  16.443  0.00  0.00    +0.000 A 
ATOM     24  C   UNL     1       6.171   7.195  17.042  0.00  0.00    +0.000 A 
BRANCH  19  26
ATOM     25  C   UNL     1       8.371   8.753  18.166  0.00  0.00    +0.000 C 
ATOM     26  O   UNL     1       8.243   7.351  18.370  0.00  0.00    +0.000 OA
ENDBRANCH  19  26
ENDBRANCH  18  22
ENDBRANCH   1  18
TORSDOF 4
ENDMDL
MODEL 9
REMARK VINA RESULT:      -6.4      4.205      7.644
REMARK  Name = 
REMARK  6 active torsions:
REMARK  status: ('A' for Active; 'I' for Inactive)
REMARK    1  A    between atoms: C_1  and  O_2
REMARK    2  A    between atoms: O_2  and  C_3
REMARK    3  A    between atoms: C_6  and  C_7
REMARK    4  A    between atoms: C_7  and  N_8
REMARK    5  A    between atoms: N_16  and  C_17
REMARK    6  A    between atoms: N_20  and  C_21
REMARK                            x       y       z     vdW  Elec       q    Type
REMARK                         _______ _______ _______ _____ _____    ______ ____
ROOT
ATOM      1  N   UNL     1       1.353   9.413  17.891  0.00  0.00    +0.000 NA
ATOM      2  C   UNL     1       1.996  10.723  17.856  0.00  0.00    +0.000 C 
ATOM      3  C   UNL     1       1.617  11.658  19.007  0.00  0.00    +0.000 C 
ATOM      4  C   UNL     1       0.103  11.727  19.311  0.00  0.00    +0.000 C 
ATOM      5  C   UNL     1      -0.627  10.390  19.061  0.00  0.00    +0.000 C 
ATOM      6  C   UNL     1      -0.095   9.553  17.908  0.00  0.00    +0.000 C 
ATOM      7  C   UNL     1      -0.542  12.961  18.640  0.00  0.00    +0.000 C 
ATOM      8  C   UNL     1      -0.184  14.112  19.581  0.00  0.00    +0.000 C 
ATOM      9  N   UNL     1      -0.200  13.499  20.878  0.00  0.00    +0.000 N 
ATOM     10  C   UNL     1      -0.081  12.102  20.792  0.00  0.00    +0.000 C 
ATOM     11  O   UNL     1      -0.081  11.284  21.701  0.00  0.00    +0.000 OA
ENDROOT
BRANCH   9  12
ATOM     12  C   UNL     1      -0.369  14.133  22.109  0.00  0.00    +0.000 A 
ATOM     13  C   UNL     1      -1.120  13.738  23.239  0.00  0.00    +0.000 A 
ATOM     14  N   UNL     1      -1.110  14.635  24.222  0.00  0.00    +0.000 NA
ATOM     15  N   UNL     1      -0.314  15.603  23.748  0.00  0.00    +0.000 N 
ATOM     16  C   UNL     1      -0.100  16.786  24.550  0.00  0.00    +0.000 C 
ATOM     17  C   UNL     1       0.181  15.341  22.499  0.00  0.00    +0.000 A 
ENDBRANCH   9  12
BRANCH   1  18
ATOM     18  C   UNL     1       1.914   8.470  18.876  0.00  0.00    +0.000 C 
BRANCH  18  22
ATOM     19  C   UNL     1       4.254   5.178  17.398  0.00  0.00    +0.000 A 
ATOM     20  C   UNL     1       3.011   4.943  17.993  0.00  0.00    +0.000 A 
ATOM     21  C   UNL     1       2.170   5.999  18.350  0.00  0.00    +0.000 A 
ATOM     22  C   UNL     1       2.583   7.319  18.138  0.00  0.00    +0.000 A 
ATOM     23  C   UNL     1       3.761   7.546  17.410  0.00  0.00    +0.000 A 
ATOM     24  C   UNL     1       4.597   6.482  17.048  0.00  0.00    +0.000 A 
BRANCH  19  26
ATOM     25  C   UNL     1       5.810   3.954  16.040  0.00  0.00    +0.000 C 
ATOM     26  O   UNL     1       5.008   4.055  17.209  0.00  0.00    +0.000 OA
ENDBRANCH  19  26
ENDBRANCH  18  22
ENDBRANCH   1  18
TORSDOF 4
ENDMDL
