MODEL 1
REMARK VINA RESULT:      -8.1      0.000      0.000
REMARK  Name = 
REMARK  7 active torsions:
REMARK  status: ('A' for Active; 'I' for Inactive)
REMARK    1  A    between atoms: C_1  and  C_2
REMARK    2  A    between atoms: C_2  and  N_3
REMARK    3  A    between atoms: C_4  and  C_6
REMARK    4  A    between atoms: C_8  and  C_9
REMARK    5  A    between atoms: C_19  and  O_20
REMARK    6  A    between atoms: O_20  and  C_21
REMARK    7  A    between atoms: C_21  and  C_22
REMARK                            x       y       z     vdW  Elec       q    Type
REMARK                         _______ _______ _______ _____ _____    ______ ____
ROOT
ATOM      1  C   UNL     1       3.223   5.779  19.364  0.00  0.00    +0.000 A 
ATOM      2  C   UNL     1       4.087   5.780  18.250  0.00  0.00    +0.000 A 
ATOM      3  C   UNL     1       4.824   4.653  17.841  0.00  0.00    +0.000 A 
ATOM      4  C   UNL     1       4.783   3.533  18.682  0.00  0.00    +0.000 A 
ATOM      5  C   UNL     1       3.975   3.526  19.832  0.00  0.00    +0.000 A 
ATOM      6  C   UNL     1       3.163   4.629  20.147  0.00  0.00    +0.000 A 
ENDROOT
BRANCH   3   7
ATOM      7  C   UNL     1       5.528   4.641  16.531  0.00  0.00    +0.000 A 
ATOM      8  C   UNL     1       4.906   4.226  15.338  0.00  0.00    +0.000 A 
ATOM      9  C   UNL     1       5.581   4.286  14.111  0.00  0.00    +0.000 A 
ATOM     10  C   UNL     1       6.892   4.746  14.061  0.00  0.00    +0.000 A 
ATOM     11  F   UNL     1       7.530   4.803  12.885  0.00  0.00    +0.000 F 
ATOM     12  C   UNL     1       7.541   5.157  15.207  0.00  0.00    +0.000 A 
ATOM     13  C   UNL     1       6.858   5.112  16.417  0.00  0.00    +0.000 A 
ATOM     14  F   UNL     1       7.515   5.569  17.493  0.00  0.00    +0.000 F 
ENDBRANCH   3   7
BRANCH   1  16
ATOM     15  N   UNL     1       1.862   7.292  20.752  0.00  0.00    +0.000 N 
ATOM     16  C   UNL     1       2.402   7.011  19.517  0.00  0.00    +0.000 C 
ATOM     17  O   UNL     1       2.280   7.773  18.561  0.00  0.00    +0.000 OA
ATOM     18  H   UNL     1       2.017   6.664  21.529  0.00  0.00    +0.000 HD
BRANCH  15  20
ATOM     19  C   UNL     1       1.282   9.109  22.316  0.00  0.00    +0.000 C 
ATOM     20  C   UNL     1       1.075   8.496  20.942  0.00  0.00    +0.000 C 
ENDBRANCH  15  20
ENDBRANCH   1  16
BRANCH   6  21
ATOM     21  O   UNL     1       2.360   4.467  21.286  0.00  0.00    +0.000 OA
BRANCH  21  22
ATOM     22  C   UNL     1       1.584   3.308  21.312  0.00  0.00    +0.000 C 
ATOM     23  C   UNL     1       0.676   3.303  20.116  0.00  0.00    +0.000 C 
ATOM     24  O   UNL     1       1.587   2.448  22.179  0.00  0.00    +0.000 OA
ENDBRANCH  21  22
ENDBRANCH   6  21
TORSDOF 5
ENDMDL
MODEL 2
REMARK VINA RESULT:      -7.6      1.246      1.388
REMARK  Name = 
REMARK  7 active torsions:
REMARK  status: ('A' for Active; 'I' for Inactive)
REMARK    1  A    between atoms: C_1  and  C_2
REMARK    2  A    between atoms: C_2  and  N_3
REMARK    3  A    between atoms: C_4  and  C_6
REMARK    4  A    between atoms: C_8  and  C_9
REMARK    5  A    between atoms: C_19  and  O_20
REMARK    6  A    between atoms: O_20  and  C_21
REMARK    7  A    between atoms: C_21  and  C_22
REMARK                            x       y       z     vdW  Elec       q    Type
REMARK                         _______ _______ _______ _____ _____    ______ ____
ROOT
ATOM      1  C   UNL     1       3.280   6.037  19.046  0.00  0.00    +0.000 A 
ATOM      2  C   UNL     1       4.128   5.971  17.922  0.00  0.00    +0.000 A 
ATOM      3  C   UNL     1       4.887   4.834  17.591  0.00  0.00    +0.000 A 
ATOM      4  C   UNL     1       4.887   3.784  18.517  0.00  0.00    +0.000 A 
ATOM      5  C   UNL     1       4.096   3.847  19.677  0.00  0.00    +0.000 A 
ATOM      6  C   UNL     1       3.260   4.951  19.917  0.00  0.00    +0.000 A 
ENDROOT
BRANCH   3   7
ATOM      7  C   UNL     1       5.573   4.736  16.275  0.00  0.00    +0.000 A 
ATOM      8  C   UNL     1       4.979   4.129  15.152  0.00  0.00    +0.000 A 
ATOM      9  C   UNL     1       5.630   4.109  13.910  0.00  0.00    +0.000 A 
ATOM     10  C   UNL     1       6.890   4.681  13.777  0.00  0.00    +0.000 A 
ATOM     11  F   UNL     1       7.506   4.660  12.588  0.00  0.00    +0.000 F 
ATOM     12  C   UNL     1       7.511   5.281  14.854  0.00  0.00    +0.000 A 
ATOM     13  C   UNL     1       6.851   5.313  16.076  0.00  0.00    +0.000 A 
ATOM     14  F   UNL     1       7.474   5.951  17.077  0.00  0.00    +0.000 F 
ENDBRANCH   3   7
BRANCH   1  16
ATOM     15  N   UNL     1       2.158   7.936  17.948  0.00  0.00    +0.000 N 
ATOM     16  C   UNL     1       2.429   7.257  19.115  0.00  0.00    +0.000 C 
ATOM     17  O   UNL     1       1.944   7.589  20.193  0.00  0.00    +0.000 OA
ATOM     18  H   UNL     1       2.541   7.611  17.070  0.00  0.00    +0.000 HD
BRANCH  15  20
ATOM     19  C   UNL     1       2.125  10.402  17.991  0.00  0.00    +0.000 C 
ATOM     20  C   UNL     1       1.316   9.116  17.976  0.00  0.00    +0.000 C 
ENDBRANCH  15  20
ENDBRANCH   1  16
BRANCH   6  21
ATOM     21  O   UNL     1       2.478   4.860  21.078  0.00  0.00    +0.000 OA
BRANCH  21  22
ATOM     22  C   UNL     1       1.805   3.651  21.254  0.00  0.00    +0.000 C 
ATOM     23  C   UNL     1       0.754   3.518  20.189  0.00  0.00    +0.000 C 
ATOM     24  O   UNL     1       1.987   2.838  22.148  0.00  0.00    +0.000 OA
ENDBRANCH  21  22
ENDBRANCH   6  21
TORSDOF 5
ENDMDL
MODEL 3
REMARK VINA RESULT:      -7.5      0.973      1.394
REMARK  Name = 
REMARK  7 active torsions:
REMARK  status: ('A' for Active; 'I' for Inactive)
REMARK    1  A    between atoms: C_1  and  C_2
REMARK    2  A    between atoms: C_2  and  N_3
REMARK    3  A    between atoms: C_4  and  C_6
REMARK    4  A    between atoms: C_8  and  C_9
REMARK    5  A    between atoms: C_19  and  O_20
REMARK    6  A    between atoms: O_20  and  C_21
REMARK    7  A    between atoms: C_21  and  C_22
REMARK                            x       y       z     vdW  Elec       q    Type
REMARK                         _______ _______ _______ _____ _____    ______ ____
ROOT
ATOM      1  C   UNL     1       3.180   5.882  19.478  0.00  0.00    +0.000 A 
ATOM      2  C   UNL     1       4.062   5.934  18.380  0.00  0.00    +0.000 A 
ATOM      3  C   UNL     1       4.841   4.839  17.960  0.00  0.00    +0.000 A 
ATOM      4  C   UNL     1       4.822   3.702  18.778  0.00  0.00    +0.000 A 
ATOM      5  C   UNL     1       3.996   3.645  19.914  0.00  0.00    +0.000 A 
ATOM      6  C   UNL     1       3.143   4.715  20.236  0.00  0.00    +0.000 A 
ENDROOT
BRANCH   3   7
ATOM      7  C   UNL     1       5.567   4.876  16.663  0.00  0.00    +0.000 A 
ATOM      8  C   UNL     1       6.848   5.445  16.526  0.00  0.00    +0.000 A 
ATOM      9  C   UNL     1       7.530   5.407  15.301  0.00  0.00    +0.000 A 
ATOM     10  C   UNL     1       6.934   4.817  14.193  0.00  0.00    +0.000 A 
ATOM     11  F   UNL     1       7.591   4.783  13.026  0.00  0.00    +0.000 F 
ATOM     12  C   UNL     1       5.677   4.253  14.282  0.00  0.00    +0.000 A 
ATOM     13  C   UNL     1       5.017   4.278  15.504  0.00  0.00    +0.000 A 
ATOM     14  F   UNL     1       3.821   3.674  15.551  0.00  0.00    +0.000 F 
ENDBRANCH   3   7
BRANCH   1  16
ATOM     15  N   UNL     1       1.746   7.321  20.872  0.00  0.00    +0.000 N 
ATOM     16  C   UNL     1       2.317   7.084  19.641  0.00  0.00    +0.000 C 
ATOM     17  O   UNL     1       2.188   7.862  18.699  0.00  0.00    +0.000 OA
ATOM     18  H   UNL     1       1.907   6.682  21.638  0.00  0.00    +0.000 HD
BRANCH  15  20
ATOM     19  C   UNL     1       1.190   9.173  22.404  0.00  0.00    +0.000 C 
ATOM     20  C   UNL     1       0.918   8.495  21.072  0.00  0.00    +0.000 C 
ENDBRANCH  15  20
ENDBRANCH   1  16
BRANCH   6  21
ATOM     21  O   UNL     1       2.328   4.504  21.358  0.00  0.00    +0.000 OA
BRANCH  21  22
ATOM     22  C   UNL     1       1.588   3.322  21.347  0.00  0.00    +0.000 C 
ATOM     23  C   UNL     1       0.688   3.321  20.144  0.00  0.00    +0.000 C 
ATOM     24  O   UNL     1       1.612   2.438  22.190  0.00  0.00    +0.000 OA
ENDBRANCH  21  22
ENDBRANCH   6  21
TORSDOF 5
ENDMDL
MODEL 4
REMARK VINA RESULT:      -7.4      3.906      7.055
REMARK  Name = 
REMARK  7 active torsions:
REMARK  status: ('A' for Active; 'I' for Inactive)
REMARK    1  A    between atoms: C_1  and  C_2
REMARK    2  A    between atoms: C_2  and  N_3
REMARK    3  A    between atoms: C_4  and  C_6
REMARK    4  A    between atoms: C_8  and  C_9
REMARK    5  A    between atoms: C_19  and  O_20
REMARK    6  A    between atoms: O_20  and  C_21
REMARK    7  A    between atoms: C_21  and  C_22
REMARK                            x       y       z     vdW  Elec       q    Type
REMARK                         _______ _______ _______ _____ _____    ______ ____
ROOT
ATOM      1  C   UNL     1       4.710   5.801  17.251  0.00  0.00    +0.000 A 
ATOM      2  C   UNL     1       3.639   6.696  17.449  0.00  0.00    +0.000 A 
ATOM      3  C   UNL     1       3.011   6.888  18.694  0.00  0.00    +0.000 A 
ATOM      4  C   UNL     1       3.398   6.033  19.734  0.00  0.00    +0.000 A 
ATOM      5  C   UNL     1       4.424   5.090  19.547  0.00  0.00    +0.000 A 
ATOM      6  C   UNL     1       5.108   5.006  18.322  0.00  0.00    +0.000 A 
ENDROOT
BRANCH   3   7
ATOM      7  C   UNL     1       2.055   8.009  18.898  0.00  0.00    +0.000 A 
ATOM      8  C   UNL     1       1.652   8.862  17.852  0.00  0.00    +0.000 A 
ATOM      9  C   UNL     1       0.701   9.870  18.067  0.00  0.00    +0.000 A 
ATOM     10  C   UNL     1       0.153  10.051  19.332  0.00  0.00    +0.000 A 
ATOM     11  F   UNL     1      -0.756  11.014  19.529  0.00  0.00    +0.000 F 
ATOM     12  C   UNL     1       0.526   9.241  20.386  0.00  0.00    +0.000 A 
ATOM     13  C   UNL     1       1.454   8.232  20.160  0.00  0.00    +0.000 A 
ATOM     14  F   UNL     1       1.745   7.441  21.203  0.00  0.00    +0.000 F 
ENDBRANCH   3   7
BRANCH   1  16
ATOM     15  N   UNL     1       5.752   4.714  15.301  0.00  0.00    +0.000 N 
ATOM     16  C   UNL     1       5.349   5.882  15.908  0.00  0.00    +0.000 C 
ATOM     17  O   UNL     1       5.442   6.974  15.353  0.00  0.00    +0.000 OA
ATOM     18  H   UNL     1       5.623   3.827  15.769  0.00  0.00    +0.000 HD
BRANCH  15  20
ATOM     19  C   UNL     1       6.004   3.536  13.149  0.00  0.00    +0.000 C 
ATOM     20  C   UNL     1       6.359   4.754  13.984  0.00  0.00    +0.000 C 
ENDBRANCH  15  20
ENDBRANCH   1  16
BRANCH   6  21
ATOM     21  O   UNL     1       6.149   4.066  18.289  0.00  0.00    +0.000 OA
BRANCH  21  22
ATOM     22  C   UNL     1       7.419   4.587  18.048  0.00  0.00    +0.000 C 
ATOM     23  C   UNL     1       7.713   5.648  19.070  0.00  0.00    +0.000 C 
ATOM     24  O   UNL     1       8.171   4.285  17.133  0.00  0.00    +0.000 OA
ENDBRANCH  21  22
ENDBRANCH   6  21
TORSDOF 5
ENDMDL
MODEL 5
REMARK VINA RESULT:      -7.4      3.749      5.872
REMARK  Name = 
REMARK  7 active torsions:
REMARK  status: ('A' for Active; 'I' for Inactive)
REMARK    1  A    between atoms: C_1  and  C_2
REMARK    2  A    between atoms: C_2  and  N_3
REMARK    3  A    between atoms: C_4  and  C_6
REMARK    4  A    between atoms: C_8  and  C_9
REMARK    5  A    between atoms: C_19  and  O_20
REMARK    6  A    between atoms: O_20  and  C_21
REMARK    7  A    between atoms: C_21  and  C_22
REMARK                            x       y       z     vdW  Elec       q    Type
REMARK                         _______ _______ _______ _____ _____    ______ ____
ROOT
ATOM      1  C   UNL     1       1.267   8.902  20.357  0.00  0.00    +0.000 A 
ATOM      2  C   UNL     1       1.732   7.572  20.355  0.00  0.00    +0.000 A 
ATOM      3  C   UNL     1       2.302   6.952  19.227  0.00  0.00    +0.000 A 
ATOM      4  C   UNL     1       2.263   7.672  18.026  0.00  0.00    +0.000 A 
ATOM      5  C   UNL     1       1.751   8.980  17.987  0.00  0.00    +0.000 A 
ATOM      6  C   UNL     1       1.296   9.610  19.158  0.00  0.00    +0.000 A 
ENDROOT
BRANCH   3   7
ATOM      7  C   UNL     1       2.988   5.639  19.347  0.00  0.00    +0.000 A 
ATOM      8  C   UNL     1       4.366   5.477  19.108  0.00  0.00    +0.000 A 
ATOM      9  C   UNL     1       4.992   4.235  19.292  0.00  0.00    +0.000 A 
ATOM     10  C   UNL     1       4.247   3.135  19.699  0.00  0.00    +0.000 A 
ATOM     11  F   UNL     1       4.851   1.953  19.875  0.00  0.00    +0.000 F 
ATOM     12  C   UNL     1       2.892   3.249  19.939  0.00  0.00    +0.000 A 
ATOM     13  C   UNL     1       2.284   4.487  19.773  0.00  0.00    +0.000 A 
ATOM     14  F   UNL     1       0.977   4.556  20.067  0.00  0.00    +0.000 F 
ENDBRANCH   3   7
BRANCH   1  16
ATOM     15  N   UNL     1      -0.426   9.847  21.877  0.00  0.00    +0.000 N 
ATOM     16  C   UNL     1       0.871   9.422  21.695  0.00  0.00    +0.000 C 
ATOM     17  O   UNL     1       1.687   9.399  22.613  0.00  0.00    +0.000 OA
ATOM     18  H   UNL     1      -1.084   9.813  21.110  0.00  0.00    +0.000 HD
BRANCH  15  20
ATOM     19  C   UNL     1      -1.728  11.575  23.062  0.00  0.00    +0.000 C 
ATOM     20  C   UNL     1      -0.852  10.339  23.174  0.00  0.00    +0.000 C 
ENDBRANCH  15  20
ENDBRANCH   1  16
BRANCH   6  21
ATOM     21  O   UNL     1       0.868  10.935  18.990  0.00  0.00    +0.000 OA
BRANCH  21  22
ATOM     22  C   UNL     1      -0.483  11.094  18.684  0.00  0.00    +0.000 C 
ATOM     23  C   UNL     1      -0.730  12.523  18.295  0.00  0.00    +0.000 C 
ATOM     24  O   UNL     1      -1.354  10.240  18.760  0.00  0.00    +0.000 OA
ENDBRANCH  21  22
ENDBRANCH   6  21
TORSDOF 5
ENDMDL
MODEL 6
REMARK VINA RESULT:      -7.4      3.629      6.586
REMARK  Name = 
REMARK  7 active torsions:
REMARK  status: ('A' for Active; 'I' for Inactive)
REMARK    1  A    between atoms: C_1  and  C_2
REMARK    2  A    between atoms: C_2  and  N_3
REMARK    3  A    between atoms: C_4  and  C_6
REMARK    4  A    between atoms: C_8  and  C_9
REMARK    5  A    between atoms: C_19  and  O_20
REMARK    6  A    between atoms: O_20  and  C_21
REMARK    7  A    between atoms: C_21  and  C_22
REMARK                            x       y       z     vdW  Elec       q    Type
REMARK                         _______ _______ _______ _____ _____    ______ ____
ROOT
ATOM      1  C   UNL     1       4.342   5.681  17.852  0.00  0.00    +0.000 A 
ATOM      2  C   UNL     1       3.429   6.753  17.907  0.00  0.00    +0.000 A 
ATOM      3  C   UNL     1       2.578   6.990  19.004  0.00  0.00    +0.000 A 
ATOM      4  C   UNL     1       2.562   6.017  20.011  0.00  0.00    +0.000 A 
ATOM      5  C   UNL     1       3.422   4.906  19.953  0.00  0.00    +0.000 A 
ATOM      6  C   UNL     1       4.340   4.763  18.899  0.00  0.00    +0.000 A 
ENDROOT
BRANCH   3   7
ATOM      7  C   UNL     1       1.813   8.261  19.110  0.00  0.00    +0.000 A 
ATOM      8  C   UNL     1       1.551   9.085  17.999  0.00  0.00    +0.000 A 
ATOM      9  C   UNL     1       0.773  10.245  18.125  0.00  0.00    +0.000 A 
ATOM     10  C   UNL     1       0.261  10.606  19.365  0.00  0.00    +0.000 A 
ATOM     11  F   UNL     1      -0.483  11.714  19.478  0.00  0.00    +0.000 F 
ATOM     12  C   UNL     1       0.498   9.830  20.482  0.00  0.00    +0.000 A 
ATOM     13  C   UNL     1       1.255   8.672  20.344  0.00  0.00    +0.000 A 
ATOM     14  F   UNL     1       1.415   7.927  21.447  0.00  0.00    +0.000 F 
ENDBRANCH   3   7
BRANCH   1  16
ATOM     15  N   UNL     1       5.904   4.548  16.321  0.00  0.00    +0.000 N 
ATOM     16  C   UNL     1       5.273   5.715  16.691  0.00  0.00    +0.000 C 
ATOM     17  O   UNL     1       5.405   6.760  16.058  0.00  0.00    +0.000 OA
ATOM     18  H   UNL     1       5.741   3.696  16.839  0.00  0.00    +0.000 HD
BRANCH  15  20
ATOM     19  C   UNL     1       6.142   3.978  13.933  0.00  0.00    +0.000 C 
ATOM     20  C   UNL     1       6.801   4.541  15.181  0.00  0.00    +0.000 C 
ENDBRANCH  15  20
ENDBRANCH   1  16
BRANCH   6  21
ATOM     21  O   UNL     1       5.180   3.643  18.994  0.00  0.00    +0.000 OA
BRANCH  21  22
ATOM     22  C   UNL     1       4.570   2.474  19.448  0.00  0.00    +0.000 C 
ATOM     23  C   UNL     1       3.601   1.994  18.406  0.00  0.00    +0.000 C 
ATOM     24  O   UNL     1       4.740   1.935  20.531  0.00  0.00    +0.000 OA
ENDBRANCH  21  22
ENDBRANCH   6  21
TORSDOF 5
ENDMDL
MODEL 7
REMARK VINA RESULT:      -7.4      1.149      1.237
REMARK  Name = 
REMARK  7 active torsions:
REMARK  status: ('A' for Active; 'I' for Inactive)
REMARK    1  A    between atoms: C_1  and  C_2
REMARK    2  A    between atoms: C_2  and  N_3
REMARK    3  A    between atoms: C_4  and  C_6
REMARK    4  A    between atoms: C_8  and  C_9
REMARK    5  A    between atoms: C_19  and  O_20
REMARK    6  A    between atoms: O_20  and  C_21
REMARK    7  A    between atoms: C_21  and  C_22
REMARK                            x       y       z     vdW  Elec       q    Type
REMARK                         _______ _______ _______ _____ _____    ______ ____
ROOT
ATOM      1  C   UNL     1       2.977   5.600  18.298  0.00  0.00    +0.000 A 
ATOM      2  C   UNL     1       4.016   5.584  17.345  0.00  0.00    +0.000 A 
ATOM      3  C   UNL     1       4.494   4.407  16.740  0.00  0.00    +0.000 A 
ATOM      4  C   UNL     1       3.989   3.196  17.231  0.00  0.00    +0.000 A 
ATOM      5  C   UNL     1       2.994   3.180  18.223  0.00  0.00    +0.000 A 
ATOM      6  C   UNL     1       2.458   4.379  18.722  0.00  0.00    +0.000 A 
ENDROOT
BRANCH   3   7
ATOM      7  C   UNL     1       5.418   4.473  15.576  0.00  0.00    +0.000 A 
ATOM      8  C   UNL     1       5.097   3.923  14.320  0.00  0.00    +0.000 A 
ATOM      9  C   UNL     1       5.967   4.058  13.228  0.00  0.00    +0.000 A 
ATOM     10  C   UNL     1       7.175   4.728  13.381  0.00  0.00    +0.000 A 
ATOM     11  F   UNL     1       8.000   4.855  12.333  0.00  0.00    +0.000 F 
ATOM     12  C   UNL     1       7.531   5.277  14.596  0.00  0.00    +0.000 A 
ATOM     13  C   UNL     1       6.655   5.155  15.668  0.00  0.00    +0.000 A 
ATOM     14  F   UNL     1       7.023   5.748  16.813  0.00  0.00    +0.000 F 
ENDBRANCH   3   7
BRANCH   1  16
ATOM     15  N   UNL     1       2.099   7.175  19.976  0.00  0.00    +0.000 N 
ATOM     16  C   UNL     1       2.499   6.958  18.677  0.00  0.00    +0.000 C 
ATOM     17  O   UNL     1       2.532   7.860  17.843  0.00  0.00    +0.000 OA
ATOM     18  H   UNL     1       2.124   6.420  20.648  0.00  0.00    +0.000 HD
BRANCH  15  20
ATOM     19  C   UNL     1       0.720   8.436  21.587  0.00  0.00    +0.000 C 
ATOM     20  C   UNL     1       1.648   8.492  20.385  0.00  0.00    +0.000 C 
ENDBRANCH  15  20
ENDBRANCH   1  16
BRANCH   6  21
ATOM     21  O   UNL     1       1.429   4.221  19.663  0.00  0.00    +0.000 OA
BRANCH  21  22
ATOM     22  C   UNL     1       1.846   3.962  20.968  0.00  0.00    +0.000 C 
ATOM     23  C   UNL     1       1.310   2.624  21.393  0.00  0.00    +0.000 C 
ATOM     24  O   UNL     1       2.497   4.703  21.687  0.00  0.00    +0.000 OA
ENDBRANCH  21  22
ENDBRANCH   6  21
TORSDOF 5
ENDMDL
MODEL 8
REMARK VINA RESULT:      -7.4      3.878      6.838
REMARK  Name = 
REMARK  7 active torsions:
REMARK  status: ('A' for Active; 'I' for Inactive)
REMARK    1  A    between atoms: C_1  and  C_2
REMARK    2  A    between atoms: C_2  and  N_3
REMARK    3  A    between atoms: C_4  and  C_6
REMARK    4  A    between atoms: C_8  and  C_9
REMARK    5  A    between atoms: C_19  and  O_20
REMARK    6  A    between atoms: O_20  and  C_21
REMARK    7  A    between atoms: C_21  and  C_22
REMARK                            x       y       z     vdW  Elec       q    Type
REMARK                         _______ _______ _______ _____ _____    ______ ____
ROOT
ATOM      1  C   UNL     1       6.344   5.903  17.621  0.00  0.00    +0.000 A 
ATOM      2  C   UNL     1       5.316   5.567  18.525  0.00  0.00    +0.000 A 
ATOM      3  C   UNL     1       4.260   4.693  18.205  0.00  0.00    +0.000 A 
ATOM      4  C   UNL     1       4.177   4.265  16.874  0.00  0.00    +0.000 A 
ATOM      5  C   UNL     1       5.158   4.633  15.936  0.00  0.00    +0.000 A 
ATOM      6  C   UNL     1       6.262   5.413  16.321  0.00  0.00    +0.000 A 
ENDROOT
BRANCH   3   7
ATOM      7  C   UNL     1       3.343   4.191  19.263  0.00  0.00    +0.000 A 
ATOM      8  C   UNL     1       2.087   4.772  19.517  0.00  0.00    +0.000 A 
ATOM      9  C   UNL     1       1.222   4.233  20.481  0.00  0.00    +0.000 A 
ATOM     10  C   UNL     1       1.608   3.118  21.215  0.00  0.00    +0.000 A 
ATOM     11  F   UNL     1       0.776   2.607  22.132  0.00  0.00    +0.000 F 
ATOM     12  C   UNL     1       2.834   2.520  21.001  0.00  0.00    +0.000 A 
ATOM     13  C   UNL     1       3.677   3.049  20.031  0.00  0.00    +0.000 A 
ATOM     14  F   UNL     1       4.834   2.403  19.826  0.00  0.00    +0.000 F 
ENDBRANCH   3   7
BRANCH   1  16
ATOM     15  N   UNL     1       7.644   7.990  17.787  0.00  0.00    +0.000 N 
ATOM     16  C   UNL     1       7.460   6.693  18.213  0.00  0.00    +0.000 C 
ATOM     17  O   UNL     1       8.142   6.193  19.103  0.00  0.00    +0.000 OA
ATOM     18  H   UNL     1       7.037   8.384  17.081  0.00  0.00    +0.000 HD
BRANCH  15  20
ATOM     19  C   UNL     1       8.546  10.272  18.040  0.00  0.00    +0.000 C 
ATOM     20  C   UNL     1       8.707   8.795  18.358  0.00  0.00    +0.000 C 
ENDBRANCH  15  20
ENDBRANCH   1  16
BRANCH   6  21
ATOM     21  O   UNL     1       7.197   5.657  15.304  0.00  0.00    +0.000 OA
BRANCH  21  22
ATOM     22  C   UNL     1       7.122   4.803  14.203  0.00  0.00    +0.000 C 
ATOM     23  C   UNL     1       7.881   5.414  13.060  0.00  0.00    +0.000 C 
ATOM     24  O   UNL     1       6.506   3.750  14.137  0.00  0.00    +0.000 OA
ENDBRANCH  21  22
ENDBRANCH   6  21
TORSDOF 5
ENDMDL
MODEL 9
REMARK VINA RESULT:      -7.3      3.582      6.798
REMARK  Name = 
REMARK  7 active torsions:
REMARK  status: ('A' for Active; 'I' for Inactive)
REMARK    1  A    between atoms: C_1  and  C_2
REMARK    2  A    between atoms: C_2  and  N_3
REMARK    3  A    between atoms: C_4  and  C_6
REMARK    4  A    between atoms: C_8  and  C_9
REMARK    5  A    between atoms: C_19  and  O_20
REMARK    6  A    between atoms: O_20  and  C_21
REMARK    7  A    between atoms: C_21  and  C_22
REMARK                            x       y       z     vdW  Elec       q    Type
REMARK                         _______ _______ _______ _____ _____    ______ ____
ROOT
ATOM      1  C   UNL     1       3.332   5.341  18.760  0.00  0.00    +0.000 A 
ATOM      2  C   UNL     1       2.552   6.423  19.214  0.00  0.00    +0.000 A 
ATOM      3  C   UNL     1       2.534   7.682  18.584  0.00  0.00    +0.000 A 
ATOM      4  C   UNL     1       3.450   7.879  17.543  0.00  0.00    +0.000 A 
ATOM      5  C   UNL     1       4.282   6.833  17.108  0.00  0.00    +0.000 A 
ATOM      6  C   UNL     1       4.191   5.555  17.685  0.00  0.00    +0.000 A 
ENDROOT
BRANCH   3   7
ATOM      7  C   UNL     1       1.521   8.704  18.960  0.00  0.00    +0.000 A 
ATOM      8  C   UNL     1       0.838   9.482  18.006  0.00  0.00    +0.000 A 
ATOM      9  C   UNL     1      -0.155  10.393  18.393  0.00  0.00    +0.000 A 
ATOM     10  C   UNL     1      -0.468  10.551  19.738  0.00  0.00    +0.000 A 
ATOM     11  F   UNL     1      -1.419  11.422  20.100  0.00  0.00    +0.000 F 
ATOM     12  C   UNL     1       0.181   9.812  20.706  0.00  0.00    +0.000 A 
ATOM     13  C   UNL     1       1.152   8.898  20.313  0.00  0.00    +0.000 A 
ATOM     14  F   UNL     1       1.717   8.170  21.286  0.00  0.00    +0.000 F 
ENDBRANCH   3   7
BRANCH   1  16
ATOM     15  N   UNL     1       1.765   3.640  19.610  0.00  0.00    +0.000 N 
ATOM     16  C   UNL     1       3.070   4.050  19.454  0.00  0.00    +0.000 C 
ATOM     17  O   UNL     1       4.020   3.357  19.812  0.00  0.00    +0.000 OA
ATOM     18  H   UNL     1       1.008   4.216  19.267  0.00  0.00    +0.000 HD
BRANCH  15  20
ATOM     19  C   UNL     1       1.416   2.511  21.775  0.00  0.00    +0.000 C 
ATOM     20  C   UNL     1       1.475   2.378  20.263  0.00  0.00    +0.000 C 
ENDBRANCH  15  20
ENDBRANCH   1  16
BRANCH   6  21
ATOM     21  O   UNL     1       5.033   4.588  17.117  0.00  0.00    +0.000 OA
BRANCH  21  22
ATOM     22  C   UNL     1       6.373   4.662  17.498  0.00  0.00    +0.000 C 
ATOM     23  C   UNL     1       7.229   4.694  16.264  0.00  0.00    +0.000 C 
ATOM     24  O   UNL     1       6.809   4.655  18.639  0.00  0.00    +0.000 OA
ENDBRANCH  21  22
ENDBRANCH   6  21
TORSDOF 5
ENDMDL
