MODEL 1
REMARK VINA RESULT:      -8.3      0.000      0.000
REMARK  Name = 
REMARK  12 active torsions:
REMARK  status: ('A' for Active; 'I' for Inactive)
REMARK    1  A    between atoms: C_2  and  C_3
REMARK    2  A    between atoms: C_3  and  O_4
REMARK    3  A    between atoms: O_4  and  C_5
REMARK    4  A    between atoms: C_8  and  C_9
REMARK    5  A    between atoms: C_10  and  C_11
REMARK    6  A    between atoms: C_10  and  C_12
REMARK    7  A    between atoms: N_14  and  C_15
REMARK    8  A    between atoms: C_16  and  O_17
REMARK    9  A    between atoms: C_18  and  O_19
REMARK   10  A    between atoms: C_25  and  O_26
REMARK   11  A    between atoms: C_28  and  N_29
REMARK   12  A    between atoms: C_30  and  C_31
REMARK                            x       y       z     vdW  Elec       q    Type
REMARK                         _______ _______ _______ _____ _____    ______ ____
ROOT
ATOM      1  C   UNL     1       2.880   4.384  19.343  0.00  0.00    +0.000 C 
ATOM      2  O   UNL     1       2.253   4.268  18.292  0.00  0.00    +0.000 OA
ATOM      3  N   UNL     1       4.242   4.373  19.380  0.00  0.00    +0.000 N 
ATOM      4  H   UNL     1       4.717   4.332  20.275  0.00  0.00    +0.000 HD
ENDROOT
BRANCH   3   5
ATOM      5  C   UNL     1       5.127   4.354  18.199  0.00  0.00    +0.000 C 
ATOM      6  C   UNL     1       6.555   4.729  18.675  0.00  0.00    +0.000 C 
ATOM      7  C   UNL     1       7.535   5.010  17.527  0.00  0.00    +0.000 C 
ATOM      8  C   UNL     1       6.959   5.961  16.448  0.00  0.00    +0.000 C 
ATOM      9  O   UNL     1       7.735   5.878  15.240  0.00  0.00    +0.000 OA
ATOM     10  C   UNL     1       7.065   4.889  14.442  0.00  0.00    +0.000 C 
ATOM     11  O   UNL     1       5.898   4.421  15.158  0.00  0.00    +0.000 OA
ATOM     12  C   UNL     1       5.584   5.553  15.971  0.00  0.00    +0.000 C 
ATOM     13  C   UNL     1       4.610   5.333  17.124  0.00  0.00    +0.000 C 
BRANCH   6  14
ATOM     14  O   UNL     1       6.511   5.832  19.590  0.00  0.00    +0.000 OA
ATOM     15  H   UNL     1       6.371   6.657  19.086  0.00  0.00    +0.000 HD
ENDBRANCH   6  14
BRANCH   7  16
ATOM     16  O   UNL     1       7.957   3.746  16.991  0.00  0.00    +0.000 OA
ATOM     17  H   UNL     1       8.249   3.889  16.071  0.00  0.00    +0.000 HD
ENDBRANCH   7  16
BRANCH  13  18
ATOM     18  O   UNL     1       4.415   6.624  17.740  0.00  0.00    +0.000 OA
ATOM     19  H   UNL     1       3.472   6.836  17.593  0.00  0.00    +0.000 HD
ENDBRANCH  13  18
ENDBRANCH   3   5
BRANCH   1  21
ATOM     20  C   UNL     1       1.607   5.574  21.219  0.00  0.00    +0.000 C 
ATOM     21  C   UNL     1       2.178   4.476  20.672  0.00  0.00    +0.000 C 
ATOM     22  C   UNL     1       2.043   3.151  21.386  0.00  0.00    +0.000 C 
BRANCH  20  26
ATOM     23  C   UNL     1       1.072   9.509  19.624  0.00  0.00    +0.000 A 
ATOM     24  C   UNL     1       1.881   8.577  18.953  0.00  0.00    +0.000 A 
ATOM     25  C   UNL     1       2.089   7.296  19.475  0.00  0.00    +0.000 A 
ATOM     26  C   UNL     1       1.461   6.921  20.661  0.00  0.00    +0.000 A 
ATOM     27  C   UNL     1       0.660   7.851  21.331  0.00  0.00    +0.000 A 
ATOM     28  C   UNL     1       0.448   9.148  20.829  0.00  0.00    +0.000 A 
BRANCH  28  29
ATOM     29  N   UNL     1      -0.449  10.026  21.488  0.00  0.00    +0.000 N 
ATOM     30  C   UNL     1      -0.494  10.285  22.845  0.00  0.00    +0.000 C 
ATOM     31  C   UNL     1      -1.588  11.232  23.253  0.00  0.00    +0.000 C 
ATOM     32  O   UNL     1       0.281   9.853  23.696  0.00  0.00    +0.000 OA
ATOM     33  H   UNL     1      -1.091  10.532  20.891  0.00  0.00    +0.000 HD
ENDBRANCH  28  29
BRANCH  23  34
ATOM     34  O   UNL     1       0.911  10.696  18.947  0.00  0.00    +0.000 OA
BRANCH  34  35
ATOM     35  C   UNL     1       0.084  10.662  17.780  0.00  0.00    +0.000 C 
BRANCH  35  37
ATOM     36  C   UNL     1      -2.306   9.867  17.647  0.00  0.00    +0.000 C 
ATOM     37  C   UNL     1      -1.354  10.636  18.204  0.00  0.00    +0.000 C 
ENDBRANCH  35  37
ENDBRANCH  34  35
ENDBRANCH  23  34
ENDBRANCH  20  26
ENDBRANCH   1  21
TORSDOF 10
ENDMDL
MODEL 2
REMARK VINA RESULT:      -8.3      1.103      1.473
REMARK  Name = 
REMARK  12 active torsions:
REMARK  status: ('A' for Active; 'I' for Inactive)
REMARK    1  A    between atoms: C_2  and  C_3
REMARK    2  A    between atoms: C_3  and  O_4
REMARK    3  A    between atoms: O_4  and  C_5
REMARK    4  A    between atoms: C_8  and  C_9
REMARK    5  A    between atoms: C_10  and  C_11
REMARK    6  A    between atoms: C_10  and  C_12
REMARK    7  A    between atoms: N_14  and  C_15
REMARK    8  A    between atoms: C_16  and  O_17
REMARK    9  A    between atoms: C_18  and  O_19
REMARK   10  A    between atoms: C_25  and  O_26
REMARK   11  A    between atoms: C_28  and  N_29
REMARK   12  A    between atoms: C_30  and  C_31
REMARK                            x       y       z     vdW  Elec       q    Type
REMARK                         _______ _______ _______ _____ _____    ______ ____
ROOT
ATOM      1  C   UNL     1       2.773   4.694  19.257  0.00  0.00    +0.000 C 
ATOM      2  O   UNL     1       2.148   4.590  18.204  0.00  0.00    +0.000 OA
ATOM      3  N   UNL     1       4.133   4.613  19.303  0.00  0.00    +0.000 N 
ATOM      4  H   UNL     1       4.600   4.564  20.203  0.00  0.00    +0.000 HD
ENDROOT
BRANCH   3   5
ATOM      5  C   UNL     1       5.023   4.524  18.129  0.00  0.00    +0.000 C 
ATOM      6  C   UNL     1       6.469   4.810  18.612  0.00  0.00    +0.000 C 
ATOM      7  C   UNL     1       7.473   5.016  17.469  0.00  0.00    +0.000 C 
ATOM      8  C   UNL     1       6.968   5.992  16.377  0.00  0.00    +0.000 C 
ATOM      9  O   UNL     1       7.745   5.847  15.176  0.00  0.00    +0.000 OA
ATOM     10  C   UNL     1       7.017   4.896  14.382  0.00  0.00    +0.000 C 
ATOM     11  O   UNL     1       5.817   4.511  15.093  0.00  0.00    +0.000 OA
ATOM     12  C   UNL     1       5.572   5.670  15.894  0.00  0.00    +0.000 C 
ATOM     13  C   UNL     1       4.578   5.525  17.041  0.00  0.00    +0.000 C 
BRANCH   6  14
ATOM     14  O   UNL     1       6.491   5.922  19.516  0.00  0.00    +0.000 OA
ATOM     15  H   UNL     1       5.681   5.905  20.061  0.00  0.00    +0.000 HD
ENDBRANCH   6  14
BRANCH   7  16
ATOM     16  O   UNL     1       7.815   3.722  16.948  0.00  0.00    +0.000 OA
ATOM     17  H   UNL     1       8.664   3.450  17.344  0.00  0.00    +0.000 HD
ENDBRANCH   7  16
BRANCH  13  18
ATOM     18  O   UNL     1       4.464   6.831  17.644  0.00  0.00    +0.000 OA
ATOM     19  H   UNL     1       3.530   6.900  17.927  0.00  0.00    +0.000 HD
ENDBRANCH  13  18
ENDBRANCH   3   5
BRANCH   1  21
ATOM     20  C   UNL     1       1.516   5.975  21.082  0.00  0.00    +0.000 C 
ATOM     21  C   UNL     1       2.069   4.848  20.579  0.00  0.00    +0.000 C 
ATOM     22  C   UNL     1       1.911   3.553  21.342  0.00  0.00    +0.000 C 
BRANCH  20  26
ATOM     23  C   UNL     1       1.052   9.857  19.340  0.00  0.00    +0.000 A 
ATOM     24  C   UNL     1       1.816   8.875  18.687  0.00  0.00    +0.000 A 
ATOM     25  C   UNL     1       2.001   7.610  19.257  0.00  0.00    +0.000 A 
ATOM     26  C   UNL     1       1.394   7.302  20.472  0.00  0.00    +0.000 A 
ATOM     27  C   UNL     1       0.637   8.282  21.123  0.00  0.00    +0.000 A 
ATOM     28  C   UNL     1       0.450   9.564  20.574  0.00  0.00    +0.000 A 
BRANCH  28  29
ATOM     29  N   UNL     1      -0.405  10.493  21.218  0.00  0.00    +0.000 N 
ATOM     30  C   UNL     1      -0.540  10.674  22.582  0.00  0.00    +0.000 C 
ATOM     31  C   UNL     1      -1.560  11.709  22.965  0.00  0.00    +0.000 C 
ATOM     32  O   UNL     1       0.109  10.109  23.459  0.00  0.00    +0.000 OA
ATOM     33  H   UNL     1      -0.936  11.102  20.608  0.00  0.00    +0.000 HD
ENDBRANCH  28  29
BRANCH  23  34
ATOM     34  O   UNL     1       0.907  11.020  18.618  0.00  0.00    +0.000 OA
BRANCH  34  35
ATOM     35  C   UNL     1       2.018  11.921  18.624  0.00  0.00    +0.000 C 
BRANCH  35  37
ATOM     36  C   UNL     1       2.322  13.440  20.614  0.00  0.00    +0.000 C 
ATOM     37  C   UNL     1       1.680  13.104  19.482  0.00  0.00    +0.000 C 
ENDBRANCH  35  37
ENDBRANCH  34  35
ENDBRANCH  23  34
ENDBRANCH  20  26
ENDBRANCH   1  21
TORSDOF 10
ENDMDL
MODEL 3
REMARK VINA RESULT:      -8.3      0.808      1.001
REMARK  Name = 
REMARK  12 active torsions:
REMARK  status: ('A' for Active; 'I' for Inactive)
REMARK    1  A    between atoms: C_2  and  C_3
REMARK    2  A    between atoms: C_3  and  O_4
REMARK    3  A    between atoms: O_4  and  C_5
REMARK    4  A    between atoms: C_8  and  C_9
REMARK    5  A    between atoms: C_10  and  C_11
REMARK    6  A    between atoms: C_10  and  C_12
REMARK    7  A    between atoms: N_14  and  C_15
REMARK    8  A    between atoms: C_16  and  O_17
REMARK    9  A    between atoms: C_18  and  O_19
REMARK   10  A    between atoms: C_25  and  O_26
REMARK   11  A    between atoms: C_28  and  N_29
REMARK   12  A    between atoms: C_30  and  C_31
REMARK                            x       y       z     vdW  Elec       q    Type
REMARK                         _______ _______ _______ _____ _____    ______ ____
ROOT
ATOM      1  C   UNL     1       2.980   3.732  19.275  0.00  0.00    +0.000 C 
ATOM      2  O   UNL     1       2.402   3.360  18.256  0.00  0.00    +0.000 OA
ATOM      3  N   UNL     1       4.316   4.002  19.293  0.00  0.00    +0.000 N 
ATOM      4  H   UNL     1       4.779   4.170  20.180  0.00  0.00    +0.000 HD
ENDROOT
BRANCH   3   5
ATOM      5  C   UNL     1       5.200   4.014  18.111  0.00  0.00    +0.000 C 
ATOM      6  C   UNL     1       6.466   4.830  18.479  0.00  0.00    +0.000 C 
ATOM      7  C   UNL     1       7.361   5.159  17.276  0.00  0.00    +0.000 C 
ATOM      8  C   UNL     1       6.577   5.722  16.063  0.00  0.00    +0.000 C 
ATOM      9  O   UNL     1       7.373   5.640  14.869  0.00  0.00    +0.000 OA
ATOM     10  C   UNL     1       7.007   4.387  14.270  0.00  0.00    +0.000 C 
ATOM     11  O   UNL     1       5.991   3.756  15.086  0.00  0.00    +0.000 OA
ATOM     12  C   UNL     1       5.370   4.888  15.699  0.00  0.00    +0.000 C 
ATOM     13  C   UNL     1       4.465   4.620  16.897  0.00  0.00    +0.000 C 
BRANCH   6  14
ATOM     14  O   UNL     1       6.111   6.024  19.191  0.00  0.00    +0.000 OA
ATOM     15  H   UNL     1       6.270   5.884  20.144  0.00  0.00    +0.000 HD
ENDBRANCH   6  14
BRANCH   7  16
ATOM     16  O   UNL     1       8.115   3.980  16.955  0.00  0.00    +0.000 OA
ATOM     17  H   UNL     1       8.829   4.234  16.341  0.00  0.00    +0.000 HD
ENDBRANCH   7  16
BRANCH  13  18
ATOM     18  O   UNL     1       3.921   5.899  17.286  0.00  0.00    +0.000 OA
ATOM     19  H   UNL     1       3.455   6.229  16.492  0.00  0.00    +0.000 HD
ENDBRANCH  13  18
ENDBRANCH   3   5
BRANCH   1  21
ATOM     20  C   UNL     1       1.731   4.964  21.139  0.00  0.00    +0.000 C 
ATOM     21  C   UNL     1       2.259   3.845  20.592  0.00  0.00    +0.000 C 
ATOM     22  C   UNL     1       2.050   2.522  21.291  0.00  0.00    +0.000 C 
BRANCH  20  26
ATOM     23  C   UNL     1       1.408   8.932  19.568  0.00  0.00    +0.000 A 
ATOM     24  C   UNL     1       2.201   7.975  18.914  0.00  0.00    +0.000 A 
ATOM     25  C   UNL     1       2.340   6.681  19.429  0.00  0.00    +0.000 A 
ATOM     26  C   UNL     1       1.658   6.321  20.590  0.00  0.00    +0.000 A 
ATOM     27  C   UNL     1       0.873   7.277  21.242  0.00  0.00    +0.000 A 
ATOM     28  C   UNL     1       0.730   8.586  20.748  0.00  0.00    +0.000 A 
BRANCH  28  29
ATOM     29  N   UNL     1      -0.153   9.493  21.386  0.00  0.00    +0.000 N 
ATOM     30  C   UNL     1      -0.075   9.929  22.695  0.00  0.00    +0.000 C 
ATOM     31  C   UNL     1      -1.184  10.860  23.098  0.00  0.00    +0.000 C 
ATOM     32  O   UNL     1       0.811   9.658  23.502  0.00  0.00    +0.000 OA
ATOM     33  H   UNL     1      -0.887   9.878  20.804  0.00  0.00    +0.000 HD
ENDBRANCH  28  29
BRANCH  23  34
ATOM     34  O   UNL     1       1.317  10.131  18.898  0.00  0.00    +0.000 OA
BRANCH  34  35
ATOM     35  C   UNL     1       0.061  10.429  18.282  0.00  0.00    +0.000 C 
BRANCH  35  37
ATOM     36  C   UNL     1       0.292  12.588  19.564  0.00  0.00    +0.000 C 
ATOM     37  C   UNL     1      -0.363  11.809  18.686  0.00  0.00    +0.000 C 
ENDBRANCH  35  37
ENDBRANCH  34  35
ENDBRANCH  23  34
ENDBRANCH  20  26
ENDBRANCH   1  21
TORSDOF 10
ENDMDL
MODEL 4
REMARK VINA RESULT:      -7.9      3.089      8.746
REMARK  Name = 
REMARK  12 active torsions:
REMARK  status: ('A' for Active; 'I' for Inactive)
REMARK    1  A    between atoms: C_2  and  C_3
REMARK    2  A    between atoms: C_3  and  O_4
REMARK    3  A    between atoms: O_4  and  C_5
REMARK    4  A    between atoms: C_8  and  C_9
REMARK    5  A    between atoms: C_10  and  C_11
REMARK    6  A    between atoms: C_10  and  C_12
REMARK    7  A    between atoms: N_14  and  C_15
REMARK    8  A    between atoms: C_16  and  O_17
REMARK    9  A    between atoms: C_18  and  O_19
REMARK   10  A    between atoms: C_25  and  O_26
REMARK   11  A    between atoms: C_28  and  N_29
REMARK   12  A    between atoms: C_30  and  C_31
REMARK                            x       y       z     vdW  Elec       q    Type
REMARK                         _______ _______ _______ _____ _____    ______ ____
ROOT
ATOM      1  C   UNL     1       0.362  10.180  20.490  0.00  0.00    +0.000 C 
ATOM      2  O   UNL     1      -0.213  10.042  19.414  0.00  0.00    +0.000 OA
ATOM      3  N   UNL     1       0.965  11.350  20.845  0.00  0.00    +0.000 N 
ATOM      4  H   UNL     1       1.545  11.380  21.677  0.00  0.00    +0.000 HD
ENDROOT
BRANCH   3   5
ATOM      5  C   UNL     1       0.904  12.609  20.078  0.00  0.00    +0.000 C 
ATOM      6  C   UNL     1       2.296  13.285  20.170  0.00  0.00    +0.000 C 
ATOM      7  C   UNL     1       2.319  14.728  19.646  0.00  0.00    +0.000 C 
ATOM      8  C   UNL     1       1.157  15.597  20.192  0.00  0.00    +0.000 C 
ATOM      9  O   UNL     1       0.997  16.780  19.391  0.00  0.00    +0.000 OA
ATOM     10  C   UNL     1       0.007  16.427  18.411  0.00  0.00    +0.000 C 
ATOM     11  O   UNL     1      -0.426  15.067  18.651  0.00  0.00    +0.000 OA
ATOM     12  C   UNL     1      -0.194  14.934  20.055  0.00  0.00    +0.000 C 
ATOM     13  C   UNL     1      -0.211  13.522  20.632  0.00  0.00    +0.000 C 
BRANCH   6  14
ATOM     14  O   UNL     1       2.803  13.221  21.510  0.00  0.00    +0.000 OA
ATOM     15  H   UNL     1       2.518  14.018  21.996  0.00  0.00    +0.000 HD
ENDBRANCH   6  14
BRANCH   7  16
ATOM     16  O   UNL     1       2.349  14.673  18.212  0.00  0.00    +0.000 OA
ATOM     17  H   UNL     1       1.721  13.986  17.920  0.00  0.00    +0.000 HD
ENDBRANCH   7  16
BRANCH  13  18
ATOM     18  O   UNL     1      -0.016  13.665  22.055  0.00  0.00    +0.000 OA
ATOM     19  H   UNL     1       0.827  14.150  22.149  0.00  0.00    +0.000 HD
ENDBRANCH  13  18
ENDBRANCH   3   5
BRANCH   1  21
ATOM     20  C   UNL     1       1.121   7.855  21.248  0.00  0.00    +0.000 C 
ATOM     21  C   UNL     1       0.499   9.038  21.462  0.00  0.00    +0.000 C 
ATOM     22  C   UNL     1      -0.052   9.334  22.837  0.00  0.00    +0.000 C 
BRANCH  20  26
ATOM     23  C   UNL     1       3.352   6.442  17.880  0.00  0.00    +0.000 A 
ATOM     24  C   UNL     1       3.001   7.799  17.977  0.00  0.00    +0.000 A 
ATOM     25  C   UNL     1       2.248   8.272  19.057  0.00  0.00    +0.000 A 
ATOM     26  C   UNL     1       1.865   7.396  20.071  0.00  0.00    +0.000 A 
ATOM     27  C   UNL     1       2.211   6.045  19.970  0.00  0.00    +0.000 A 
ATOM     28  C   UNL     1       2.957   5.547  18.887  0.00  0.00    +0.000 A 
BRANCH  28  29
ATOM     29  N   UNL     1       3.370   4.191  18.874  0.00  0.00    +0.000 N 
ATOM     30  C   UNL     1       2.818   3.174  18.118  0.00  0.00    +0.000 C 
ATOM     31  C   UNL     1       3.444   1.828  18.352  0.00  0.00    +0.000 C 
ATOM     32  O   UNL     1       1.925   3.289  17.282  0.00  0.00    +0.000 OA
ATOM     33  H   UNL     1       4.170   3.967  19.451  0.00  0.00    +0.000 HD
ENDBRANCH  28  29
BRANCH  23  34
ATOM     34  O   UNL     1       4.152   6.151  16.799  0.00  0.00    +0.000 OA
BRANCH  34  35
ATOM     35  C   UNL     1       5.360   6.905  16.672  0.00  0.00    +0.000 C 
BRANCH  35  37
ATOM     36  C   UNL     1       7.589   6.893  17.853  0.00  0.00    +0.000 C 
ATOM     37  C   UNL     1       6.384   6.345  17.613  0.00  0.00    +0.000 C 
ENDBRANCH  35  37
ENDBRANCH  34  35
ENDBRANCH  23  34
ENDBRANCH  20  26
ENDBRANCH   1  21
TORSDOF 10
ENDMDL
MODEL 5
REMARK VINA RESULT:      -7.8      1.381      1.723
REMARK  Name = 
REMARK  12 active torsions:
REMARK  status: ('A' for Active; 'I' for Inactive)
REMARK    1  A    between atoms: C_2  and  C_3
REMARK    2  A    between atoms: C_3  and  O_4
REMARK    3  A    between atoms: O_4  and  C_5
REMARK    4  A    between atoms: C_8  and  C_9
REMARK    5  A    between atoms: C_10  and  C_11
REMARK    6  A    between atoms: C_10  and  C_12
REMARK    7  A    between atoms: N_14  and  C_15
REMARK    8  A    between atoms: C_16  and  O_17
REMARK    9  A    between atoms: C_18  and  O_19
REMARK   10  A    between atoms: C_25  and  O_26
REMARK   11  A    between atoms: C_28  and  N_29
REMARK   12  A    between atoms: C_30  and  C_31
REMARK                            x       y       z     vdW  Elec       q    Type
REMARK                         _______ _______ _______ _____ _____    ______ ____
ROOT
ATOM      1  C   UNL     1       2.895   4.272  19.266  0.00  0.00    +0.000 C 
ATOM      2  O   UNL     1       2.305   3.839  18.279  0.00  0.00    +0.000 OA
ATOM      3  N   UNL     1       4.241   4.488  19.269  0.00  0.00    +0.000 N 
ATOM      4  H   UNL     1       4.708   4.711  20.141  0.00  0.00    +0.000 HD
ENDROOT
BRANCH   3   5
ATOM      5  C   UNL     1       5.127   4.365  18.096  0.00  0.00    +0.000 C 
ATOM      6  C   UNL     1       6.512   4.941  18.489  0.00  0.00    +0.000 C 
ATOM      7  C   UNL     1       7.465   5.128  17.300  0.00  0.00    +0.000 C 
ATOM      8  C   UNL     1       6.806   5.840  16.092  0.00  0.00    +0.000 C 
ATOM      9  O   UNL     1       7.590   5.639  14.903  0.00  0.00    +0.000 OA
ATOM     10  C   UNL     1       7.017   4.479  14.278  0.00  0.00    +0.000 C 
ATOM     11  O   UNL     1       5.897   4.023  15.073  0.00  0.00    +0.000 OA
ATOM     12  C   UNL     1       5.476   5.235  15.702  0.00  0.00    +0.000 C 
ATOM     13  C   UNL     1       4.524   5.110  16.886  0.00  0.00    +0.000 C 
BRANCH   6  14
ATOM     14  O   UNL     1       6.363   6.166  19.220  0.00  0.00    +0.000 OA
ATOM     15  H   UNL     1       6.125   6.880  18.598  0.00  0.00    +0.000 HD
ENDBRANCH   6  14
BRANCH   7  16
ATOM     16  O   UNL     1       8.005   3.840  16.964  0.00  0.00    +0.000 OA
ATOM     17  H   UNL     1       8.647   3.590  17.655  0.00  0.00    +0.000 HD
ENDBRANCH   7  16
BRANCH  13  18
ATOM     18  O   UNL     1       4.207   6.458  17.294  0.00  0.00    +0.000 OA
ATOM     19  H   UNL     1       4.963   6.741  17.846  0.00  0.00    +0.000 HD
ENDBRANCH  13  18
ENDBRANCH   3   5
BRANCH   1  21
ATOM     20  C   UNL     1       1.657   5.697  20.994  0.00  0.00    +0.000 C 
ATOM     21  C   UNL     1       2.176   4.525  20.565  0.00  0.00    +0.000 C 
ATOM     22  C   UNL     1       1.959   3.282  21.396  0.00  0.00    +0.000 C 
BRANCH  20  26
ATOM     23  C   UNL     1       1.382   9.506  19.061  0.00  0.00    +0.000 A 
ATOM     24  C   UNL     1       1.722   8.361  18.323  0.00  0.00    +0.000 A 
ATOM     25  C   UNL     1       1.844   7.112  18.944  0.00  0.00    +0.000 A 
ATOM     26  C   UNL     1       1.593   6.992  20.310  0.00  0.00    +0.000 A 
ATOM     27  C   UNL     1       1.259   8.134  21.044  0.00  0.00    +0.000 A 
ATOM     28  C   UNL     1       1.144   9.399  20.441  0.00  0.00    +0.000 A 
BRANCH  28  29
ATOM     29  N   UNL     1       0.708  10.512  21.204  0.00  0.00    +0.000 N 
ATOM     30  C   UNL     1      -0.442  11.248  20.996  0.00  0.00    +0.000 C 
ATOM     31  C   UNL     1      -0.614  12.400  21.946  0.00  0.00    +0.000 C 
ATOM     32  O   UNL     1      -1.313  11.018  20.160  0.00  0.00    +0.000 OA
ATOM     33  H   UNL     1       1.287  10.758  21.997  0.00  0.00    +0.000 HD
ENDBRANCH  28  29
BRANCH  23  34
ATOM     34  O   UNL     1       1.233  10.639  18.295  0.00  0.00    +0.000 OA
BRANCH  34  35
ATOM     35  C   UNL     1       2.404  11.435  18.092  0.00  0.00    +0.000 C 
BRANCH  35  37
ATOM     36  C   UNL     1       2.452  13.953  18.225  0.00  0.00    +0.000 C 
ATOM     37  C   UNL     1       2.223  12.752  18.785  0.00  0.00    +0.000 C 
ENDBRANCH  35  37
ENDBRANCH  34  35
ENDBRANCH  23  34
ENDBRANCH  20  26
ENDBRANCH   1  21
TORSDOF 10
ENDMDL
MODEL 6
REMARK VINA RESULT:      -7.8      1.619      2.136
REMARK  Name = 
REMARK  12 active torsions:
REMARK  status: ('A' for Active; 'I' for Inactive)
REMARK    1  A    between atoms: C_2  and  C_3
REMARK    2  A    between atoms: C_3  and  O_4
REMARK    3  A    between atoms: O_4  and  C_5
REMARK    4  A    between atoms: C_8  and  C_9
REMARK    5  A    between atoms: C_10  and  C_11
REMARK    6  A    between atoms: C_10  and  C_12
REMARK    7  A    between atoms: N_14  and  C_15
REMARK    8  A    between atoms: C_16  and  O_17
REMARK    9  A    between atoms: C_18  and  O_19
REMARK   10  A    between atoms: C_25  and  O_26
REMARK   11  A    between atoms: C_28  and  N_29
REMARK   12  A    between atoms: C_30  and  C_31
REMARK                            x       y       z     vdW  Elec       q    Type
REMARK                         _______ _______ _______ _____ _____    ______ ____
ROOT
ATOM      1  C   UNL     1       2.423   5.243  19.127  0.00  0.00    +0.000 C 
ATOM      2  O   UNL     1       1.692   4.996  18.170  0.00  0.00    +0.000 OA
ATOM      3  N   UNL     1       3.778   5.322  19.003  0.00  0.00    +0.000 N 
ATOM      4  H   UNL     1       4.352   5.389  19.837  0.00  0.00    +0.000 HD
ENDROOT
BRANCH   3   5
ATOM      5  C   UNL     1       4.524   5.254  17.732  0.00  0.00    +0.000 C 
ATOM      6  C   UNL     1       4.911   3.772  17.491  0.00  0.00    +0.000 C 
ATOM      7  C   UNL     1       5.916   3.574  16.348  0.00  0.00    +0.000 C 
ATOM      8  C   UNL     1       7.127   4.539  16.420  0.00  0.00    +0.000 C 
ATOM      9  O   UNL     1       7.809   4.583  15.155  0.00  0.00    +0.000 OA
ATOM     10  C   UNL     1       7.218   5.694  14.460  0.00  0.00    +0.000 C 
ATOM     11  O   UNL     1       6.226   6.308  15.315  0.00  0.00    +0.000 OA
ATOM     12  C   UNL     1       6.722   5.982  16.615  0.00  0.00    +0.000 C 
ATOM     13  C   UNL     1       5.768   6.166  17.790  0.00  0.00    +0.000 C 
BRANCH   6  14
ATOM     14  O   UNL     1       5.391   3.171  18.702  0.00  0.00    +0.000 OA
ATOM     15  H   UNL     1       6.367   3.155  18.683  0.00  0.00    +0.000 HD
ENDBRANCH   6  14
BRANCH   7  16
ATOM     16  O   UNL     1       5.196   3.672  15.109  0.00  0.00    +0.000 OA
ATOM     17  H   UNL     1       5.711   4.236  14.503  0.00  0.00    +0.000 HD
ENDBRANCH   7  16
BRANCH  13  18
ATOM     18  O   UNL     1       6.520   5.834  18.976  0.00  0.00    +0.000 OA
ATOM     19  H   UNL     1       5.990   5.150  19.431  0.00  0.00    +0.000 HD
ENDBRANCH  13  18
ENDBRANCH   3   5
BRANCH   1  21
ATOM     20  C   UNL     1       1.396   6.543  21.079  0.00  0.00    +0.000 C 
ATOM     21  C   UNL     1       1.869   5.407  20.518  0.00  0.00    +0.000 C 
ATOM     22  C   UNL     1       1.769   4.113  21.292  0.00  0.00    +0.000 C 
BRANCH  20  26
ATOM     23  C   UNL     1       0.817  10.431  19.385  0.00  0.00    +0.000 A 
ATOM     24  C   UNL     1       1.648   9.497  18.745  0.00  0.00    +0.000 A 
ATOM     25  C   UNL     1       1.871   8.231  19.300  0.00  0.00    +0.000 A 
ATOM     26  C   UNL     1       1.235   7.874  20.487  0.00  0.00    +0.000 A 
ATOM     27  C   UNL     1       0.412   8.807  21.126  0.00  0.00    +0.000 A 
ATOM     28  C   UNL     1       0.185  10.088  20.592  0.00  0.00    +0.000 A 
BRANCH  28  29
ATOM     29  N   UNL     1      -0.734  10.966  21.220  0.00  0.00    +0.000 N 
ATOM     30  C   UNL     1      -0.911  11.130  22.581  0.00  0.00    +0.000 C 
ATOM     31  C   UNL     1      -1.995  12.106  22.945  0.00  0.00    +0.000 C 
ATOM     32  O   UNL     1      -0.255  10.595  23.471  0.00  0.00    +0.000 OA
ATOM     33  H   UNL     1      -1.282  11.549  20.600  0.00  0.00    +0.000 HD
ENDBRANCH  28  29
BRANCH  23  34
ATOM     34  O   UNL     1       0.644  11.599  18.679  0.00  0.00    +0.000 OA
BRANCH  34  35
ATOM     35  C   UNL     1       1.774  12.472  18.596  0.00  0.00    +0.000 C 
BRANCH  35  37
ATOM     36  C   UNL     1       2.674  14.188  20.210  0.00  0.00    +0.000 C 
ATOM     37  C   UNL     1       2.072  13.012  19.963  0.00  0.00    +0.000 C 
ENDBRANCH  35  37
ENDBRANCH  34  35
ENDBRANCH  23  34
ENDBRANCH  20  26
ENDBRANCH   1  21
TORSDOF 10
ENDMDL
MODEL 7
REMARK VINA RESULT:      -7.7      2.882     10.245
REMARK  Name = 
REMARK  12 active torsions:
REMARK  status: ('A' for Active; 'I' for Inactive)
REMARK    1  A    between atoms: C_2  and  C_3
REMARK    2  A    between atoms: C_3  and  O_4
REMARK    3  A    between atoms: O_4  and  C_5
REMARK    4  A    between atoms: C_8  and  C_9
REMARK    5  A    between atoms: C_10  and  C_11
REMARK    6  A    between atoms: C_10  and  C_12
REMARK    7  A    between atoms: N_14  and  C_15
REMARK    8  A    between atoms: C_16  and  O_17
REMARK    9  A    between atoms: C_18  and  O_19
REMARK   10  A    between atoms: C_25  and  O_26
REMARK   11  A    between atoms: C_28  and  N_29
REMARK   12  A    between atoms: C_30  and  C_31
REMARK                            x       y       z     vdW  Elec       q    Type
REMARK                         _______ _______ _______ _____ _____    ______ ____
ROOT
ATOM      1  C   UNL     1      -0.618  11.148  19.565  0.00  0.00    +0.000 C 
ATOM      2  O   UNL     1      -1.352  10.179  19.389  0.00  0.00    +0.000 OA
ATOM      3  N   UNL     1      -0.930  12.144  20.441  0.00  0.00    +0.000 N 
ATOM      4  H   UNL     1      -0.371  12.990  20.455  0.00  0.00    +0.000 HD
ENDROOT
BRANCH   3   5
ATOM      5  C   UNL     1      -2.082  12.139  21.364  0.00  0.00    +0.000 C 
ATOM      6  C   UNL     1      -3.193  13.019  20.735  0.00  0.00    +0.000 C 
ATOM      7  C   UNL     1      -4.352  13.329  21.692  0.00  0.00    +0.000 C 
ATOM      8  C   UNL     1      -3.883  13.808  23.090  0.00  0.00    +0.000 C 
ATOM      9  O   UNL     1      -4.956  13.704  24.041  0.00  0.00    +0.000 OA
ATOM     10  C   UNL     1      -4.785  12.412  24.647  0.00  0.00    +0.000 C 
ATOM     11  O   UNL     1      -3.614  11.780  24.079  0.00  0.00    +0.000 OA
ATOM     12  C   UNL     1      -2.829  12.912  23.699  0.00  0.00    +0.000 C 
ATOM     13  C   UNL     1      -1.660  12.662  22.754  0.00  0.00    +0.000 C 
BRANCH   6  14
ATOM     14  O   UNL     1      -2.639  14.227  20.197  0.00  0.00    +0.000 OA
ATOM     15  H   UNL     1      -2.494  14.112  19.239  0.00  0.00    +0.000 HD
ENDBRANCH   6  14
BRANCH   7  16
ATOM     16  O   UNL     1      -5.194  12.166  21.753  0.00  0.00    +0.000 OA
ATOM     17  H   UNL     1      -6.063  12.401  21.378  0.00  0.00    +0.000 HD
ENDBRANCH   7  16
BRANCH  13  18
ATOM     18  O   UNL     1      -1.002  13.935  22.580  0.00  0.00    +0.000 OA
ATOM     19  H   UNL     1      -1.671  14.513  22.162  0.00  0.00    +0.000 HD
ENDBRANCH  13  18
ENDBRANCH   3   5
BRANCH   1  21
ATOM     20  C   UNL     1       1.667  10.455  18.641  0.00  0.00    +0.000 C 
ATOM     21  C   UNL     1       0.646  11.333  18.768  0.00  0.00    +0.000 C 
ATOM     22  C   UNL     1       0.684  12.616  17.970  0.00  0.00    +0.000 C 
BRANCH  20  26
ATOM     23  C   UNL     1       2.014   6.444  20.094  0.00  0.00    +0.000 A 
ATOM     24  C   UNL     1       1.465   7.446  20.909  0.00  0.00    +0.000 A 
ATOM     25  C   UNL     1       1.370   8.769  20.461  0.00  0.00    +0.000 A 
ATOM     26  C   UNL     1       1.794   9.095  19.174  0.00  0.00    +0.000 A 
ATOM     27  C   UNL     1       2.345   8.097  18.365  0.00  0.00    +0.000 A 
ATOM     28  C   UNL     1       2.462   6.764  18.802  0.00  0.00    +0.000 A 
BRANCH  28  29
ATOM     29  N   UNL     1       2.935   5.766  17.915  0.00  0.00    +0.000 N 
ATOM     30  C   UNL     1       4.190   5.187  17.926  0.00  0.00    +0.000 C 
ATOM     31  C   UNL     1       4.414   4.185  16.829  0.00  0.00    +0.000 C 
ATOM     32  O   UNL     1       5.080   5.392  18.749  0.00  0.00    +0.000 OA
ATOM     33  H   UNL     1       2.267   5.427  17.234  0.00  0.00    +0.000 HD
ENDBRANCH  28  29
BRANCH  23  34
ATOM     34  O   UNL     1       1.972   5.187  20.652  0.00  0.00    +0.000 OA
BRANCH  34  35
ATOM     35  C   UNL     1       0.802   4.407  20.388  0.00  0.00    +0.000 C 
BRANCH  35  37
ATOM     36  C   UNL     1       1.140   2.654  18.607  0.00  0.00    +0.000 C 
ATOM     37  C   UNL     1       1.221   3.057  19.887  0.00  0.00    +0.000 C 
ENDBRANCH  35  37
ENDBRANCH  34  35
ENDBRANCH  23  34
ENDBRANCH  20  26
ENDBRANCH   1  21
TORSDOF 10
ENDMDL
MODEL 8
REMARK VINA RESULT:      -7.6      4.620      9.537
REMARK  Name = 
REMARK  12 active torsions:
REMARK  status: ('A' for Active; 'I' for Inactive)
REMARK    1  A    between atoms: C_2  and  C_3
REMARK    2  A    between atoms: C_3  and  O_4
REMARK    3  A    between atoms: O_4  and  C_5
REMARK    4  A    between atoms: C_8  and  C_9
REMARK    5  A    between atoms: C_10  and  C_11
REMARK    6  A    between atoms: C_10  and  C_12
REMARK    7  A    between atoms: N_14  and  C_15
REMARK    8  A    between atoms: C_16  and  O_17
REMARK    9  A    between atoms: C_18  and  O_19
REMARK   10  A    between atoms: C_25  and  O_26
REMARK   11  A    between atoms: C_28  and  N_29
REMARK   12  A    between atoms: C_30  and  C_31
REMARK                            x       y       z     vdW  Elec       q    Type
REMARK                         _______ _______ _______ _____ _____    ______ ____
ROOT
ATOM      1  C   UNL     1      -0.656  14.537  22.213  0.00  0.00    +0.000 C 
ATOM      2  O   UNL     1       0.025  14.913  23.164  0.00  0.00    +0.000 OA
ATOM      3  N   UNL     1      -0.376  14.903  20.930  0.00  0.00    +0.000 N 
ATOM      4  H   UNL     1      -1.039  14.688  20.194  0.00  0.00    +0.000 HD
ENDROOT
BRANCH   3   5
ATOM      5  C   UNL     1       0.813  15.665  20.501  0.00  0.00    +0.000 C 
ATOM      6  C   UNL     1       0.372  16.627  19.368  0.00  0.00    +0.000 C 
ATOM      7  C   UNL     1       1.543  17.297  18.635  0.00  0.00    +0.000 C 
ATOM      8  C   UNL     1       2.658  16.303  18.222  0.00  0.00    +0.000 C 
ATOM      9  O   UNL     1       3.870  17.011  17.908  0.00  0.00    +0.000 OA
ATOM     10  C   UNL     1       4.614  17.026  19.137  0.00  0.00    +0.000 C 
ATOM     11  O   UNL     1       3.863  16.313  20.148  0.00  0.00    +0.000 OA
ATOM     12  C   UNL     1       3.099  15.404  19.354  0.00  0.00    +0.000 C 
ATOM     13  C   UNL     1       1.926  14.704  20.032  0.00  0.00    +0.000 C 
BRANCH   6  14
ATOM     14  O   UNL     1      -0.492  15.955  18.440  0.00  0.00    +0.000 OA
ATOM     15  H   UNL     1      -0.864  15.162  18.871  0.00  0.00    +0.000 HD
ENDBRANCH   6  14
BRANCH   7  16
ATOM     16  O   UNL     1       2.025  18.365  19.465  0.00  0.00    +0.000 OA
ATOM     17  H   UNL     1       1.263  18.916  19.725  0.00  0.00    +0.000 HD
ENDBRANCH   7  16
BRANCH  13  18
ATOM     18  O   UNL     1       1.368  13.807  19.048  0.00  0.00    +0.000 OA
ATOM     19  H   UNL     1       1.576  12.909  19.375  0.00  0.00    +0.000 HD
ENDBRANCH  13  18
ENDBRANCH   3   5
BRANCH   1  21
ATOM     20  C   UNL     1      -2.220  12.561  21.759  0.00  0.00    +0.000 C 
ATOM     21  C   UNL     1      -1.892  13.700  22.412  0.00  0.00    +0.000 C 
ATOM     22  C   UNL     1      -2.780  14.177  23.538  0.00  0.00    +0.000 C 
BRANCH  20  26
ATOM     23  C   UNL     1      -0.093  10.355  18.771  0.00  0.00    +0.000 A 
ATOM     24  C   UNL     1       0.316  10.304  20.114  0.00  0.00    +0.000 A 
ATOM     25  C   UNL     1      -0.350  11.042  21.099  0.00  0.00    +0.000 A 
ATOM     26  C   UNL     1      -1.459  11.814  20.755  0.00  0.00    +0.000 A 
ATOM     27  C   UNL     1      -1.862  11.867  19.417  0.00  0.00    +0.000 A 
ATOM     28  C   UNL     1      -1.198  11.143  18.410  0.00  0.00    +0.000 A 
BRANCH  28  29
ATOM     29  N   UNL     1      -1.700  11.148  17.084  0.00  0.00    +0.000 N 
ATOM     30  C   UNL     1      -2.673  10.310  16.573  0.00  0.00    +0.000 C 
ATOM     31  C   UNL     1      -2.966  10.528  15.115  0.00  0.00    +0.000 C 
ATOM     32  O   UNL     1      -3.314   9.470  17.201  0.00  0.00    +0.000 OA
ATOM     33  H   UNL     1      -1.326  11.863  16.473  0.00  0.00    +0.000 HD
ENDBRANCH  28  29
BRANCH  23  34
ATOM     34  O   UNL     1       0.619   9.521  17.940  0.00  0.00    +0.000 OA
BRANCH  34  35
ATOM     35  C   UNL     1       1.928   9.144  18.377  0.00  0.00    +0.000 C 
BRANCH  35  37
ATOM     36  C   UNL     1       3.319   7.084  17.951  0.00  0.00    +0.000 C 
ATOM     37  C   UNL     1       2.398   7.981  17.556  0.00  0.00    +0.000 C 
ENDBRANCH  35  37
ENDBRANCH  34  35
ENDBRANCH  23  34
ENDBRANCH  20  26
ENDBRANCH   1  21
TORSDOF 10
ENDMDL
MODEL 9
REMARK VINA RESULT:      -7.6      1.144      1.618
REMARK  Name = 
REMARK  12 active torsions:
REMARK  status: ('A' for Active; 'I' for Inactive)
REMARK    1  A    between atoms: C_2  and  C_3
REMARK    2  A    between atoms: C_3  and  O_4
REMARK    3  A    between atoms: O_4  and  C_5
REMARK    4  A    between atoms: C_8  and  C_9
REMARK    5  A    between atoms: C_10  and  C_11
REMARK    6  A    between atoms: C_10  and  C_12
REMARK    7  A    between atoms: N_14  and  C_15
REMARK    8  A    between atoms: C_16  and  O_17
REMARK    9  A    between atoms: C_18  and  O_19
REMARK   10  A    between atoms: C_25  and  O_26
REMARK   11  A    between atoms: C_28  and  N_29
REMARK   12  A    between atoms: C_30  and  C_31
REMARK                            x       y       z     vdW  Elec       q    Type
REMARK                         _______ _______ _______ _____ _____    ______ ____
ROOT
ATOM      1  C   UNL     1       2.424   5.000  19.173  0.00  0.00    +0.000 C 
ATOM      2  O   UNL     1       1.748   4.697  18.193  0.00  0.00    +0.000 OA
ATOM      3  N   UNL     1       3.767   5.218  19.089  0.00  0.00    +0.000 N 
ATOM      4  H   UNL     1       4.309   5.329  19.939  0.00  0.00    +0.000 HD
ENDROOT
BRANCH   3   5
ATOM      5  C   UNL     1       4.549   5.248  17.838  0.00  0.00    +0.000 C 
ATOM      6  C   UNL     1       4.644   3.795  17.306  0.00  0.00    +0.000 C 
ATOM      7  C   UNL     1       5.647   3.620  16.158  0.00  0.00    +0.000 C 
ATOM      8  C   UNL     1       7.021   4.282  16.436  0.00  0.00    +0.000 C 
ATOM      9  O   UNL     1       7.763   4.431  15.213  0.00  0.00    +0.000 OA
ATOM     10  C   UNL     1       7.444   5.754  14.751  0.00  0.00    +0.000 C 
ATOM     11  O   UNL     1       6.551   6.380  15.702  0.00  0.00    +0.000 OA
ATOM     12  C   UNL     1       6.904   5.711  16.914  0.00  0.00    +0.000 C 
ATOM     13  C   UNL     1       5.946   5.854  18.092  0.00  0.00    +0.000 C 
BRANCH   6  14
ATOM     14  O   UNL     1       4.930   2.882  18.375  0.00  0.00    +0.000 OA
ATOM     15  H   UNL     1       5.400   2.106  18.014  0.00  0.00    +0.000 HD
ENDBRANCH   6  14
BRANCH   7  16
ATOM     16  O   UNL     1       5.026   4.106  14.957  0.00  0.00    +0.000 OA
ATOM     17  H   UNL     1       5.604   3.879  14.204  0.00  0.00    +0.000 HD
ENDBRANCH   7  16
BRANCH  13  18
ATOM     18  O   UNL     1       6.554   5.148  19.195  0.00  0.00    +0.000 OA
ATOM     19  H   UNL     1       5.809   4.733  19.673  0.00  0.00    +0.000 HD
ENDBRANCH  13  18
ENDBRANCH   3   5
BRANCH   1  21
ATOM     20  C   UNL     1       1.319   6.184  21.156  0.00  0.00    +0.000 C 
ATOM     21  C   UNL     1       1.820   5.083  20.550  0.00  0.00    +0.000 C 
ATOM     22  C   UNL     1       1.702   3.748  21.247  0.00  0.00    +0.000 C 
BRANCH  20  26
ATOM     23  C   UNL     1       0.773  10.159  19.665  0.00  0.00    +0.000 A 
ATOM     24  C   UNL     1       1.598   9.252  18.978  0.00  0.00    +0.000 A 
ATOM     25  C   UNL     1       1.810   7.958  19.467  0.00  0.00    +0.000 A 
ATOM     26  C   UNL     1       1.169   7.545  20.634  0.00  0.00    +0.000 A 
ATOM     27  C   UNL     1       0.353   8.450  21.319  0.00  0.00    +0.000 A 
ATOM     28  C   UNL     1       0.137   9.759  20.852  0.00  0.00    +0.000 A 
BRANCH  28  29
ATOM     29  N   UNL     1      -0.775  10.611  21.523  0.00  0.00    +0.000 N 
ATOM     30  C   UNL     1      -0.897  10.766  22.891  0.00  0.00    +0.000 C 
ATOM     31  C   UNL     1      -1.988  11.712  23.307  0.00  0.00    +0.000 C 
ATOM     32  O   UNL     1      -0.188  10.245  23.750  0.00  0.00    +0.000 OA
ATOM     33  H   UNL     1      -1.365  11.182  20.931  0.00  0.00    +0.000 HD
ENDBRANCH  28  29
BRANCH  23  34
ATOM     34  O   UNL     1       0.611  11.363  19.020  0.00  0.00    +0.000 OA
BRANCH  34  35
ATOM     35  C   UNL     1      -0.423  11.428  18.033  0.00  0.00    +0.000 C 
BRANCH  35  37
ATOM     36  C   UNL     1      -2.754  11.865  18.892  0.00  0.00    +0.000 C 
ATOM     37  C   UNL     1      -1.530  12.301  18.546  0.00  0.00    +0.000 C 
ENDBRANCH  35  37
ENDBRANCH  34  35
ENDBRANCH  23  34
ENDBRANCH  20  26
ENDBRANCH   1  21
TORSDOF 10
ENDMDL
