MODEL 1
REMARK VINA RESULT:      -7.1      0.000      0.000
REMARK  Name = 
REMARK  7 active torsions:
REMARK  status: ('A' for Active; 'I' for Inactive)
REMARK    1  A    between atoms: C_1  and  O_2
REMARK    2  A    between atoms: O_2  and  C_3
REMARK    3  A    between atoms: C_5  and  N_6
REMARK    4  A    between atoms: N_9  and  C_10
REMARK    5  A    between atoms: C_10  and  C_11
REMARK    6  A    between atoms: C_11  and  O_12
REMARK    7  A    between atoms: C_15  and  N_16
REMARK                            x       y       z     vdW  Elec       q    Type
REMARK                         _______ _______ _______ _____ _____    ______ ____
ROOT
ATOM      1  C   UNL     1       4.493   4.978  18.899  0.00  0.00    +0.000 A 
ATOM      2  C   UNL     1       3.577   5.534  19.806  0.00  0.00    +0.000 A 
ATOM      3  C   UNL     1       2.838   6.677  19.514  0.00  0.00    +0.000 A 
ATOM      4  C   UNL     1       3.013   7.272  18.272  0.00  0.00    +0.000 A 
ATOM      5  C   UNL     1       3.949   6.751  17.364  0.00  0.00    +0.000 A 
ATOM      6  C   UNL     1       4.712   5.602  17.651  0.00  0.00    +0.000 A 
ENDROOT
BRANCH   3   7
ATOM      7  N   UNL     1       1.903   7.224  20.423  0.00  0.00    +0.000 N 
ATOM      8  C   UNL     1       1.315   8.464  20.306  0.00  0.00    +0.000 C 
ATOM      9  O   UNL     1       1.404   9.225  19.348  0.00  0.00    +0.000 OA
ATOM     10  N   UNL     1       0.605   8.830  21.423  0.00  0.00    +0.000 N 
ATOM     11  H   UNL     1       1.569   6.618  21.157  0.00  0.00    +0.000 HD
ATOM     12  H   UNL     1       0.368   8.148  22.125  0.00  0.00    +0.000 HD
BRANCH  10  13
ATOM     13  C   UNL     1      -0.025  10.145  21.478  0.00  0.00    +0.000 C 
BRANCH  13  14
ATOM     14  C   UNL     1      -0.667  10.402  22.841  0.00  0.00    +0.000 C 
BRANCH  14  15
ATOM     15  O   UNL     1      -0.511   9.249  23.669  0.00  0.00    +0.000 OA
ATOM     16  H   UNL     1       0.279   8.787  23.343  0.00  0.00    +0.000 HD
ENDBRANCH  14  15
ENDBRANCH  13  14
ENDBRANCH  10  13
ENDBRANCH   3   7
BRANCH   6  17
ATOM     17  N   UNL     1       5.621   5.094  16.676  0.00  0.00    +0.000 N 
ATOM     18  C   UNL     1       5.329   4.006  15.794  0.00  0.00    +0.000 C 
ATOM     19  C   UNL     1       6.415   4.125  14.758  0.00  0.00    +0.000 C 
ATOM     20  O   UNL     1       7.487   4.773  15.438  0.00  0.00    +0.000 OA
ATOM     21  C   UNL     1       6.948   5.461  16.499  0.00  0.00    +0.000 C 
ATOM     22  O   UNL     1       7.622   6.245  17.151  0.00  0.00    +0.000 OA
ENDBRANCH   6  17
BRANCH   1  24
ATOM     23  C   UNL     1       4.499   2.715  19.648  0.00  0.00    +0.000 C 
ATOM     24  O   UNL     1       5.233   3.869  19.242  0.00  0.00    +0.000 OA
ENDBRANCH   1  24
TORSDOF 6
ENDMDL
MODEL 2
REMARK VINA RESULT:      -6.9      3.344      7.653
REMARK  Name = 
REMARK  7 active torsions:
REMARK  status: ('A' for Active; 'I' for Inactive)
REMARK    1  A    between atoms: C_1  and  O_2
REMARK    2  A    between atoms: O_2  and  C_3
REMARK    3  A    between atoms: C_5  and  N_6
REMARK    4  A    between atoms: N_9  and  C_10
REMARK    5  A    between atoms: C_10  and  C_11
REMARK    6  A    between atoms: C_11  and  O_12
REMARK    7  A    between atoms: C_15  and  N_16
REMARK                            x       y       z     vdW  Elec       q    Type
REMARK                         _______ _______ _______ _____ _____    ______ ____
ROOT
ATOM      1  C   UNL     1       1.088   9.030  20.176  0.00  0.00    +0.000 A 
ATOM      2  C   UNL     1       1.846   7.853  20.267  0.00  0.00    +0.000 A 
ATOM      3  C   UNL     1       2.501   7.301  19.171  0.00  0.00    +0.000 A 
ATOM      4  C   UNL     1       2.404   7.955  17.950  0.00  0.00    +0.000 A 
ATOM      5  C   UNL     1       1.621   9.115  17.831  0.00  0.00    +0.000 A 
ATOM      6  C   UNL     1       0.943   9.679  18.930  0.00  0.00    +0.000 A 
ENDROOT
BRANCH   3   7
ATOM      7  N   UNL     1       3.279   6.124  19.270  0.00  0.00    +0.000 N 
ATOM      8  C   UNL     1       2.776   4.843  19.331  0.00  0.00    +0.000 C 
ATOM      9  O   UNL     1       1.604   4.514  19.182  0.00  0.00    +0.000 OA
ATOM     10  N   UNL     1       3.733   3.904  19.627  0.00  0.00    +0.000 N 
ATOM     11  H   UNL     1       4.279   6.228  19.189  0.00  0.00    +0.000 HD
ATOM     12  H   UNL     1       4.712   4.131  19.563  0.00  0.00    +0.000 HD
BRANCH  10  13
ATOM     13  C   UNL     1       3.343   2.506  19.789  0.00  0.00    +0.000 C 
BRANCH  13  14
ATOM     14  C   UNL     1       3.494   1.728  18.482  0.00  0.00    +0.000 C 
BRANCH  14  15
ATOM     15  O   UNL     1       2.262   1.762  17.759  0.00  0.00    +0.000 OA
ATOM     16  H   UNL     1       1.623   1.259  18.291  0.00  0.00    +0.000 HD
ENDBRANCH  14  15
ENDBRANCH  13  14
ENDBRANCH  10  13
ENDBRANCH   3   7
BRANCH   6  17
ATOM     17  N   UNL     1       0.195  10.880  18.760  0.00  0.00    +0.000 N 
ATOM     18  C   UNL     1       0.716  12.192  18.988  0.00  0.00    +0.000 C 
ATOM     19  C   UNL     1      -0.306  13.071  18.318  0.00  0.00    +0.000 C 
ATOM     20  O   UNL     1      -1.511  12.312  18.358  0.00  0.00    +0.000 OA
ATOM     21  C   UNL     1      -1.161  10.988  18.479  0.00  0.00    +0.000 C 
ATOM     22  O   UNL     1      -1.994  10.101  18.364  0.00  0.00    +0.000 OA
ENDBRANCH   6  17
BRANCH   1  24
ATOM     23  C   UNL     1      -0.499   8.638  21.913  0.00  0.00    +0.000 C 
ATOM     24  O   UNL     1       0.423   9.522  21.277  0.00  0.00    +0.000 OA
ENDBRANCH   1  24
TORSDOF 6
ENDMDL
MODEL 3
REMARK VINA RESULT:      -6.8      3.344      7.474
REMARK  Name = 
REMARK  7 active torsions:
REMARK  status: ('A' for Active; 'I' for Inactive)
REMARK    1  A    between atoms: C_1  and  O_2
REMARK    2  A    between atoms: O_2  and  C_3
REMARK    3  A    between atoms: C_5  and  N_6
REMARK    4  A    between atoms: N_9  and  C_10
REMARK    5  A    between atoms: C_10  and  C_11
REMARK    6  A    between atoms: C_11  and  O_12
REMARK    7  A    between atoms: C_15  and  N_16
REMARK                            x       y       z     vdW  Elec       q    Type
REMARK                         _______ _______ _______ _____ _____    ______ ____
ROOT
ATOM      1  C   UNL     1       1.168   8.973  20.167  0.00  0.00    +0.000 A 
ATOM      2  C   UNL     1       1.903   7.782  20.285  0.00  0.00    +0.000 A 
ATOM      3  C   UNL     1       2.543   7.190  19.200  0.00  0.00    +0.000 A 
ATOM      4  C   UNL     1       2.453   7.815  17.964  0.00  0.00    +0.000 A 
ATOM      5  C   UNL     1       1.694   8.988  17.818  0.00  0.00    +0.000 A 
ATOM      6  C   UNL     1       1.032   9.592  18.905  0.00  0.00    +0.000 A 
ENDROOT
BRANCH   3   7
ATOM      7  N   UNL     1       3.297   6.001  19.326  0.00  0.00    +0.000 N 
ATOM      8  C   UNL     1       2.773   4.726  19.338  0.00  0.00    +0.000 C 
ATOM      9  O   UNL     1       1.608   4.416  19.115  0.00  0.00    +0.000 OA
ATOM     10  N   UNL     1       3.698   3.769  19.675  0.00  0.00    +0.000 N 
ATOM     11  H   UNL     1       4.301   6.091  19.305  0.00  0.00    +0.000 HD
ATOM     12  H   UNL     1       4.682   3.982  19.671  0.00  0.00    +0.000 HD
BRANCH  10  13
ATOM     13  C   UNL     1       3.281   2.375  19.792  0.00  0.00    +0.000 C 
BRANCH  13  14
ATOM     14  C   UNL     1       3.497   1.614  18.483  0.00  0.00    +0.000 C 
BRANCH  14  15
ATOM     15  O   UNL     1       2.328   1.716  17.671  0.00  0.00    +0.000 OA
ATOM     16  H   UNL     1       1.633   2.085  18.241  0.00  0.00    +0.000 HD
ENDBRANCH  14  15
ENDBRANCH  13  14
ENDBRANCH  10  13
ENDBRANCH   3   7
BRANCH   6  17
ATOM     17  N   UNL     1       0.307  10.804  18.708  0.00  0.00    +0.000 N 
ATOM     18  C   UNL     1      -1.066  10.866  18.313  0.00  0.00    +0.000 C 
ATOM     19  C   UNL     1      -1.430  12.294  18.619  0.00  0.00    +0.000 C 
ATOM     20  O   UNL     1      -0.197  13.003  18.533  0.00  0.00    +0.000 OA
ATOM     21  C   UNL     1       0.816  12.096  18.736  0.00  0.00    +0.000 C 
ATOM     22  O   UNL     1       1.972  12.463  18.886  0.00  0.00    +0.000 OA
ENDBRANCH   6  17
BRANCH   1  24
ATOM     23  C   UNL     1      -0.472   8.682  21.873  0.00  0.00    +0.000 C 
ATOM     24  O   UNL     1       0.518   9.505  21.257  0.00  0.00    +0.000 OA
ENDBRANCH   1  24
TORSDOF 6
ENDMDL
MODEL 4
REMARK VINA RESULT:      -6.6      2.725      4.245
REMARK  Name = 
REMARK  7 active torsions:
REMARK  status: ('A' for Active; 'I' for Inactive)
REMARK    1  A    between atoms: C_1  and  O_2
REMARK    2  A    between atoms: O_2  and  C_3
REMARK    3  A    between atoms: C_5  and  N_6
REMARK    4  A    between atoms: N_9  and  C_10
REMARK    5  A    between atoms: C_10  and  C_11
REMARK    6  A    between atoms: C_11  and  O_12
REMARK    7  A    between atoms: C_15  and  N_16
REMARK                            x       y       z     vdW  Elec       q    Type
REMARK                         _______ _______ _______ _____ _____    ______ ____
ROOT
ATOM      1  C   UNL     1       2.697   6.841  18.495  0.00  0.00    +0.000 A 
ATOM      2  C   UNL     1       2.255   8.122  18.861  0.00  0.00    +0.000 A 
ATOM      3  C   UNL     1       1.563   8.363  20.044  0.00  0.00    +0.000 A 
ATOM      4  C   UNL     1       1.316   7.291  20.891  0.00  0.00    +0.000 A 
ATOM      5  C   UNL     1       1.719   5.995  20.526  0.00  0.00    +0.000 A 
ATOM      6  C   UNL     1       2.411   5.735  19.326  0.00  0.00    +0.000 A 
ENDROOT
BRANCH   3   7
ATOM      7  N   UNL     1       1.136   9.658  20.418  0.00  0.00    +0.000 N 
ATOM      8  C   UNL     1       0.081  10.341  19.851  0.00  0.00    +0.000 C 
ATOM      9  O   UNL     1      -0.721   9.895  19.038  0.00  0.00    +0.000 OA
ATOM     10  N   UNL     1       0.009  11.650  20.257  0.00  0.00    +0.000 N 
ATOM     11  H   UNL     1       1.574  10.069  21.228  0.00  0.00    +0.000 HD
ATOM     12  H   UNL     1       0.534  11.969  21.055  0.00  0.00    +0.000 HD
BRANCH  10  13
ATOM     13  C   UNL     1      -1.018  12.522  19.695  0.00  0.00    +0.000 C 
BRANCH  13  14
ATOM     14  C   UNL     1      -0.559  13.150  18.378  0.00  0.00    +0.000 C 
BRANCH  14  15
ATOM     15  O   UNL     1      -1.254  12.542  17.290  0.00  0.00    +0.000 OA
ATOM     16  H   UNL     1      -1.057  11.592  17.340  0.00  0.00    +0.000 HD
ENDBRANCH  14  15
ENDBRANCH  13  14
ENDBRANCH  10  13
ENDBRANCH   3   7
BRANCH   6  17
ATOM     17  N   UNL     1       2.830   4.407  19.025  0.00  0.00    +0.000 N 
ATOM     18  C   UNL     1       4.069   3.836  19.457  0.00  0.00    +0.000 C 
ATOM     19  C   UNL     1       3.852   2.366  19.218  0.00  0.00    +0.000 C 
ATOM     20  O   UNL     1       2.888   2.312  18.170  0.00  0.00    +0.000 OA
ATOM     21  C   UNL     1       2.199   3.501  18.181  0.00  0.00    +0.000 C 
ATOM     22  O   UNL     1       1.198   3.659  17.497  0.00  0.00    +0.000 OA
ENDBRANCH   6  17
BRANCH   1  24
ATOM     23  C   UNL     1       4.754   6.860  17.291  0.00  0.00    +0.000 C 
ATOM     24  O   UNL     1       3.345   6.639  17.298  0.00  0.00    +0.000 OA
ENDBRANCH   1  24
TORSDOF 6
ENDMDL
MODEL 5
REMARK VINA RESULT:      -6.6      2.882      7.674
REMARK  Name = 
REMARK  7 active torsions:
REMARK  status: ('A' for Active; 'I' for Inactive)
REMARK    1  A    between atoms: C_1  and  O_2
REMARK    2  A    between atoms: O_2  and  C_3
REMARK    3  A    between atoms: C_5  and  N_6
REMARK    4  A    between atoms: N_9  and  C_10
REMARK    5  A    between atoms: C_10  and  C_11
REMARK    6  A    between atoms: C_11  and  O_12
REMARK    7  A    between atoms: C_15  and  N_16
REMARK                            x       y       z     vdW  Elec       q    Type
REMARK                         _______ _______ _______ _____ _____    ______ ____
ROOT
ATOM      1  C   UNL     1       1.266   8.837  20.263  0.00  0.00    +0.000 A 
ATOM      2  C   UNL     1       2.027   7.687  20.002  0.00  0.00    +0.000 A 
ATOM      3  C   UNL     1       2.530   7.396  18.737  0.00  0.00    +0.000 A 
ATOM      4  C   UNL     1       2.272   8.289  17.706  0.00  0.00    +0.000 A 
ATOM      5  C   UNL     1       1.483   9.428  17.940  0.00  0.00    +0.000 A 
ATOM      6  C   UNL     1       0.959   9.729  19.212  0.00  0.00    +0.000 A 
ENDROOT
BRANCH   3   7
ATOM      7  N   UNL     1       3.312   6.245  18.482  0.00  0.00    +0.000 N 
ATOM      8  C   UNL     1       2.816   5.021  18.089  0.00  0.00    +0.000 C 
ATOM      9  O   UNL     1       1.657   4.770  17.779  0.00  0.00    +0.000 OA
ATOM     10  N   UNL     1       3.765   4.028  18.107  0.00  0.00    +0.000 N 
ATOM     11  H   UNL     1       4.313   6.361  18.491  0.00  0.00    +0.000 HD
ATOM     12  H   UNL     1       4.744   4.255  18.173  0.00  0.00    +0.000 HD
BRANCH  10  13
ATOM     13  C   UNL     1       3.379   2.659  17.778  0.00  0.00    +0.000 C 
BRANCH  13  14
ATOM     14  C   UNL     1       3.749   1.688  18.899  0.00  0.00    +0.000 C 
BRANCH  14  15
ATOM     15  O   UNL     1       4.920   2.155  19.571  0.00  0.00    +0.000 OA
ATOM     16  H   UNL     1       5.349   2.779  18.963  0.00  0.00    +0.000 HD
ENDBRANCH  14  15
ENDBRANCH  13  14
ENDBRANCH  10  13
ENDBRANCH   3   7
BRANCH   6  17
ATOM     17  N   UNL     1       0.197  10.919  19.401  0.00  0.00    +0.000 N 
ATOM     18  C   UNL     1      -1.199  11.036  19.113  0.00  0.00    +0.000 C 
ATOM     19  C   UNL     1      -1.575  12.308  19.825  0.00  0.00    +0.000 C 
ATOM     20  O   UNL     1      -0.365  13.060  19.875  0.00  0.00    +0.000 OA
ATOM     21  C   UNL     1       0.678  12.172  19.762  0.00  0.00    +0.000 C 
ATOM     22  O   UNL     1       1.833  12.527  19.946  0.00  0.00    +0.000 OA
ENDBRANCH   6  17
BRANCH   1  24
ATOM     23  C   UNL     1      -0.507   8.470  21.815  0.00  0.00    +0.000 C 
ATOM     24  O   UNL     1       0.755   9.068  21.520  0.00  0.00    +0.000 OA
ENDBRANCH   1  24
TORSDOF 6
ENDMDL
MODEL 6
REMARK VINA RESULT:      -6.6      2.678      4.082
REMARK  Name = 
REMARK  7 active torsions:
REMARK  status: ('A' for Active; 'I' for Inactive)
REMARK    1  A    between atoms: C_1  and  O_2
REMARK    2  A    between atoms: O_2  and  C_3
REMARK    3  A    between atoms: C_5  and  N_6
REMARK    4  A    between atoms: N_9  and  C_10
REMARK    5  A    between atoms: C_10  and  C_11
REMARK    6  A    between atoms: C_11  and  O_12
REMARK    7  A    between atoms: C_15  and  N_16
REMARK                            x       y       z     vdW  Elec       q    Type
REMARK                         _______ _______ _______ _____ _____    ______ ____
ROOT
ATOM      1  C   UNL     1       3.233   5.988  18.448  0.00  0.00    +0.000 A 
ATOM      2  C   UNL     1       2.755   7.277  18.733  0.00  0.00    +0.000 A 
ATOM      3  C   UNL     1       1.906   7.537  19.805  0.00  0.00    +0.000 A 
ATOM      4  C   UNL     1       1.536   6.478  20.622  0.00  0.00    +0.000 A 
ATOM      5  C   UNL     1       1.976   5.175  20.333  0.00  0.00    +0.000 A 
ATOM      6  C   UNL     1       2.825   4.895  19.244  0.00  0.00    +0.000 A 
ENDROOT
BRANCH   3   7
ATOM      7  N   UNL     1       1.442   8.840  20.101  0.00  0.00    +0.000 N 
ATOM      8  C   UNL     1       1.090   9.788  19.164  0.00  0.00    +0.000 C 
ATOM      9  O   UNL     1       1.002   9.617  17.954  0.00  0.00    +0.000 OA
ATOM     10  N   UNL     1       0.868  11.027  19.712  0.00  0.00    +0.000 N 
ATOM     11  H   UNL     1       1.259   9.053  21.069  0.00  0.00    +0.000 HD
ATOM     12  H   UNL     1       0.751  11.135  20.707  0.00  0.00    +0.000 HD
BRANCH  10  13
ATOM     13  C   UNL     1       0.549  12.153  18.840  0.00  0.00    +0.000 C 
BRANCH  13  14
ATOM     14  C   UNL     1       1.800  12.957  18.484  0.00  0.00    +0.000 C 
BRANCH  14  15
ATOM     15  O   UNL     1       2.489  12.319  17.408  0.00  0.00    +0.000 OA
ATOM     16  H   UNL     1       2.078  12.647  16.591  0.00  0.00    +0.000 HD
ENDBRANCH  14  15
ENDBRANCH  13  14
ENDBRANCH  10  13
ENDBRANCH   3   7
BRANCH   6  17
ATOM     17  N   UNL     1       3.272   3.560  19.020  0.00  0.00    +0.000 N 
ATOM     18  C   UNL     1       4.388   2.962  19.686  0.00  0.00    +0.000 C 
ATOM     19  C   UNL     1       4.196   1.498  19.395  0.00  0.00    +0.000 C 
ATOM     20  O   UNL     1       3.462   1.470  18.174  0.00  0.00    +0.000 OA
ATOM     21  C   UNL     1       2.806   2.673  18.059  0.00  0.00    +0.000 C 
ATOM     22  O   UNL     1       1.966   2.854  17.189  0.00  0.00    +0.000 OA
ENDBRANCH   6  17
BRANCH   1  24
ATOM     23  C   UNL     1       5.438   5.982  17.541  0.00  0.00    +0.000 C 
ATOM     24  O   UNL     1       4.039   5.767  17.355  0.00  0.00    +0.000 OA
ENDBRANCH   1  24
TORSDOF 6
ENDMDL
MODEL 7
REMARK VINA RESULT:      -6.6      2.713      4.003
REMARK  Name = 
REMARK  7 active torsions:
REMARK  status: ('A' for Active; 'I' for Inactive)
REMARK    1  A    between atoms: C_1  and  O_2
REMARK    2  A    between atoms: O_2  and  C_3
REMARK    3  A    between atoms: C_5  and  N_6
REMARK    4  A    between atoms: N_9  and  C_10
REMARK    5  A    between atoms: C_10  and  C_11
REMARK    6  A    between atoms: C_11  and  O_12
REMARK    7  A    between atoms: C_15  and  N_16
REMARK                            x       y       z     vdW  Elec       q    Type
REMARK                         _______ _______ _______ _____ _____    ______ ____
ROOT
ATOM      1  C   UNL     1       2.997   6.097  18.468  0.00  0.00    +0.000 A 
ATOM      2  C   UNL     1       2.576   7.411  18.727  0.00  0.00    +0.000 A 
ATOM      3  C   UNL     1       1.834   7.747  19.856  0.00  0.00    +0.000 A 
ATOM      4  C   UNL     1       1.516   6.740  20.757  0.00  0.00    +0.000 A 
ATOM      5  C   UNL     1       1.899   5.414  20.497  0.00  0.00    +0.000 A 
ATOM      6  C   UNL     1       2.639   5.057  19.354  0.00  0.00    +0.000 A 
ENDROOT
BRANCH   3   7
ATOM      7  N   UNL     1       1.427   9.075  20.123  0.00  0.00    +0.000 N 
ATOM      8  C   UNL     1       1.014   9.984  19.173  0.00  0.00    +0.000 C 
ATOM      9  O   UNL     1       0.813   9.756  17.986  0.00  0.00    +0.000 OA
ATOM     10  N   UNL     1       0.870  11.255  19.674  0.00  0.00    +0.000 N 
ATOM     11  H   UNL     1       1.338   9.341  21.091  0.00  0.00    +0.000 HD
ATOM     12  H   UNL     1       0.846  11.415  20.668  0.00  0.00    +0.000 HD
BRANCH  10  13
ATOM     13  C   UNL     1       0.499  12.344  18.776  0.00  0.00    +0.000 C 
BRANCH  13  14
ATOM     14  C   UNL     1       1.720  13.161  18.353  0.00  0.00    +0.000 C 
BRANCH  14  15
ATOM     15  O   UNL     1       2.471  12.432  17.382  0.00  0.00    +0.000 OA
ATOM     16  H   UNL     1       2.968  13.093  16.872  0.00  0.00    +0.000 HD
ENDBRANCH  14  15
ENDBRANCH  13  14
ENDBRANCH  10  13
ENDBRANCH   3   7
BRANCH   6  17
ATOM     17  N   UNL     1       3.035   3.701  19.160  0.00  0.00    +0.000 N 
ATOM     18  C   UNL     1       2.124   2.620  18.938  0.00  0.00    +0.000 C 
ATOM     19  C   UNL     1       3.028   1.530  18.429  0.00  0.00    +0.000 C 
ATOM     20  O   UNL     1       4.304   1.836  18.984  0.00  0.00    +0.000 OA
ATOM     21  C   UNL     1       4.317   3.179  19.276  0.00  0.00    +0.000 C 
ATOM     22  O   UNL     1       5.349   3.745  19.605  0.00  0.00    +0.000 OA
ENDBRANCH   6  17
BRANCH   1  24
ATOM     23  C   UNL     1       4.798   6.650  17.006  0.00  0.00    +0.000 C 
ATOM     24  O   UNL     1       3.696   5.799  17.320  0.00  0.00    +0.000 OA
ENDBRANCH   1  24
TORSDOF 6
ENDMDL
MODEL 8
REMARK VINA RESULT:      -6.5      1.570      7.862
REMARK  Name = 
REMARK  7 active torsions:
REMARK  status: ('A' for Active; 'I' for Inactive)
REMARK    1  A    between atoms: C_1  and  O_2
REMARK    2  A    between atoms: O_2  and  C_3
REMARK    3  A    between atoms: C_5  and  N_6
REMARK    4  A    between atoms: N_9  and  C_10
REMARK    5  A    between atoms: C_10  and  C_11
REMARK    6  A    between atoms: C_11  and  O_12
REMARK    7  A    between atoms: C_15  and  N_16
REMARK                            x       y       z     vdW  Elec       q    Type
REMARK                         _______ _______ _______ _____ _____    ______ ____
ROOT
ATOM      1  C   UNL     1       1.825   8.252  19.280  0.00  0.00    +0.000 A 
ATOM      2  C   UNL     1       2.421   7.395  18.341  0.00  0.00    +0.000 A 
ATOM      3  C   UNL     1       2.641   6.045  18.596  0.00  0.00    +0.000 A 
ATOM      4  C   UNL     1       2.241   5.535  19.824  0.00  0.00    +0.000 A 
ATOM      5  C   UNL     1       1.675   6.384  20.791  0.00  0.00    +0.000 A 
ATOM      6  C   UNL     1       1.457   7.754  20.550  0.00  0.00    +0.000 A 
ENDROOT
BRANCH   3   7
ATOM      7  N   UNL     1       3.224   5.181  17.641  0.00  0.00    +0.000 N 
ATOM      8  C   UNL     1       4.577   4.967  17.486  0.00  0.00    +0.000 C 
ATOM      9  O   UNL     1       5.468   5.381  18.220  0.00  0.00    +0.000 OA
ATOM     10  N   UNL     1       4.880   4.243  16.360  0.00  0.00    +0.000 N 
ATOM     11  H   UNL     1       2.597   4.605  17.101  0.00  0.00    +0.000 HD
ATOM     12  H   UNL     1       4.161   3.742  15.863  0.00  0.00    +0.000 HD
BRANCH  10  13
ATOM     13  C   UNL     1       6.278   3.987  16.023  0.00  0.00    +0.000 C 
BRANCH  13  14
ATOM     14  C   UNL     1       6.841   5.075  15.109  0.00  0.00    +0.000 C 
BRANCH  14  15
ATOM     15  O   UNL     1       7.500   6.068  15.896  0.00  0.00    +0.000 OA
ATOM     16  H   UNL     1       7.111   6.920  15.636  0.00  0.00    +0.000 HD
ENDBRANCH  14  15
ENDBRANCH  13  14
ENDBRANCH  10  13
ENDBRANCH   3   7
BRANCH   6  17
ATOM     17  N   UNL     1       0.843   8.561  21.553  0.00  0.00    +0.000 N 
ATOM     18  C   UNL     1      -0.558   8.841  21.613  0.00  0.00    +0.000 C 
ATOM     19  C   UNL     1      -0.724   9.377  23.010  0.00  0.00    +0.000 C 
ATOM     20  O   UNL     1       0.553   9.920  23.338  0.00  0.00    +0.000 OA
ATOM     21  C   UNL     1       1.483   9.298  22.540  0.00  0.00    +0.000 C 
ATOM     22  O   UNL     1       2.681   9.449  22.731  0.00  0.00    +0.000 OA
ENDBRANCH   6  17
BRANCH   1  24
ATOM     23  C   UNL     1       0.537   9.940  18.196  0.00  0.00    +0.000 C 
ATOM     24  O   UNL     1       1.661   9.590  19.003  0.00  0.00    +0.000 OA
ENDBRANCH   1  24
TORSDOF 6
ENDMDL
MODEL 9
REMARK VINA RESULT:      -6.5      2.007      2.609
REMARK  Name = 
REMARK  7 active torsions:
REMARK  status: ('A' for Active; 'I' for Inactive)
REMARK    1  A    between atoms: C_1  and  O_2
REMARK    2  A    between atoms: O_2  and  C_3
REMARK    3  A    between atoms: C_5  and  N_6
REMARK    4  A    between atoms: N_9  and  C_10
REMARK    5  A    between atoms: C_10  and  C_11
REMARK    6  A    between atoms: C_11  and  O_12
REMARK    7  A    between atoms: C_15  and  N_16
REMARK                            x       y       z     vdW  Elec       q    Type
REMARK                         _______ _______ _______ _____ _____    ______ ____
ROOT
ATOM      1  C   UNL     1       2.331   6.504  19.802  0.00  0.00    +0.000 A 
ATOM      2  C   UNL     1       1.557   7.629  20.127  0.00  0.00    +0.000 A 
ATOM      3  C   UNL     1       1.502   8.757  19.314  0.00  0.00    +0.000 A 
ATOM      4  C   UNL     1       2.236   8.754  18.136  0.00  0.00    +0.000 A 
ATOM      5  C   UNL     1       3.044   7.652  17.810  0.00  0.00    +0.000 A 
ATOM      6  C   UNL     1       3.118   6.508  18.628  0.00  0.00    +0.000 A 
ENDROOT
BRANCH   3   7
ATOM      7  N   UNL     1       0.706   9.881  19.636  0.00  0.00    +0.000 N 
ATOM      8  C   UNL     1       0.657  10.490  20.871  0.00  0.00    +0.000 C 
ATOM      9  O   UNL     1       1.374  10.243  21.834  0.00  0.00    +0.000 OA
ATOM     10  N   UNL     1      -0.342  11.428  20.967  0.00  0.00    +0.000 N 
ATOM     11  H   UNL     1       0.217  10.329  18.876  0.00  0.00    +0.000 HD
ATOM     12  H   UNL     1      -0.805  11.771  20.141  0.00  0.00    +0.000 HD
BRANCH  10  13
ATOM     13  C   UNL     1      -0.564  12.115  22.236  0.00  0.00    +0.000 C 
BRANCH  13  14
ATOM     14  C   UNL     1      -1.633  11.413  23.073  0.00  0.00    +0.000 C 
BRANCH  14  15
ATOM     15  O   UNL     1      -1.173  10.114  23.445  0.00  0.00    +0.000 OA
ATOM     16  H   UNL     1      -1.274   9.555  22.656  0.00  0.00    +0.000 HD
ENDBRANCH  14  15
ENDBRANCH  13  14
ENDBRANCH  10  13
ENDBRANCH   3   7
BRANCH   6  17
ATOM     17  N   UNL     1       3.924   5.402  18.229  0.00  0.00    +0.000 N 
ATOM     18  C   UNL     1       3.493   4.372  17.336  0.00  0.00    +0.000 C 
ATOM     19  C   UNL     1       4.787   3.703  16.959  0.00  0.00    +0.000 C 
ATOM     20  O   UNL     1       5.652   3.951  18.064  0.00  0.00    +0.000 OA
ATOM     21  C   UNL     1       5.181   5.066  18.715  0.00  0.00    +0.000 C 
ATOM     22  O   UNL     1       5.832   5.603  19.599  0.00  0.00    +0.000 OA
ENDBRANCH   6  17
BRANCH   1  24
ATOM     23  C   UNL     1       1.307   4.495  20.576  0.00  0.00    +0.000 C 
ATOM     24  O   UNL     1       2.388   5.423  20.652  0.00  0.00    +0.000 OA
ENDBRANCH   1  24
TORSDOF 6
ENDMDL
