MODEL 1
REMARK VINA RESULT:      -7.2      0.000      0.000
REMARK  Name = 
REMARK  8 active torsions:
REMARK  status: ('A' for Active; 'I' for Inactive)
REMARK    1  A    between atoms: C_1  and  C_2
REMARK    2  A    between atoms: C_2  and  C_3
REMARK    3  A    between atoms: C_3  and  S_4
REMARK    4  A    between atoms: S_4  and  N_7
REMARK    5  A    between atoms: C_8  and  C_10
REMARK    6  A    between atoms: C_10  and  C_11
REMARK    7  A    between atoms: C_16  and  C_18
REMARK    8  A    between atoms: C_24  and  C_25
REMARK                            x       y       z     vdW  Elec       q    Type
REMARK                         _______ _______ _______ _____ _____    ______ ____
ROOT
ATOM      1  C   UNL     1       2.383   4.993  19.483  0.00  0.00    +0.000 C 
ATOM      2  C   UNL     1       2.123   5.368  20.964  0.00  0.00    +0.000 C 
ATOM      3  C   UNL     1       1.343   3.947  19.057  0.00  0.00    +0.000 C 
ATOM      4  C   UNL     1       1.685   3.198  17.765  0.00  0.00    +0.000 C 
ATOM      5  C   UNL     1       3.124   2.681  17.766  0.00  0.00    +0.000 C 
ATOM      6  N   UNL     1       4.060   3.764  18.104  0.00  0.00    +0.000 N 
ATOM      7  C   UNL     1       5.110   4.041  17.209  0.00  0.00    +0.000 C 
ATOM      8  O   UNL     1       5.212   3.446  16.136  0.00  0.00    +0.000 OA
ATOM      9  C   UNL     1       3.787   4.406  19.393  0.00  0.00    +0.000 C 
ENDROOT
BRANCH   7  10
ATOM     10  C   UNL     1       6.109   5.124  17.514  0.00  0.00    +0.000 A 
ATOM     11  C   UNL     1       7.085   4.902  18.494  0.00  0.00    +0.000 A 
ATOM     12  C   UNL     1       7.898   5.936  18.925  0.00  0.00    +0.000 A 
ATOM     13  F   UNL     1       8.687   5.743  19.991  0.00  0.00    +0.000 F 
ATOM     14  C   UNL     1       7.892   7.157  18.283  0.00  0.00    +0.000 A 
ATOM     15  C   UNL     1       7.022   7.356  17.210  0.00  0.00    +0.000 A 
ATOM     16  C   UNL     1       6.101   6.361  16.830  0.00  0.00    +0.000 A 
ATOM     17  C   UNL     1       5.148   6.681  15.706  0.00  0.00    +0.000 C 
ENDBRANCH   7  10
BRANCH   1  19
ATOM     18  N   UNL     1       1.945   7.486  19.388  0.00  0.00    +0.000 N 
ATOM     19  C   UNL     1       2.362   6.322  18.710  0.00  0.00    +0.000 C 
ATOM     20  O   UNL     1       2.663   6.376  17.529  0.00  0.00    +0.000 OA
ATOM     21  H   UNL     1       1.611   7.482  20.350  0.00  0.00    +0.000 HD
BRANCH  18  22
ATOM     22  S   UNL     1       1.697   8.942  18.607  0.00  0.00    +0.000 S 
ATOM     23  O   UNL     1       0.599   8.706  17.698  0.00  0.00    +0.000 OA
ATOM     24  O   UNL     1       2.960   9.441  18.137  0.00  0.00    +0.000 OA
BRANCH  22  25
ATOM     25  C   UNL     1       1.083   9.967  19.946  0.00  0.00    +0.000 C 
BRANCH  25  27
ATOM     26  C   UNL     1       0.905   9.296  22.360  0.00  0.00    +0.000 C 
ATOM     27  C   UNL     1       0.325   9.133  20.966  0.00  0.00    +0.000 C 
ENDBRANCH  25  27
ENDBRANCH  22  25
ENDBRANCH  18  22
ENDBRANCH   1  19
TORSDOF 5
ENDMDL
MODEL 2
REMARK VINA RESULT:      -6.6      1.248      1.575
REMARK  Name = 
REMARK  8 active torsions:
REMARK  status: ('A' for Active; 'I' for Inactive)
REMARK    1  A    between atoms: C_1  and  C_2
REMARK    2  A    between atoms: C_2  and  C_3
REMARK    3  A    between atoms: C_3  and  S_4
REMARK    4  A    between atoms: S_4  and  N_7
REMARK    5  A    between atoms: C_8  and  C_10
REMARK    6  A    between atoms: C_10  and  C_11
REMARK    7  A    between atoms: C_16  and  C_18
REMARK    8  A    between atoms: C_24  and  C_25
REMARK                            x       y       z     vdW  Elec       q    Type
REMARK                         _______ _______ _______ _____ _____    ______ ____
ROOT
ATOM      1  C   UNL     1       2.317   5.189  19.521  0.00  0.00    +0.000 C 
ATOM      2  C   UNL     1       2.072   5.599  20.996  0.00  0.00    +0.000 C 
ATOM      3  C   UNL     1       1.241   4.172  19.114  0.00  0.00    +0.000 C 
ATOM      4  C   UNL     1       1.555   3.390  17.835  0.00  0.00    +0.000 C 
ATOM      5  C   UNL     1       2.975   2.825  17.842  0.00  0.00    +0.000 C 
ATOM      6  N   UNL     1       3.949   3.881  18.161  0.00  0.00    +0.000 N 
ATOM      7  C   UNL     1       5.006   4.107  17.261  0.00  0.00    +0.000 C 
ATOM      8  O   UNL     1       5.086   3.490  16.198  0.00  0.00    +0.000 OA
ATOM      9  C   UNL     1       3.700   4.554  19.440  0.00  0.00    +0.000 C 
ENDROOT
BRANCH   7  10
ATOM     10  C   UNL     1       6.042   5.160  17.546  0.00  0.00    +0.000 A 
ATOM     11  C   UNL     1       7.025   4.913  18.514  0.00  0.00    +0.000 A 
ATOM     12  C   UNL     1       7.874   5.923  18.928  0.00  0.00    +0.000 A 
ATOM     13  F   UNL     1       8.672   5.712  19.984  0.00  0.00    +0.000 F 
ATOM     14  C   UNL     1       7.896   7.141  18.280  0.00  0.00    +0.000 A 
ATOM     15  C   UNL     1       7.018   7.361  17.218  0.00  0.00    +0.000 A 
ATOM     16  C   UNL     1       6.061   6.393  16.856  0.00  0.00    +0.000 A 
ATOM     17  C   UNL     1       5.103   6.738  15.744  0.00  0.00    +0.000 C 
ENDBRANCH   7  10
BRANCH   1  19
ATOM     18  N   UNL     1       1.985   7.697  19.390  0.00  0.00    +0.000 N 
ATOM     19  C   UNL     1       2.340   6.505  18.726  0.00  0.00    +0.000 C 
ATOM     20  O   UNL     1       2.623   6.527  17.540  0.00  0.00    +0.000 OA
ATOM     21  H   UNL     1       1.668   7.723  20.357  0.00  0.00    +0.000 HD
BRANCH  18  22
ATOM     22  S   UNL     1       1.786   9.149  18.588  0.00  0.00    +0.000 S 
ATOM     23  O   UNL     1       2.837   9.187  17.597  0.00  0.00    +0.000 OA
ATOM     24  O   UNL     1       1.637  10.201  19.557  0.00  0.00    +0.000 OA
BRANCH  22  25
ATOM     25  C   UNL     1       0.235   8.874  17.727  0.00  0.00    +0.000 C 
BRANCH  25  27
ATOM     26  C   UNL     1      -1.944   9.930  17.059  0.00  0.00    +0.000 C 
ATOM     27  C   UNL     1      -0.731  10.022  17.968  0.00  0.00    +0.000 C 
ENDBRANCH  25  27
ENDBRANCH  22  25
ENDBRANCH  18  22
ENDBRANCH   1  19
TORSDOF 5
ENDMDL
MODEL 3
REMARK VINA RESULT:      -6.6      3.151      6.056
REMARK  Name = 
REMARK  8 active torsions:
REMARK  status: ('A' for Active; 'I' for Inactive)
REMARK    1  A    between atoms: C_1  and  C_2
REMARK    2  A    between atoms: C_2  and  C_3
REMARK    3  A    between atoms: C_3  and  S_4
REMARK    4  A    between atoms: S_4  and  N_7
REMARK    5  A    between atoms: C_8  and  C_10
REMARK    6  A    between atoms: C_10  and  C_11
REMARK    7  A    between atoms: C_16  and  C_18
REMARK    8  A    between atoms: C_24  and  C_25
REMARK                            x       y       z     vdW  Elec       q    Type
REMARK                         _______ _______ _______ _____ _____    ______ ____
ROOT
ATOM      1  C   UNL     1       3.608   3.122  18.104  0.00  0.00    +0.000 C 
ATOM      2  C   UNL     1       3.361   2.546  16.686  0.00  0.00    +0.000 C 
ATOM      3  C   UNL     1       3.775   1.950  19.082  0.00  0.00    +0.000 C 
ATOM      4  C   UNL     1       3.648   2.330  20.559  0.00  0.00    +0.000 C 
ATOM      5  C   UNL     1       2.414   3.192  20.826  0.00  0.00    +0.000 C 
ATOM      6  N   UNL     1       2.374   4.335  19.900  0.00  0.00    +0.000 N 
ATOM      7  C   UNL     1       2.287   5.630  20.443  0.00  0.00    +0.000 C 
ATOM      8  O   UNL     1       2.313   5.817  21.660  0.00  0.00    +0.000 OA
ATOM      9  C   UNL     1       2.390   3.956  18.484  0.00  0.00    +0.000 C 
ENDROOT
BRANCH   7  10
ATOM     10  C   UNL     1       2.223   6.834  19.544  0.00  0.00    +0.000 A 
ATOM     11  C   UNL     1       2.835   6.784  18.285  0.00  0.00    +0.000 A 
ATOM     12  C   UNL     1       2.953   7.927  17.514  0.00  0.00    +0.000 A 
ATOM     13  F   UNL     1       3.706   7.891  16.406  0.00  0.00    +0.000 F 
ATOM     14  C   UNL     1       2.320   9.097  17.880  0.00  0.00    +0.000 A 
ATOM     15  C   UNL     1       1.586   9.130  19.066  0.00  0.00    +0.000 A 
ATOM     16  C   UNL     1       1.551   8.016  19.928  0.00  0.00    +0.000 A 
ATOM     17  C   UNL     1       0.793   8.158  21.224  0.00  0.00    +0.000 C 
ENDBRANCH   7  10
BRANCH   1  19
ATOM     18  N   UNL     1       5.323   4.315  16.671  0.00  0.00    +0.000 N 
ATOM     19  C   UNL     1       4.816   4.063  17.962  0.00  0.00    +0.000 C 
ATOM     20  O   UNL     1       5.353   4.559  18.938  0.00  0.00    +0.000 OA
ATOM     21  H   UNL     1       4.960   3.867  15.832  0.00  0.00    +0.000 HD
BRANCH  18  22
ATOM     22  S   UNL     1       6.740   5.160  16.410  0.00  0.00    +0.000 S 
ATOM     23  O   UNL     1       7.752   4.451  17.160  0.00  0.00    +0.000 OA
ATOM     24  O   UNL     1       6.496   6.560  16.626  0.00  0.00    +0.000 OA
BRANCH  22  25
ATOM     25  C   UNL     1       7.032   4.842  14.667  0.00  0.00    +0.000 C 
BRANCH  25  27
ATOM     26  C   UNL     1       6.216   3.571  12.660  0.00  0.00    +0.000 C 
ATOM     27  C   UNL     1       5.879   4.060  14.058  0.00  0.00    +0.000 C 
ENDBRANCH  25  27
ENDBRANCH  22  25
ENDBRANCH  18  22
ENDBRANCH   1  19
TORSDOF 5
ENDMDL
MODEL 4
REMARK VINA RESULT:      -6.6      2.851      5.527
REMARK  Name = 
REMARK  8 active torsions:
REMARK  status: ('A' for Active; 'I' for Inactive)
REMARK    1  A    between atoms: C_1  and  C_2
REMARK    2  A    between atoms: C_2  and  C_3
REMARK    3  A    between atoms: C_3  and  S_4
REMARK    4  A    between atoms: S_4  and  N_7
REMARK    5  A    between atoms: C_8  and  C_10
REMARK    6  A    between atoms: C_10  and  C_11
REMARK    7  A    between atoms: C_16  and  C_18
REMARK    8  A    between atoms: C_24  and  C_25
REMARK                            x       y       z     vdW  Elec       q    Type
REMARK                         _______ _______ _______ _____ _____    ______ ____
ROOT
ATOM      1  C   UNL     1       3.811   2.917  18.259  0.00  0.00    +0.000 C 
ATOM      2  C   UNL     1       3.648   2.302  16.846  0.00  0.00    +0.000 C 
ATOM      3  C   UNL     1       3.927   1.773  19.277  0.00  0.00    +0.000 C 
ATOM      4  C   UNL     1       3.713   2.192  20.734  0.00  0.00    +0.000 C 
ATOM      5  C   UNL     1       2.461   3.054  20.905  0.00  0.00    +0.000 C 
ATOM      6  N   UNL     1       2.469   4.171  19.948  0.00  0.00    +0.000 N 
ATOM      7  C   UNL     1       2.346   5.479  20.450  0.00  0.00    +0.000 C 
ATOM      8  O   UNL     1       2.300   5.700  21.660  0.00  0.00    +0.000 OA
ATOM      9  C   UNL     1       2.569   3.753  18.546  0.00  0.00    +0.000 C 
ENDROOT
BRANCH   7  10
ATOM     10  C   UNL     1       2.328   6.658  19.516  0.00  0.00    +0.000 A 
ATOM     11  C   UNL     1       2.955   6.555  18.267  0.00  0.00    +0.000 A 
ATOM     12  C   UNL     1       3.115   7.672  17.465  0.00  0.00    +0.000 A 
ATOM     13  F   UNL     1       3.883   7.582  16.370  0.00  0.00    +0.000 F 
ATOM     14  C   UNL     1       2.511   8.869  17.788  0.00  0.00    +0.000 A 
ATOM     15  C   UNL     1       1.762   8.956  18.963  0.00  0.00    +0.000 A 
ATOM     16  C   UNL     1       1.684   7.869  19.855  0.00  0.00    +0.000 A 
ATOM     17  C   UNL     1       0.912   8.069  21.135  0.00  0.00    +0.000 C 
ENDBRANCH   7  10
BRANCH   1  19
ATOM     18  N   UNL     1       5.427   4.301  16.885  0.00  0.00    +0.000 N 
ATOM     19  C   UNL     1       5.020   3.862  18.161  0.00  0.00    +0.000 C 
ATOM     20  O   UNL     1       5.642   4.203  19.153  0.00  0.00    +0.000 OA
ATOM     21  H   UNL     1       4.990   3.986  16.021  0.00  0.00    +0.000 HD
BRANCH  18  22
ATOM     22  S   UNL     1       6.834   5.167  16.638  0.00  0.00    +0.000 S 
ATOM     23  O   UNL     1       6.754   5.648  15.279  0.00  0.00    +0.000 OA
ATOM     24  O   UNL     1       7.951   4.380  17.086  0.00  0.00    +0.000 OA
BRANCH  22  25
ATOM     25  C   UNL     1       6.588   6.571  17.729  0.00  0.00    +0.000 C 
BRANCH  25  27
ATOM     26  C   UNL     1       8.016   8.635  17.825  0.00  0.00    +0.000 C 
ATOM     27  C   UNL     1       7.920   7.159  18.166  0.00  0.00    +0.000 C 
ENDBRANCH  25  27
ENDBRANCH  22  25
ENDBRANCH  18  22
ENDBRANCH   1  19
TORSDOF 5
ENDMDL
MODEL 5
REMARK VINA RESULT:      -6.5      8.127     11.738
REMARK  Name = 
REMARK  8 active torsions:
REMARK  status: ('A' for Active; 'I' for Inactive)
REMARK    1  A    between atoms: C_1  and  C_2
REMARK    2  A    between atoms: C_2  and  C_3
REMARK    3  A    between atoms: C_3  and  S_4
REMARK    4  A    between atoms: S_4  and  N_7
REMARK    5  A    between atoms: C_8  and  C_10
REMARK    6  A    between atoms: C_10  and  C_11
REMARK    7  A    between atoms: C_16  and  C_18
REMARK    8  A    between atoms: C_24  and  C_25
REMARK                            x       y       z     vdW  Elec       q    Type
REMARK                         _______ _______ _______ _____ _____    ______ ____
ROOT
ATOM      1  C   UNL     1      -2.161  12.669  22.352  0.00  0.00    +0.000 C 
ATOM      2  C   UNL     1      -1.505  11.486  23.109  0.00  0.00    +0.000 C 
ATOM      3  C   UNL     1      -1.637  13.981  22.954  0.00  0.00    +0.000 C 
ATOM      4  C   UNL     1      -2.456  15.222  22.587  0.00  0.00    +0.000 C 
ATOM      5  C   UNL     1      -3.955  15.000  22.788  0.00  0.00    +0.000 C 
ATOM      6  N   UNL     1      -4.389  13.767  22.114  0.00  0.00    +0.000 N 
ATOM      7  C   UNL     1      -5.439  13.851  21.181  0.00  0.00    +0.000 C 
ATOM      8  O   UNL     1      -5.943  14.933  20.879  0.00  0.00    +0.000 OA
ATOM      9  C   UNL     1      -3.670  12.565  22.548  0.00  0.00    +0.000 C 
ENDROOT
BRANCH   7  10
ATOM     10  C   UNL     1      -5.936  12.619  20.475  0.00  0.00    +0.000 A 
ATOM     11  C   UNL     1      -5.365  12.251  19.250  0.00  0.00    +0.000 A 
ATOM     12  C   UNL     1      -5.920  11.236  18.491  0.00  0.00    +0.000 A 
ATOM     13  F   UNL     1      -5.472  11.034  17.244  0.00  0.00    +0.000 F 
ATOM     14  C   UNL     1      -6.933  10.446  18.996  0.00  0.00    +0.000 A 
ATOM     15  C   UNL     1      -7.424  10.708  20.275  0.00  0.00    +0.000 A 
ATOM     16  C   UNL     1      -6.959  11.810  21.019  0.00  0.00    +0.000 A 
ATOM     17  C   UNL     1      -7.593  12.064  22.364  0.00  0.00    +0.000 C 
ENDBRANCH   7  10
BRANCH   1  19
ATOM     18  N   UNL     1      -1.197  11.237  20.499  0.00  0.00    +0.000 N 
ATOM     19  C   UNL     1      -1.848  12.433  20.866  0.00  0.00    +0.000 C 
ATOM     20  O   UNL     1      -2.118  13.267  20.018  0.00  0.00    +0.000 OA
ATOM     21  H   UNL     1      -0.881  10.544  21.174  0.00  0.00    +0.000 HD
BRANCH  18  22
ATOM     22  S   UNL     1      -0.634  10.958  18.951  0.00  0.00    +0.000 S 
ATOM     23  O   UNL     1       0.241   9.814  19.062  0.00  0.00    +0.000 OA
ATOM     24  O   UNL     1      -0.172  12.199  18.391  0.00  0.00    +0.000 OA
BRANCH  22  25
ATOM     25  C   UNL     1      -2.130  10.419  18.117  0.00  0.00    +0.000 C 
BRANCH  25  27
ATOM     26  C   UNL     1      -2.737  10.115  15.698  0.00  0.00    +0.000 C 
ATOM     27  C   UNL     1      -2.268  11.093  16.761  0.00  0.00    +0.000 C 
ENDBRANCH  25  27
ENDBRANCH  22  25
ENDBRANCH  18  22
ENDBRANCH   1  19
TORSDOF 5
ENDMDL
MODEL 6
REMARK VINA RESULT:      -6.5      6.655     11.549
REMARK  Name = 
REMARK  8 active torsions:
REMARK  status: ('A' for Active; 'I' for Inactive)
REMARK    1  A    between atoms: C_1  and  C_2
REMARK    2  A    between atoms: C_2  and  C_3
REMARK    3  A    between atoms: C_3  and  S_4
REMARK    4  A    between atoms: S_4  and  N_7
REMARK    5  A    between atoms: C_8  and  C_10
REMARK    6  A    between atoms: C_10  and  C_11
REMARK    7  A    between atoms: C_16  and  C_18
REMARK    8  A    between atoms: C_24  and  C_25
REMARK                            x       y       z     vdW  Elec       q    Type
REMARK                         _______ _______ _______ _____ _____    ______ ____
ROOT
ATOM      1  C   UNL     1      -1.952  12.550  22.536  0.00  0.00    +0.000 C 
ATOM      2  C   UNL     1      -1.199  11.277  22.999  0.00  0.00    +0.000 C 
ATOM      3  C   UNL     1      -1.543  13.716  23.449  0.00  0.00    +0.000 C 
ATOM      4  C   UNL     1      -2.464  14.937  23.374  0.00  0.00    +0.000 C 
ATOM      5  C   UNL     1      -3.939  14.550  23.482  0.00  0.00    +0.000 C 
ATOM      6  N   UNL     1      -4.265  13.486  22.519  0.00  0.00    +0.000 N 
ATOM      7  C   UNL     1      -5.316  13.707  21.611  0.00  0.00    +0.000 C 
ATOM      8  O   UNL     1      -5.910  14.785  21.568  0.00  0.00    +0.000 OA
ATOM      9  C   UNL     1      -3.446  12.278  22.667  0.00  0.00    +0.000 C 
ENDROOT
BRANCH   7  10
ATOM     10  C   UNL     1      -5.705  12.647  20.618  0.00  0.00    +0.000 A 
ATOM     11  C   UNL     1      -4.943  12.484  19.452  0.00  0.00    +0.000 A 
ATOM     12  C   UNL     1      -5.378  11.649  18.439  0.00  0.00    +0.000 A 
ATOM     13  F   UNL     1      -4.731  11.659  17.264  0.00  0.00    +0.000 F 
ATOM     14  C   UNL     1      -6.470  10.825  18.618  0.00  0.00    +0.000 A 
ATOM     15  C   UNL     1      -7.163  10.870  19.828  0.00  0.00    +0.000 A 
ATOM     16  C   UNL     1      -6.814  11.797  20.830  0.00  0.00    +0.000 A 
ATOM     17  C   UNL     1      -7.658  11.829  22.079  0.00  0.00    +0.000 C 
ENDBRANCH   7  10
BRANCH   1  19
ATOM     18  N   UNL     1      -1.152  11.581  20.337  0.00  0.00    +0.000 N 
ATOM     19  C   UNL     1      -1.616  12.709  21.044  0.00  0.00    +0.000 C 
ATOM     20  O   UNL     1      -1.712  13.787  20.482  0.00  0.00    +0.000 OA
ATOM     21  H   UNL     1      -0.982  10.678  20.776  0.00  0.00    +0.000 HD
BRANCH  18  22
ATOM     22  S   UNL     1      -0.575  11.675  18.772  0.00  0.00    +0.000 S 
ATOM     23  O   UNL     1       0.574  12.548  18.839  0.00  0.00    +0.000 OA
ATOM     24  O   UNL     1      -1.672  11.952  17.886  0.00  0.00    +0.000 OA
BRANCH  22  25
ATOM     25  C   UNL     1       0.026  10.004  18.510  0.00  0.00    +0.000 C 
BRANCH  25  27
ATOM     26  C   UNL     1       2.006   8.617  17.827  0.00  0.00    +0.000 C 
ATOM     27  C   UNL     1       1.514  10.005  18.198  0.00  0.00    +0.000 C 
ENDBRANCH  25  27
ENDBRANCH  22  25
ENDBRANCH  18  22
ENDBRANCH   1  19
TORSDOF 5
ENDMDL
MODEL 7
REMARK VINA RESULT:      -6.4      1.253      1.338
REMARK  Name = 
REMARK  8 active torsions:
REMARK  status: ('A' for Active; 'I' for Inactive)
REMARK    1  A    between atoms: C_1  and  C_2
REMARK    2  A    between atoms: C_2  and  C_3
REMARK    3  A    between atoms: C_3  and  S_4
REMARK    4  A    between atoms: S_4  and  N_7
REMARK    5  A    between atoms: C_8  and  C_10
REMARK    6  A    between atoms: C_10  and  C_11
REMARK    7  A    between atoms: C_16  and  C_18
REMARK    8  A    between atoms: C_24  and  C_25
REMARK                            x       y       z     vdW  Elec       q    Type
REMARK                         _______ _______ _______ _____ _____    ______ ____
ROOT
ATOM      1  C   UNL     1       2.459   4.357  20.185  0.00  0.00    +0.000 C 
ATOM      2  C   UNL     1       2.578   4.169  21.719  0.00  0.00    +0.000 C 
ATOM      3  C   UNL     1       1.252   3.549  19.688  0.00  0.00    +0.000 C 
ATOM      4  C   UNL     1       1.217   3.319  18.174  0.00  0.00    +0.000 C 
ATOM      5  C   UNL     1       2.561   2.823  17.639  0.00  0.00    +0.000 C 
ATOM      6  N   UNL     1       3.652   3.699  18.095  0.00  0.00    +0.000 N 
ATOM      7  C   UNL     1       4.495   4.272  17.126  0.00  0.00    +0.000 C 
ATOM      8  O   UNL     1       4.293   4.108  15.922  0.00  0.00    +0.000 OA
ATOM      9  C   UNL     1       3.742   3.829  19.552  0.00  0.00    +0.000 C 
ENDROOT
BRANCH   7  10
ATOM     10  C   UNL     1       5.639   5.160  17.535  0.00  0.00    +0.000 A 
ATOM     11  C   UNL     1       6.505   4.738  18.553  0.00  0.00    +0.000 A 
ATOM     12  C   UNL     1       7.450   5.602  19.076  0.00  0.00    +0.000 A 
ATOM     13  F   UNL     1       8.132   5.237  20.171  0.00  0.00    +0.000 F 
ATOM     14  C   UNL     1       7.684   6.832  18.496  0.00  0.00    +0.000 A 
ATOM     15  C   UNL     1       6.924   7.217  17.390  0.00  0.00    +0.000 A 
ATOM     16  C   UNL     1       5.876   6.406  16.914  0.00  0.00    +0.000 A 
ATOM     17  C   UNL     1       5.058   6.927  15.759  0.00  0.00    +0.000 C 
ENDBRANCH   7  10
BRANCH   1  19
ATOM     18  N   UNL     1       1.713   6.668  20.904  0.00  0.00    +0.000 N 
ATOM     19  C   UNL     1       2.396   5.877  19.958  0.00  0.00    +0.000 C 
ATOM     20  O   UNL     1       2.891   6.394  18.971  0.00  0.00    +0.000 OA
ATOM     21  H   UNL     1       1.218   6.279  21.704  0.00  0.00    +0.000 HD
BRANCH  18  22
ATOM     22  S   UNL     1       1.412   8.294  20.667  0.00  0.00    +0.000 S 
ATOM     23  O   UNL     1       1.395   8.476  19.234  0.00  0.00    +0.000 OA
ATOM     24  O   UNL     1       2.295   9.059  21.505  0.00  0.00    +0.000 OA
BRANCH  22  25
ATOM     25  C   UNL     1      -0.278   8.436  21.254  0.00  0.00    +0.000 C 
BRANCH  25  27
ATOM     26  C   UNL     1      -0.621  10.035  23.161  0.00  0.00    +0.000 C 
ATOM     27  C   UNL     1      -0.597   9.869  21.651  0.00  0.00    +0.000 C 
ENDBRANCH  25  27
ENDBRANCH  22  25
ENDBRANCH  18  22
ENDBRANCH   1  19
TORSDOF 5
ENDMDL
MODEL 8
REMARK VINA RESULT:      -6.2      7.623     10.095
REMARK  Name = 
REMARK  8 active torsions:
REMARK  status: ('A' for Active; 'I' for Inactive)
REMARK    1  A    between atoms: C_1  and  C_2
REMARK    2  A    between atoms: C_2  and  C_3
REMARK    3  A    between atoms: C_3  and  S_4
REMARK    4  A    between atoms: S_4  and  N_7
REMARK    5  A    between atoms: C_8  and  C_10
REMARK    6  A    between atoms: C_10  and  C_11
REMARK    7  A    between atoms: C_16  and  C_18
REMARK    8  A    between atoms: C_24  and  C_25
REMARK                            x       y       z     vdW  Elec       q    Type
REMARK                         _______ _______ _______ _____ _____    ______ ____
ROOT
ATOM      1  C   UNL     1       0.029  14.443  19.420  0.00  0.00    +0.000 C 
ATOM      2  C   UNL     1       0.106  15.879  18.841  0.00  0.00    +0.000 C 
ATOM      3  C   UNL     1       1.446  14.000  19.813  0.00  0.00    +0.000 C 
ATOM      4  C   UNL     1       1.603  12.494  20.042  0.00  0.00    +0.000 C 
ATOM      5  C   UNL     1       0.986  11.675  18.908  0.00  0.00    +0.000 C 
ATOM      6  N   UNL     1      -0.396  12.108  18.651  0.00  0.00    +0.000 N 
ATOM      7  C   UNL     1      -1.417  11.142  18.699  0.00  0.00    +0.000 C 
ATOM      8  O   UNL     1      -1.181   9.975  19.014  0.00  0.00    +0.000 OA
ATOM      9  C   UNL     1      -0.523  13.533  18.329  0.00  0.00    +0.000 C 
ENDROOT
BRANCH   7  10
ATOM     10  C   UNL     1      -2.846  11.524  18.425  0.00  0.00    +0.000 A 
ATOM     11  C   UNL     1      -3.622  12.067  19.457  0.00  0.00    +0.000 A 
ATOM     12  C   UNL     1      -4.982  12.257  19.290  0.00  0.00    +0.000 A 
ATOM     13  F   UNL     1      -5.728  12.596  20.351  0.00  0.00    +0.000 F 
ATOM     14  C   UNL     1      -5.576  12.086  18.056  0.00  0.00    +0.000 A 
ATOM     15  C   UNL     1      -4.791  11.679  16.976  0.00  0.00    +0.000 A 
ATOM     16  C   UNL     1      -3.429  11.363  17.148  0.00  0.00    +0.000 A 
ATOM     17  C   UNL     1      -2.670  10.862  15.945  0.00  0.00    +0.000 C 
ENDBRANCH   7  10
BRANCH   1  19
ATOM     18  N   UNL     1      -0.802  13.696  21.693  0.00  0.00    +0.000 N 
ATOM     19  C   UNL     1      -1.000  14.512  20.561  0.00  0.00    +0.000 C 
ATOM     20  O   UNL     1      -1.985  15.226  20.486  0.00  0.00    +0.000 OA
ATOM     21  H   UNL     1      -0.039  13.027  21.772  0.00  0.00    +0.000 HD
BRANCH  18  22
ATOM     22  S   UNL     1      -1.946  13.541  22.901  0.00  0.00    +0.000 S 
ATOM     23  O   UNL     1      -3.211  13.840  22.272  0.00  0.00    +0.000 OA
ATOM     24  O   UNL     1      -1.500  14.264  24.061  0.00  0.00    +0.000 OA
BRANCH  22  25
ATOM     25  C   UNL     1      -1.898  11.774  23.216  0.00  0.00    +0.000 C 
BRANCH  25  27
ATOM     26  C   UNL     1      -0.387   9.774  23.058  0.00  0.00    +0.000 C 
ATOM     27  C   UNL     1      -0.759  11.117  22.454  0.00  0.00    +0.000 C 
ENDBRANCH  25  27
ENDBRANCH  22  25
ENDBRANCH  18  22
ENDBRANCH   1  19
TORSDOF 5
ENDMDL
MODEL 9
REMARK VINA RESULT:      -6.0      7.121     10.912
REMARK  Name = 
REMARK  8 active torsions:
REMARK  status: ('A' for Active; 'I' for Inactive)
REMARK    1  A    between atoms: C_1  and  C_2
REMARK    2  A    between atoms: C_2  and  C_3
REMARK    3  A    between atoms: C_3  and  S_4
REMARK    4  A    between atoms: S_4  and  N_7
REMARK    5  A    between atoms: C_8  and  C_10
REMARK    6  A    between atoms: C_10  and  C_11
REMARK    7  A    between atoms: C_16  and  C_18
REMARK    8  A    between atoms: C_24  and  C_25
REMARK                            x       y       z     vdW  Elec       q    Type
REMARK                         _______ _______ _______ _____ _____    ______ ____
ROOT
ATOM      1  C   UNL     1      -5.944  12.131  18.373  0.00  0.00    +0.000 C 
ATOM      2  C   UNL     1      -6.267  12.857  17.042  0.00  0.00    +0.000 C 
ATOM      3  C   UNL     1      -7.135  11.233  18.738  0.00  0.00    +0.000 C 
ATOM      4  C   UNL     1      -7.145  10.745  20.189  0.00  0.00    +0.000 C 
ATOM      5  C   UNL     1      -6.899  11.885  21.178  0.00  0.00    +0.000 C 
ATOM      6  N   UNL     1      -5.696  12.644  20.802  0.00  0.00    +0.000 N 
ATOM      7  C   UNL     1      -4.675  12.793  21.758  0.00  0.00    +0.000 C 
ATOM      8  O   UNL     1      -4.746  12.250  22.861  0.00  0.00    +0.000 OA
ATOM      9  C   UNL     1      -5.741  13.196  19.444  0.00  0.00    +0.000 C 
ENDROOT
BRANCH   7  10
ATOM     10  C   UNL     1      -3.432  13.576  21.435  0.00  0.00    +0.000 A 
ATOM     11  C   UNL     1      -2.243  12.890  21.151  0.00  0.00    +0.000 A 
ATOM     12  C   UNL     1      -1.047  13.575  21.031  0.00  0.00    +0.000 A 
ATOM     13  F   UNL     1       0.096  12.880  20.951  0.00  0.00    +0.000 F 
ATOM     14  C   UNL     1      -1.019  14.954  21.011  0.00  0.00    +0.000 A 
ATOM     15  C   UNL     1      -2.215  15.660  21.153  0.00  0.00    +0.000 A 
ATOM     16  C   UNL     1      -3.429  14.988  21.397  0.00  0.00    +0.000 A 
ATOM     17  C   UNL     1      -4.663  15.828  21.609  0.00  0.00    +0.000 C 
ENDBRANCH   7  10
BRANCH   1  19
ATOM     18  N   UNL     1      -3.439  12.199  18.012  0.00  0.00    +0.000 N 
ATOM     19  C   UNL     1      -4.603  11.416  18.139  0.00  0.00    +0.000 C 
ATOM     20  O   UNL     1      -4.540  10.203  18.029  0.00  0.00    +0.000 OA
ATOM     21  H   UNL     1      -3.447  13.218  18.019  0.00  0.00    +0.000 HD
BRANCH  18  22
ATOM     22  S   UNL     1      -1.964  11.554  17.565  0.00  0.00    +0.000 S 
ATOM     23  O   UNL     1      -1.011  12.628  17.723  0.00  0.00    +0.000 OA
ATOM     24  O   UNL     1      -2.115  10.870  16.309  0.00  0.00    +0.000 OA
BRANCH  22  25
ATOM     25  C   UNL     1      -1.675  10.371  18.884  0.00  0.00    +0.000 C 
BRANCH  25  27
ATOM     26  C   UNL     1       0.079   9.574  20.496  0.00  0.00    +0.000 C 
ATOM     27  C   UNL     1      -0.187  10.186  19.131  0.00  0.00    +0.000 C 
ENDBRANCH  25  27
ENDBRANCH  22  25
ENDBRANCH  18  22
ENDBRANCH   1  19
TORSDOF 5
ENDMDL
