MODEL 1
REMARK VINA RESULT:      -7.0      0.000      0.000
REMARK  Name = 
REMARK  4 active torsions:
REMARK  status: ('A' for Active; 'I' for Inactive)
REMARK    1  A    between atoms: C_5  and  C_7
REMARK    2  A    between atoms: C_7  and  O_8
REMARK    3  A    between atoms: O_8  and  C_9
REMARK    4  A    between atoms: C_9  and  C_10
REMARK                            x       y       z     vdW  Elec       q    Type
REMARK                         _______ _______ _______ _____ _____    ______ ____
ROOT
ATOM      1  O   UNL     1       2.712   8.468  17.580  0.00  0.00    +0.000 OA
ATOM      2  C   UNL     1       2.974   7.372  18.082  0.00  0.00    +0.000 C 
ATOM      3  C   UNL     1       4.010   6.424  17.502  0.00  0.00    +0.000 C 
ATOM      4  N   UNL     1       4.562   5.490  18.496  0.00  0.00    +0.000 N 
ATOM      5  C   UNL     1       5.927   5.302  18.714  0.00  0.00    +0.000 C 
ATOM      6  O   UNL     1       6.405   4.539  19.560  0.00  0.00    +0.000 OA
ATOM      7  C   UNL     1       3.577   4.874  19.333  0.00  0.00    +0.000 A 
ATOM      8  C   UNL     1       3.760   3.613  19.905  0.00  0.00    +0.000 A 
ATOM      9  C   UNL     1       2.783   3.067  20.741  0.00  0.00    +0.000 A 
ATOM     10  C   UNL     1       1.630   3.790  21.037  0.00  0.00    +0.000 A 
ATOM     11  C   UNL     1       1.438   5.056  20.487  0.00  0.00    +0.000 A 
ATOM     12  C   UNL     1       2.396   5.583  19.618  0.00  0.00    +0.000 A 
ATOM     13  N   UNL     1       2.183   6.856  19.073  0.00  0.00    +0.000 N 
ATOM     14  H   UNL     1       1.406   7.427  19.376  0.00  0.00    +0.000 HD
ENDROOT
BRANCH   5  15
ATOM     15  C   UNL     1       6.891   6.185  17.908  0.00  0.00    +0.000 C 
BRANCH  15  16
ATOM     16  O   UNL     1       7.848   5.471  17.140  0.00  0.00    +0.000 OA
BRANCH  16  17
ATOM     17  C   UNL     1       7.255   4.428  16.369  0.00  0.00    +0.000 C 
BRANCH  17  18
ATOM     18  C   UNL     1       6.608   5.054  15.179  0.00  0.00    +0.000 C 
ATOM     19  C   UNL     1       6.796   4.445  13.814  0.00  0.00    +0.000 C 
ATOM     20  C   UNL     1       5.454   4.374  14.487  0.00  0.00    +0.000 C 
ENDBRANCH  17  18
ENDBRANCH  16  17
ENDBRANCH  15  16
ENDBRANCH   5  15
TORSDOF 4
ENDMDL
MODEL 2
REMARK VINA RESULT:      -6.9      1.838      5.994
REMARK  Name = 
REMARK  4 active torsions:
REMARK  status: ('A' for Active; 'I' for Inactive)
REMARK    1  A    between atoms: C_5  and  C_7
REMARK    2  A    between atoms: C_7  and  O_8
REMARK    3  A    between atoms: O_8  and  C_9
REMARK    4  A    between atoms: C_9  and  C_10
REMARK                            x       y       z     vdW  Elec       q    Type
REMARK                         _______ _______ _______ _____ _____    ______ ____
ROOT
ATOM      1  O   UNL     1       8.179   7.245  18.626  0.00  0.00    +0.000 OA
ATOM      2  C   UNL     1       7.464   6.480  17.974  0.00  0.00    +0.000 C 
ATOM      3  C   UNL     1       6.518   5.483  18.620  0.00  0.00    +0.000 C 
ATOM      4  N   UNL     1       5.401   5.092  17.745  0.00  0.00    +0.000 N 
ATOM      5  C   UNL     1       4.059   5.141  18.126  0.00  0.00    +0.000 C 
ATOM      6  O   UNL     1       3.110   4.839  17.395  0.00  0.00    +0.000 OA
ATOM      7  C   UNL     1       5.788   4.780  16.402  0.00  0.00    +0.000 A 
ATOM      8  C   UNL     1       5.072   3.886  15.603  0.00  0.00    +0.000 A 
ATOM      9  C   UNL     1       5.472   3.637  14.287  0.00  0.00    +0.000 A 
ATOM     10  C   UNL     1       6.570   4.304  13.751  0.00  0.00    +0.000 A 
ATOM     11  C   UNL     1       7.287   5.211  14.529  0.00  0.00    +0.000 A 
ATOM     12  C   UNL     1       6.912   5.426  15.857  0.00  0.00    +0.000 A 
ATOM     13  N   UNL     1       7.647   6.340  16.624  0.00  0.00    +0.000 N 
ATOM     14  H   UNL     1       8.370   6.907  16.204  0.00  0.00    +0.000 HD
ENDROOT
BRANCH   5  15
ATOM     15  C   UNL     1       3.750   5.707  19.520  0.00  0.00    +0.000 C 
BRANCH  15  16
ATOM     16  O   UNL     1       2.366   5.843  19.810  0.00  0.00    +0.000 OA
BRANCH  16  17
ATOM     17  C   UNL     1       1.989   5.136  20.990  0.00  0.00    +0.000 C 
BRANCH  17  18
ATOM     18  C   UNL     1       2.120   3.676  20.706  0.00  0.00    +0.000 C 
ATOM     19  C   UNL     1       1.373   2.676  21.551  0.00  0.00    +0.000 C 
ATOM     20  C   UNL     1       0.967   2.902  20.121  0.00  0.00    +0.000 C 
ENDBRANCH  17  18
ENDBRANCH  16  17
ENDBRANCH  15  16
ENDBRANCH   5  15
TORSDOF 4
ENDMDL
MODEL 3
REMARK VINA RESULT:      -6.8      1.903      2.652
REMARK  Name = 
REMARK  4 active torsions:
REMARK  status: ('A' for Active; 'I' for Inactive)
REMARK    1  A    between atoms: C_5  and  C_7
REMARK    2  A    between atoms: C_7  and  O_8
REMARK    3  A    between atoms: O_8  and  C_9
REMARK    4  A    between atoms: C_9  and  C_10
REMARK                            x       y       z     vdW  Elec       q    Type
REMARK                         _______ _______ _______ _____ _____    ______ ____
ROOT
ATOM      1  O   UNL     1       2.108   8.377  19.981  0.00  0.00    +0.000 OA
ATOM      2  C   UNL     1       2.182   7.201  19.616  0.00  0.00    +0.000 C 
ATOM      3  C   UNL     1       2.407   6.797  18.169  0.00  0.00    +0.000 C 
ATOM      4  N   UNL     1       3.007   5.461  18.026  0.00  0.00    +0.000 N 
ATOM      5  C   UNL     1       4.145   5.197  17.263  0.00  0.00    +0.000 C 
ATOM      6  O   UNL     1       4.675   4.085  17.153  0.00  0.00    +0.000 OA
ATOM      7  C   UNL     1       2.407   4.456  18.850  0.00  0.00    +0.000 A 
ATOM      8  C   UNL     1       2.394   3.105  18.497  0.00  0.00    +0.000 A 
ATOM      9  C   UNL     1       1.823   2.157  19.350  0.00  0.00    +0.000 A 
ATOM     10  C   UNL     1       1.289   2.547  20.576  0.00  0.00    +0.000 A 
ATOM     11  C   UNL     1       1.307   3.889  20.950  0.00  0.00    +0.000 A 
ATOM     12  C   UNL     1       1.840   4.842  20.078  0.00  0.00    +0.000 A 
ATOM     13  N   UNL     1       1.846   6.186  20.472  0.00  0.00    +0.000 N 
ATOM     14  H   UNL     1       1.565   6.455  21.405  0.00  0.00    +0.000 HD
ENDROOT
BRANCH   5  15
ATOM     15  C   UNL     1       4.836   6.398  16.601  0.00  0.00    +0.000 C 
BRANCH  15  16
ATOM     16  O   UNL     1       5.891   6.059  15.712  0.00  0.00    +0.000 OA
BRANCH  16  17
ATOM     17  C   UNL     1       7.173   6.169  16.325  0.00  0.00    +0.000 C 
BRANCH  17  18
ATOM     18  C   UNL     1       7.041   7.088  17.494  0.00  0.00    +0.000 C 
ATOM     19  C   UNL     1       8.087   7.080  18.578  0.00  0.00    +0.000 C 
ATOM     20  C   UNL     1       7.973   8.262  17.655  0.00  0.00    +0.000 C 
ENDBRANCH  17  18
ENDBRANCH  16  17
ENDBRANCH  15  16
ENDBRANCH   5  15
TORSDOF 4
ENDMDL
MODEL 4
REMARK VINA RESULT:      -6.6      1.980      3.648
REMARK  Name = 
REMARK  4 active torsions:
REMARK  status: ('A' for Active; 'I' for Inactive)
REMARK    1  A    between atoms: C_5  and  C_7
REMARK    2  A    between atoms: C_7  and  O_8
REMARK    3  A    between atoms: O_8  and  C_9
REMARK    4  A    between atoms: C_9  and  C_10
REMARK                            x       y       z     vdW  Elec       q    Type
REMARK                         _______ _______ _______ _____ _____    ______ ____
ROOT
ATOM      1  O   UNL     1       5.214   2.907  19.724  0.00  0.00    +0.000 OA
ATOM      2  C   UNL     1       4.942   3.983  19.186  0.00  0.00    +0.000 C 
ATOM      3  C   UNL     1       5.969   4.816  18.439  0.00  0.00    +0.000 C 
ATOM      4  N   UNL     1       5.371   5.715  17.439  0.00  0.00    +0.000 N 
ATOM      5  C   UNL     1       5.777   5.778  16.106  0.00  0.00    +0.000 C 
ATOM      6  O   UNL     1       5.268   6.510  15.250  0.00  0.00    +0.000 OA
ATOM      7  C   UNL     1       4.229   6.439  17.910  0.00  0.00    +0.000 A 
ATOM      8  C   UNL     1       3.869   7.689  17.400  0.00  0.00    +0.000 A 
ATOM      9  C   UNL     1       2.727   8.342  17.870  0.00  0.00    +0.000 A 
ATOM     10  C   UNL     1       1.919   7.739  18.829  0.00  0.00    +0.000 A 
ATOM     11  C   UNL     1       2.254   6.485  19.337  0.00  0.00    +0.000 A 
ATOM     12  C   UNL     1       3.418   5.852  18.898  0.00  0.00    +0.000 A 
ATOM     13  N   UNL     1       3.739   4.593  19.424  0.00  0.00    +0.000 N 
ATOM     14  H   UNL     1       3.096   4.105  20.032  0.00  0.00    +0.000 HD
ENDROOT
BRANCH   5  15
ATOM     15  C   UNL     1       6.865   4.790  15.661  0.00  0.00    +0.000 C 
BRANCH  15  16
ATOM     16  O   UNL     1       6.917   4.556  14.261  0.00  0.00    +0.000 OA
BRANCH  16  17
ATOM     17  C   UNL     1       5.958   3.591  13.837  0.00  0.00    +0.000 C 
BRANCH  17  18
ATOM     18  C   UNL     1       5.943   3.588  12.345  0.00  0.00    +0.000 C 
ATOM     19  C   UNL     1       6.890   2.696  11.585  0.00  0.00    +0.000 C 
ATOM     20  C   UNL     1       5.416   2.397  11.585  0.00  0.00    +0.000 C 
ENDBRANCH  17  18
ENDBRANCH  16  17
ENDBRANCH  15  16
ENDBRANCH   5  15
TORSDOF 4
ENDMDL
MODEL 5
REMARK VINA RESULT:      -6.6      2.585      5.651
REMARK  Name = 
REMARK  4 active torsions:
REMARK  status: ('A' for Active; 'I' for Inactive)
REMARK    1  A    between atoms: C_5  and  C_7
REMARK    2  A    between atoms: C_7  and  O_8
REMARK    3  A    between atoms: O_8  and  C_9
REMARK    4  A    between atoms: C_9  and  C_10
REMARK                            x       y       z     vdW  Elec       q    Type
REMARK                         _______ _______ _______ _____ _____    ______ ____
ROOT
ATOM      1  O   UNL     1       5.021   4.094  14.172  0.00  0.00    +0.000 OA
ATOM      2  C   UNL     1       5.238   4.318  15.365  0.00  0.00    +0.000 C 
ATOM      3  C   UNL     1       4.184   4.142  16.444  0.00  0.00    +0.000 C 
ATOM      4  N   UNL     1       4.755   3.912  17.781  0.00  0.00    +0.000 N 
ATOM      5  C   UNL     1       4.392   2.850  18.611  0.00  0.00    +0.000 C 
ATOM      6  O   UNL     1       4.879   2.630  19.725  0.00  0.00    +0.000 OA
ATOM      7  C   UNL     1       5.829   4.795  18.121  0.00  0.00    +0.000 A 
ATOM      8  C   UNL     1       6.122   5.150  19.440  0.00  0.00    +0.000 A 
ATOM      9  C   UNL     1       7.200   5.991  19.723  0.00  0.00    +0.000 A 
ATOM     10  C   UNL     1       8.015   6.458  18.695  0.00  0.00    +0.000 A 
ATOM     11  C   UNL     1       7.747   6.102  17.374  0.00  0.00    +0.000 A 
ATOM     12  C   UNL     1       6.643   5.296  17.088  0.00  0.00    +0.000 A 
ATOM     13  N   UNL     1       6.389   4.951  15.754  0.00  0.00    +0.000 N 
ATOM     14  H   UNL     1       7.042   5.193  15.022  0.00  0.00    +0.000 HD
ENDROOT
BRANCH   5  15
ATOM     15  C   UNL     1       3.388   1.835  18.046  0.00  0.00    +0.000 C 
BRANCH  15  16
ATOM     16  O   UNL     1       2.184   1.713  18.791  0.00  0.00    +0.000 OA
BRANCH  16  17
ATOM     17  C   UNL     1       1.315   2.827  18.600  0.00  0.00    +0.000 C 
BRANCH  17  18
ATOM     18  C   UNL     1       0.783   3.224  19.937  0.00  0.00    +0.000 C 
ATOM     19  C   UNL     1       1.642   3.066  21.165  0.00  0.00    +0.000 C 
ATOM     20  C   UNL     1       1.319   4.441  20.646  0.00  0.00    +0.000 C 
ENDBRANCH  17  18
ENDBRANCH  16  17
ENDBRANCH  15  16
ENDBRANCH   5  15
TORSDOF 4
ENDMDL
MODEL 6
REMARK VINA RESULT:      -6.6      1.000      1.079
REMARK  Name = 
REMARK  4 active torsions:
REMARK  status: ('A' for Active; 'I' for Inactive)
REMARK    1  A    between atoms: C_5  and  C_7
REMARK    2  A    between atoms: C_7  and  O_8
REMARK    3  A    between atoms: O_8  and  C_9
REMARK    4  A    between atoms: C_9  and  C_10
REMARK                            x       y       z     vdW  Elec       q    Type
REMARK                         _______ _______ _______ _____ _____    ______ ____
ROOT
ATOM      1  O   UNL     1       2.156   8.335  19.086  0.00  0.00    +0.000 OA
ATOM      2  C   UNL     1       2.643   7.206  19.182  0.00  0.00    +0.000 C 
ATOM      3  C   UNL     1       3.585   6.621  18.142  0.00  0.00    +0.000 C 
ATOM      4  N   UNL     1       4.460   5.568  18.679  0.00  0.00    +0.000 N 
ATOM      5  C   UNL     1       5.847   5.558  18.531  0.00  0.00    +0.000 C 
ATOM      6  O   UNL     1       6.598   4.693  18.996  0.00  0.00    +0.000 OA
ATOM      7  C   UNL     1       3.787   4.605  19.498  0.00  0.00    +0.000 A 
ATOM      8  C   UNL     1       4.231   3.288  19.628  0.00  0.00    +0.000 A 
ATOM      9  C   UNL     1       3.558   2.393  20.464  0.00  0.00    +0.000 A 
ATOM     10  C   UNL     1       2.454   2.817  21.200  0.00  0.00    +0.000 A 
ATOM     11  C   UNL     1       2.006   4.132  21.093  0.00  0.00    +0.000 A 
ATOM     12  C   UNL     1       2.654   5.013  20.225  0.00  0.00    +0.000 A 
ATOM     13  N   UNL     1       2.185   6.330  20.130  0.00  0.00    +0.000 N 
ATOM     14  H   UNL     1       1.459   6.669  20.746  0.00  0.00    +0.000 HD
ENDROOT
BRANCH   5  15
ATOM     15  C   UNL     1       6.482   6.763  17.824  0.00  0.00    +0.000 C 
BRANCH  15  16
ATOM     16  O   UNL     1       6.295   6.792  16.416  0.00  0.00    +0.000 OA
BRANCH  16  17
ATOM     17  C   UNL     1       6.902   5.677  15.766  0.00  0.00    +0.000 C 
BRANCH  17  18
ATOM     18  C   UNL     1       5.848   4.988  14.965  0.00  0.00    +0.000 C 
ATOM     19  C   UNL     1       6.216   3.824  14.081  0.00  0.00    +0.000 C 
ATOM     20  C   UNL     1       5.399   3.594  15.323  0.00  0.00    +0.000 C 
ENDBRANCH  17  18
ENDBRANCH  16  17
ENDBRANCH  15  16
ENDBRANCH   5  15
TORSDOF 4
ENDMDL
MODEL 7
REMARK VINA RESULT:      -6.6      2.118      6.253
REMARK  Name = 
REMARK  4 active torsions:
REMARK  status: ('A' for Active; 'I' for Inactive)
REMARK    1  A    between atoms: C_5  and  C_7
REMARK    2  A    between atoms: C_7  and  O_8
REMARK    3  A    between atoms: O_8  and  C_9
REMARK    4  A    between atoms: C_9  and  C_10
REMARK                            x       y       z     vdW  Elec       q    Type
REMARK                         _______ _______ _______ _____ _____    ______ ____
ROOT
ATOM      1  O   UNL     1       7.871   6.696  18.514  0.00  0.00    +0.000 OA
ATOM      2  C   UNL     1       7.350   5.952  17.680  0.00  0.00    +0.000 C 
ATOM      3  C   UNL     1       6.651   4.655  18.052  0.00  0.00    +0.000 C 
ATOM      4  N   UNL     1       5.654   4.227  17.059  0.00  0.00    +0.000 N 
ATOM      5  C   UNL     1       4.335   3.896  17.372  0.00  0.00    +0.000 C 
ATOM      6  O   UNL     1       3.480   3.559  16.546  0.00  0.00    +0.000 OA
ATOM      7  C   UNL     1       6.105   4.306  15.702  0.00  0.00    +0.000 A 
ATOM      8  C   UNL     1       5.612   3.471  14.697  0.00  0.00    +0.000 A 
ATOM      9  C   UNL     1       6.060   3.608  13.381  0.00  0.00    +0.000 A 
ATOM     10  C   UNL     1       6.981   4.600  13.053  0.00  0.00    +0.000 A 
ATOM     11  C   UNL     1       7.472   5.451  14.041  0.00  0.00    +0.000 A 
ATOM     12  C   UNL     1       7.055   5.287  15.363  0.00  0.00    +0.000 A 
ATOM     13  N   UNL     1       7.563   6.151  16.342  0.00  0.00    +0.000 N 
ATOM     14  H   UNL     1       8.140   6.941  16.088  0.00  0.00    +0.000 HD
ENDROOT
BRANCH   5  15
ATOM     15  C   UNL     1       3.903   4.065  18.836  0.00  0.00    +0.000 C 
BRANCH  15  16
ATOM     16  O   UNL     1       2.680   4.765  19.016  0.00  0.00    +0.000 OA
BRANCH  16  17
ATOM     17  C   UNL     1       2.385   4.994  20.392  0.00  0.00    +0.000 C 
BRANCH  17  18
ATOM     18  C   UNL     1       1.182   4.182  20.741  0.00  0.00    +0.000 C 
ATOM     19  C   UNL     1       0.809   2.991  19.897  0.00  0.00    +0.000 C 
ATOM     20  C   UNL     1       1.332   2.787  21.292  0.00  0.00    +0.000 C 
ENDBRANCH  17  18
ENDBRANCH  16  17
ENDBRANCH  15  16
ENDBRANCH   5  15
TORSDOF 4
ENDMDL
MODEL 8
REMARK VINA RESULT:      -6.6      2.119      3.307
REMARK  Name = 
REMARK  4 active torsions:
REMARK  status: ('A' for Active; 'I' for Inactive)
REMARK    1  A    between atoms: C_5  and  C_7
REMARK    2  A    between atoms: C_7  and  O_8
REMARK    3  A    between atoms: O_8  and  C_9
REMARK    4  A    between atoms: C_9  and  C_10
REMARK                            x       y       z     vdW  Elec       q    Type
REMARK                         _______ _______ _______ _____ _____    ______ ____
ROOT
ATOM      1  O   UNL     1       2.723   8.570  17.770  0.00  0.00    +0.000 OA
ATOM      2  C   UNL     1       3.113   7.454  18.121  0.00  0.00    +0.000 C 
ATOM      3  C   UNL     1       4.135   6.650  17.335  0.00  0.00    +0.000 C 
ATOM      4  N   UNL     1       4.857   5.667  18.157  0.00  0.00    +0.000 N 
ATOM      5  C   UNL     1       6.248   5.564  18.205  0.00  0.00    +0.000 C 
ATOM      6  O   UNL     1       6.870   4.760  18.909  0.00  0.00    +0.000 OA
ATOM      7  C   UNL     1       4.018   4.898  19.025  0.00  0.00    +0.000 A 
ATOM      8  C   UNL     1       4.348   3.604  19.436  0.00  0.00    +0.000 A 
ATOM      9  C   UNL     1       3.511   2.905  20.310  0.00  0.00    +0.000 A 
ATOM     10  C   UNL     1       2.356   3.504  20.804  0.00  0.00    +0.000 A 
ATOM     11  C   UNL     1       2.020   4.799  20.417  0.00  0.00    +0.000 A 
ATOM     12  C   UNL     1       2.834   5.482  19.510  0.00  0.00    +0.000 A 
ATOM     13  N   UNL     1       2.477   6.782  19.131  0.00  0.00    +0.000 N 
ATOM     14  H   UNL     1       1.704   7.259  19.576  0.00  0.00    +0.000 HD
ENDROOT
BRANCH   5  15
ATOM     15  C   UNL     1       7.052   6.594  17.399  0.00  0.00    +0.000 C 
BRANCH  15  16
ATOM     16  O   UNL     1       7.927   7.402  18.174  0.00  0.00    +0.000 OA
BRANCH  16  17
ATOM     17  C   UNL     1       7.780   8.791  17.884  0.00  0.00    +0.000 C 
BRANCH  17  18
ATOM     18  C   UNL     1       9.046   9.475  18.281  0.00  0.00    +0.000 C 
ATOM     19  C   UNL     1       9.150  10.975  18.190  0.00  0.00    +0.000 C 
ATOM     20  C   UNL     1       9.107  10.307  19.537  0.00  0.00    +0.000 C 
ENDBRANCH  17  18
ENDBRANCH  16  17
ENDBRANCH  15  16
ENDBRANCH   5  15
TORSDOF 4
ENDMDL
MODEL 9
REMARK VINA RESULT:      -6.6      2.170      2.782
REMARK  Name = 
REMARK  4 active torsions:
REMARK  status: ('A' for Active; 'I' for Inactive)
REMARK    1  A    between atoms: C_5  and  C_7
REMARK    2  A    between atoms: C_7  and  O_8
REMARK    3  A    between atoms: O_8  and  C_9
REMARK    4  A    between atoms: C_9  and  C_10
REMARK                            x       y       z     vdW  Elec       q    Type
REMARK                         _______ _______ _______ _____ _____    ______ ____
ROOT
ATOM      1  O   UNL     1       2.139   8.247  20.466  0.00  0.00    +0.000 OA
ATOM      2  C   UNL     1       2.153   7.158  19.886  0.00  0.00    +0.000 C 
ATOM      3  C   UNL     1       2.335   7.025  18.383  0.00  0.00    +0.000 C 
ATOM      4  N   UNL     1       2.870   5.716  17.977  0.00  0.00    +0.000 N 
ATOM      5  C   UNL     1       3.983   5.552  17.151  0.00  0.00    +0.000 C 
ATOM      6  O   UNL     1       4.458   4.459  16.821  0.00  0.00    +0.000 OA
ATOM      7  C   UNL     1       2.238   4.600  18.613  0.00  0.00    +0.000 A 
ATOM      8  C   UNL     1       2.156   3.341  18.014  0.00  0.00    +0.000 A 
ATOM      9  C   UNL     1       1.556   2.275  18.688  0.00  0.00    +0.000 A 
ATOM     10  C   UNL     1       1.061   2.450  19.977  0.00  0.00    +0.000 A 
ATOM     11  C   UNL     1       1.147   3.695  20.596  0.00  0.00    +0.000 A 
ATOM     12  C   UNL     1       1.709   4.771  19.906  0.00  0.00    +0.000 A 
ATOM     13  N   UNL     1       1.784   6.015  20.544  0.00  0.00    +0.000 N 
ATOM     14  H   UNL     1       1.531   6.116  21.518  0.00  0.00    +0.000 HD
ENDROOT
BRANCH   5  15
ATOM     15  C   UNL     1       4.718   6.825  16.709  0.00  0.00    +0.000 C 
BRANCH  15  16
ATOM     16  O   UNL     1       6.078   6.629  16.346  0.00  0.00    +0.000 OA
BRANCH  16  17
ATOM     17  C   UNL     1       6.978   7.089  17.352  0.00  0.00    +0.000 C 
BRANCH  17  18
ATOM     18  C   UNL     1       6.967   6.091  18.463  0.00  0.00    +0.000 C 
ATOM     19  C   UNL     1       7.689   4.779  18.302  0.00  0.00    +0.000 C 
ATOM     20  C   UNL     1       8.217   5.814  19.257  0.00  0.00    +0.000 C 
ENDBRANCH  17  18
ENDBRANCH  16  17
ENDBRANCH  15  16
ENDBRANCH   5  15
TORSDOF 4
ENDMDL
