MODEL 1
REMARK VINA RESULT:      -7.3      0.000      0.000
REMARK  Name = 
REMARK  8 active torsions:
REMARK  status: ('A' for Active; 'I' for Inactive)
REMARK    1  A    between atoms: S_2  and  C_4
REMARK    2  A    between atoms: S_2  and  N_14
REMARK    3  A    between atoms: C_5  and  C_6
REMARK    4  A    between atoms: C_9  and  O_10
REMARK    5  A    between atoms: C_11  and  O_12
REMARK    6  A    between atoms: N_14  and  C_15
REMARK    7  A    between atoms: C_15  and  C_16
REMARK    8  A    between atoms: C_16  and  C_17
REMARK                            x       y       z     vdW  Elec       q    Type
REMARK                         _______ _______ _______ _____ _____    ______ ____
ROOT
ATOM      1  O   UNL     1       5.468   5.870  15.074  0.00  0.00    +0.000 OA
ATOM      2  S   UNL     1       6.142   5.899  16.355  0.00  0.00    +0.000 S 
ATOM      3  O   UNL     1       7.467   6.466  16.483  0.00  0.00    +0.000 OA
ENDROOT
BRANCH   2   4
ATOM      4  C   UNL     1       5.097   6.667  17.492  0.00  0.00    +0.000 C 
ATOM      5  C   UNL     1       3.881   7.076  17.098  0.00  0.00    +0.000 C 
BRANCH   5   6
ATOM      6  C   UNL     1       2.917   7.709  18.003  0.00  0.00    +0.000 A 
ATOM      7  C   UNL     1       2.221   8.879  17.648  0.00  0.00    +0.000 A 
ATOM      8  C   UNL     1       1.308   9.469  18.528  0.00  0.00    +0.000 A 
ATOM      9  C   UNL     1       1.106   8.894  19.775  0.00  0.00    +0.000 A 
ATOM     10  C   UNL     1       1.813   7.752  20.144  0.00  0.00    +0.000 A 
ATOM     11  C   UNL     1       2.719   7.160  19.275  0.00  0.00    +0.000 A 
BRANCH   9  12
ATOM     12  O   UNL     1       0.225   9.420  20.678  0.00  0.00    +0.000 OA
ATOM     13  H   UNL     1      -0.175  10.214  20.282  0.00  0.00    +0.000 HD
ENDBRANCH   9  12
BRANCH  10  14
ATOM     14  O   UNL     1       1.613   7.199  21.377  0.00  0.00    +0.000 OA
ATOM     15  H   UNL     1       2.352   7.540  21.921  0.00  0.00    +0.000 HD
ENDBRANCH  10  14
ENDBRANCH   5   6
ENDBRANCH   2   4
BRANCH   2  16
ATOM     16  N   UNL     1       6.221   4.277  16.864  0.00  0.00    +0.000 NA
ATOM     17  H   UNL     1       7.184   4.047  17.113  0.00  0.00    +0.000 HD
BRANCH  16  18
ATOM     18  C   UNL     1       5.292   3.897  17.965  0.00  0.00    +0.000 C 
BRANCH  18  19
ATOM     19  C   UNL     1       3.934   3.419  17.458  0.00  0.00    +0.000 C 
BRANCH  19  20
ATOM     20  C   UNL     1       2.906   3.366  18.558  0.00  0.00    +0.000 A 
ATOM     21  C   UNL     1       3.259   3.740  19.863  0.00  0.00    +0.000 A 
ATOM     22  C   UNL     1       2.314   3.709  20.886  0.00  0.00    +0.000 A 
ATOM     23  C   UNL     1       1.011   3.298  20.616  0.00  0.00    +0.000 A 
ATOM     24  C   UNL     1       0.653   2.915  19.323  0.00  0.00    +0.000 A 
ATOM     25  C   UNL     1       1.597   2.946  18.297  0.00  0.00    +0.000 A 
ENDBRANCH  19  20
ENDBRANCH  18  19
ENDBRANCH  16  18
ENDBRANCH   2  16
TORSDOF 8
ENDMDL
MODEL 2
REMARK VINA RESULT:      -7.2      4.565      5.825
REMARK  Name = 
REMARK  8 active torsions:
REMARK  status: ('A' for Active; 'I' for Inactive)
REMARK    1  A    between atoms: S_2  and  C_4
REMARK    2  A    between atoms: S_2  and  N_14
REMARK    3  A    between atoms: C_5  and  C_6
REMARK    4  A    between atoms: C_9  and  O_10
REMARK    5  A    between atoms: C_11  and  O_12
REMARK    6  A    between atoms: N_14  and  C_15
REMARK    7  A    between atoms: C_15  and  C_16
REMARK    8  A    between atoms: C_16  and  C_17
REMARK                            x       y       z     vdW  Elec       q    Type
REMARK                         _______ _______ _______ _____ _____    ______ ____
ROOT
ATOM      1  O   UNL     1       7.661   6.389  16.136  0.00  0.00    +0.000 OA
ATOM      2  S   UNL     1       7.327   6.767  17.493  0.00  0.00    +0.000 S 
ATOM      3  O   UNL     1       7.841   6.019  18.619  0.00  0.00    +0.000 OA
ENDROOT
BRANCH   2   4
ATOM      4  C   UNL     1       7.733   8.431  17.700  0.00  0.00    +0.000 C 
ATOM      5  C   UNL     1       8.616   8.781  18.649  0.00  0.00    +0.000 C 
BRANCH   5   6
ATOM      6  C   UNL     1       9.042  10.165  18.874  0.00  0.00    +0.000 A 
ATOM      7  C   UNL     1       9.609  10.580  20.093  0.00  0.00    +0.000 A 
ATOM      8  C   UNL     1      10.006  11.906  20.289  0.00  0.00    +0.000 A 
ATOM      9  C   UNL     1       9.817  12.824  19.266  0.00  0.00    +0.000 A 
ATOM     10  C   UNL     1       9.230  12.427  18.066  0.00  0.00    +0.000 A 
ATOM     11  C   UNL     1       8.835  11.112  17.865  0.00  0.00    +0.000 A 
BRANCH   9  12
ATOM     12  O   UNL     1      10.187  14.134  19.394  0.00  0.00    +0.000 OA
ATOM     13  H   UNL     1       9.400  14.685  19.245  0.00  0.00    +0.000 HD
ENDBRANCH   9  12
BRANCH  10  14
ATOM     14  O   UNL     1       9.039  13.340  17.069  0.00  0.00    +0.000 OA
ATOM     15  H   UNL     1       8.197  13.782  17.298  0.00  0.00    +0.000 HD
ENDBRANCH  10  14
ENDBRANCH   5   6
ENDBRANCH   2   4
BRANCH   2  16
ATOM     16  N   UNL     1       5.628   6.722  17.572  0.00  0.00    +0.000 NA
ATOM     17  H   UNL     1       5.240   6.955  16.657  0.00  0.00    +0.000 HD
BRANCH  16  18
ATOM     18  C   UNL     1       5.035   5.456  18.085  0.00  0.00    +0.000 C 
BRANCH  18  19
ATOM     19  C   UNL     1       3.688   5.128  17.444  0.00  0.00    +0.000 C 
BRANCH  19  20
ATOM     20  C   UNL     1       2.697   4.603  18.450  0.00  0.00    +0.000 A 
ATOM     21  C   UNL     1       1.798   3.591  18.084  0.00  0.00    +0.000 A 
ATOM     22  C   UNL     1       0.886   3.088  19.009  0.00  0.00    +0.000 A 
ATOM     23  C   UNL     1       0.861   3.596  20.307  0.00  0.00    +0.000 A 
ATOM     24  C   UNL     1       1.746   4.610  20.677  0.00  0.00    +0.000 A 
ATOM     25  C   UNL     1       2.660   5.114  19.753  0.00  0.00    +0.000 A 
ENDBRANCH  19  20
ENDBRANCH  18  19
ENDBRANCH  16  18
ENDBRANCH   2  16
TORSDOF 8
ENDMDL
MODEL 3
REMARK VINA RESULT:      -7.1      4.603      5.931
REMARK  Name = 
REMARK  8 active torsions:
REMARK  status: ('A' for Active; 'I' for Inactive)
REMARK    1  A    between atoms: S_2  and  C_4
REMARK    2  A    between atoms: S_2  and  N_14
REMARK    3  A    between atoms: C_5  and  C_6
REMARK    4  A    between atoms: C_9  and  O_10
REMARK    5  A    between atoms: C_11  and  O_12
REMARK    6  A    between atoms: N_14  and  C_15
REMARK    7  A    between atoms: C_15  and  C_16
REMARK    8  A    between atoms: C_16  and  C_17
REMARK                            x       y       z     vdW  Elec       q    Type
REMARK                         _______ _______ _______ _____ _____    ______ ____
ROOT
ATOM      1  O   UNL     1       7.549   6.235  16.215  0.00  0.00    +0.000 OA
ATOM      2  S   UNL     1       7.154   6.848  17.467  0.00  0.00    +0.000 S 
ATOM      3  O   UNL     1       7.381   6.173  18.726  0.00  0.00    +0.000 OA
ENDROOT
BRANCH   2   4
ATOM      4  C   UNL     1       7.866   8.417  17.541  0.00  0.00    +0.000 C 
ATOM      5  C   UNL     1       8.386   8.851  18.700  0.00  0.00    +0.000 C 
BRANCH   5   6
ATOM      6  C   UNL     1       9.036  10.156  18.848  0.00  0.00    +0.000 A 
ATOM      7  C   UNL     1       9.856  10.459  19.950  0.00  0.00    +0.000 A 
ATOM      8  C   UNL     1      10.464  11.712  20.073  0.00  0.00    +0.000 A 
ATOM      9  C   UNL     1      10.235  12.670  19.096  0.00  0.00    +0.000 A 
ATOM     10  C   UNL     1       9.402  12.388  18.016  0.00  0.00    +0.000 A 
ATOM     11  C   UNL     1       8.797  11.145  17.888  0.00  0.00    +0.000 A 
BRANCH   9  12
ATOM     12  O   UNL     1      10.804  13.912  19.156  0.00  0.00    +0.000 OA
ATOM     13  H   UNL     1      11.744  13.825  18.921  0.00  0.00    +0.000 HD
ENDBRANCH   9  12
BRANCH  10  14
ATOM     14  O   UNL     1       9.176  13.341  17.065  0.00  0.00    +0.000 OA
ATOM     15  H   UNL     1       8.290  13.127  16.709  0.00  0.00    +0.000 HD
ENDBRANCH  10  14
ENDBRANCH   5   6
ENDBRANCH   2   4
BRANCH   2  16
ATOM     16  N   UNL     1       5.483   7.135  17.325  0.00  0.00    +0.000 NA
ATOM     17  H   UNL     1       5.275   7.468  16.383  0.00  0.00    +0.000 HD
BRANCH  16  18
ATOM     18  C   UNL     1       4.595   5.994  17.684  0.00  0.00    +0.000 C 
BRANCH  18  19
ATOM     19  C   UNL     1       3.226   6.442  18.189  0.00  0.00    +0.000 C 
BRANCH  19  20
ATOM     20  C   UNL     1       2.413   5.289  18.716  0.00  0.00    +0.000 A 
ATOM     21  C   UNL     1       2.069   5.237  20.075  0.00  0.00    +0.000 A 
ATOM     22  C   UNL     1       1.306   4.183  20.571  0.00  0.00    +0.000 A 
ATOM     23  C   UNL     1       0.884   3.168  19.714  0.00  0.00    +0.000 A 
ATOM     24  C   UNL     1       1.229   3.206  18.363  0.00  0.00    +0.000 A 
ATOM     25  C   UNL     1       1.992   4.261  17.864  0.00  0.00    +0.000 A 
ENDBRANCH  19  20
ENDBRANCH  18  19
ENDBRANCH  16  18
ENDBRANCH   2  16
TORSDOF 8
ENDMDL
MODEL 4
REMARK VINA RESULT:      -7.1      1.353      1.626
REMARK  Name = 
REMARK  8 active torsions:
REMARK  status: ('A' for Active; 'I' for Inactive)
REMARK    1  A    between atoms: S_2  and  C_4
REMARK    2  A    between atoms: S_2  and  N_14
REMARK    3  A    between atoms: C_5  and  C_6
REMARK    4  A    between atoms: C_9  and  O_10
REMARK    5  A    between atoms: C_11  and  O_12
REMARK    6  A    between atoms: N_14  and  C_15
REMARK    7  A    between atoms: C_15  and  C_16
REMARK    8  A    between atoms: C_16  and  C_17
REMARK                            x       y       z     vdW  Elec       q    Type
REMARK                         _______ _______ _______ _____ _____    ______ ____
ROOT
ATOM      1  O   UNL     1       7.270   5.214  17.505  0.00  0.00    +0.000 OA
ATOM      2  S   UNL     1       6.013   4.756  18.061  0.00  0.00    +0.000 S 
ATOM      3  O   UNL     1       5.958   4.166  19.381  0.00  0.00    +0.000 OA
ENDROOT
BRANCH   2   4
ATOM      4  C   UNL     1       4.889   6.062  17.989  0.00  0.00    +0.000 C 
ATOM      5  C   UNL     1       3.884   6.116  18.877  0.00  0.00    +0.000 C 
BRANCH   5   6
ATOM      6  C   UNL     1       2.901   7.204  18.909  0.00  0.00    +0.000 A 
ATOM      7  C   UNL     1       2.709   8.065  17.813  0.00  0.00    +0.000 A 
ATOM      8  C   UNL     1       1.768   9.098  17.866  0.00  0.00    +0.000 A 
ATOM      9  C   UNL     1       1.031   9.280  19.028  0.00  0.00    +0.000 A 
ATOM     10  C   UNL     1       1.237   8.449  20.127  0.00  0.00    +0.000 A 
ATOM     11  C   UNL     1       2.167   7.420  20.080  0.00  0.00    +0.000 A 
BRANCH   9  12
ATOM     12  O   UNL     1       0.094  10.269  19.141  0.00  0.00    +0.000 OA
ATOM     13  H   UNL     1      -0.150  10.556  18.244  0.00  0.00    +0.000 HD
ENDBRANCH   9  12
BRANCH  10  14
ATOM     14  O   UNL     1       0.513   8.642  21.269  0.00  0.00    +0.000 OA
ATOM     15  H   UNL     1       0.375   9.610  21.311  0.00  0.00    +0.000 HD
ENDBRANCH  10  14
ENDBRANCH   5   6
ENDBRANCH   2   4
BRANCH   2  16
ATOM     16  N   UNL     1       5.418   3.609  16.954  0.00  0.00    +0.000 NA
ATOM     17  H   UNL     1       5.856   2.705  17.135  0.00  0.00    +0.000 HD
BRANCH  16  18
ATOM     18  C   UNL     1       3.936   3.469  16.898  0.00  0.00    +0.000 C 
BRANCH  18  19
ATOM     19  C   UNL     1       3.422   2.269  17.690  0.00  0.00    +0.000 C 
BRANCH  19  20
ATOM     20  C   UNL     1       2.692   2.688  18.940  0.00  0.00    +0.000 A 
ATOM     21  C   UNL     1       3.241   2.406  20.199  0.00  0.00    +0.000 A 
ATOM     22  C   UNL     1       2.583   2.800  21.361  0.00  0.00    +0.000 A 
ATOM     23  C   UNL     1       1.368   3.476  21.276  0.00  0.00    +0.000 A 
ATOM     24  C   UNL     1       0.809   3.754  20.028  0.00  0.00    +0.000 A 
ATOM     25  C   UNL     1       1.466   3.360  18.863  0.00  0.00    +0.000 A 
ENDBRANCH  19  20
ENDBRANCH  18  19
ENDBRANCH  16  18
ENDBRANCH   2  16
TORSDOF 8
ENDMDL
MODEL 5
REMARK VINA RESULT:      -7.1      1.185      1.835
REMARK  Name = 
REMARK  8 active torsions:
REMARK  status: ('A' for Active; 'I' for Inactive)
REMARK    1  A    between atoms: S_2  and  C_4
REMARK    2  A    between atoms: S_2  and  N_14
REMARK    3  A    between atoms: C_5  and  C_6
REMARK    4  A    between atoms: C_9  and  O_10
REMARK    5  A    between atoms: C_11  and  O_12
REMARK    6  A    between atoms: N_14  and  C_15
REMARK    7  A    between atoms: C_15  and  C_16
REMARK    8  A    between atoms: C_16  and  C_17
REMARK                            x       y       z     vdW  Elec       q    Type
REMARK                         _______ _______ _______ _____ _____    ______ ____
ROOT
ATOM      1  O   UNL     1       6.401   6.302  16.126  0.00  0.00    +0.000 OA
ATOM      2  S   UNL     1       5.770   5.478  17.136  0.00  0.00    +0.000 S 
ATOM      3  O   UNL     1       6.560   4.614  17.987  0.00  0.00    +0.000 OA
ENDROOT
BRANCH   2   4
ATOM      4  C   UNL     1       4.800   6.500  18.130  0.00  0.00    +0.000 C 
ATOM      5  C   UNL     1       3.555   6.814  17.736  0.00  0.00    +0.000 C 
BRANCH   5   6
ATOM      6  C   UNL     1       2.650   7.650  18.531  0.00  0.00    +0.000 A 
ATOM      7  C   UNL     1       2.227   7.272  19.818  0.00  0.00    +0.000 A 
ATOM      8  C   UNL     1       1.361   8.083  20.558  0.00  0.00    +0.000 A 
ATOM      9  C   UNL     1       0.904   9.267  19.998  0.00  0.00    +0.000 A 
ATOM     10  C   UNL     1       1.296   9.635  18.713  0.00  0.00    +0.000 A 
ATOM     11  C   UNL     1       2.157   8.835  17.974  0.00  0.00    +0.000 A 
BRANCH   9  12
ATOM     12  O   UNL     1       0.059  10.105  20.672  0.00  0.00    +0.000 OA
ATOM     13  H   UNL     1      -0.189  10.829  20.072  0.00  0.00    +0.000 HD
ENDBRANCH   9  12
BRANCH  10  14
ATOM     14  O   UNL     1       0.834  10.798  18.168  0.00  0.00    +0.000 OA
ATOM     15  H   UNL     1      -0.021  10.956  18.617  0.00  0.00    +0.000 HD
ENDBRANCH  10  14
ENDBRANCH   5   6
ENDBRANCH   2   4
BRANCH   2  16
ATOM     16  N   UNL     1       4.656   4.503  16.297  0.00  0.00    +0.000 NA
ATOM     17  H   UNL     1       4.995   4.340  15.348  0.00  0.00    +0.000 HD
BRANCH  16  18
ATOM     18  C   UNL     1       4.298   3.214  16.953  0.00  0.00    +0.000 C 
BRANCH  18  19
ATOM     19  C   UNL     1       2.794   3.050  17.161  0.00  0.00    +0.000 C 
BRANCH  19  20
ATOM     20  C   UNL     1       2.410   3.160  18.613  0.00  0.00    +0.000 A 
ATOM     21  C   UNL     1       3.227   2.588  19.599  0.00  0.00    +0.000 A 
ATOM     22  C   UNL     1       2.889   2.695  20.946  0.00  0.00    +0.000 A 
ATOM     23  C   UNL     1       1.729   3.370  21.319  0.00  0.00    +0.000 A 
ATOM     24  C   UNL     1       0.905   3.935  20.345  0.00  0.00    +0.000 A 
ATOM     25  C   UNL     1       1.241   3.830  18.996  0.00  0.00    +0.000 A 
ENDBRANCH  19  20
ENDBRANCH  18  19
ENDBRANCH  16  18
ENDBRANCH   2  16
TORSDOF 8
ENDMDL
MODEL 6
REMARK VINA RESULT:      -7.1      4.417      7.303
REMARK  Name = 
REMARK  8 active torsions:
REMARK  status: ('A' for Active; 'I' for Inactive)
REMARK    1  A    between atoms: S_2  and  C_4
REMARK    2  A    between atoms: S_2  and  N_14
REMARK    3  A    between atoms: C_5  and  C_6
REMARK    4  A    between atoms: C_9  and  O_10
REMARK    5  A    between atoms: C_11  and  O_12
REMARK    6  A    between atoms: N_14  and  C_15
REMARK    7  A    between atoms: C_15  and  C_16
REMARK    8  A    between atoms: C_16  and  C_17
REMARK                            x       y       z     vdW  Elec       q    Type
REMARK                         _______ _______ _______ _____ _____    ______ ____
ROOT
ATOM      1  O   UNL     1       7.727   5.672  19.525  0.00  0.00    +0.000 OA
ATOM      2  S   UNL     1       7.210   5.663  18.173  0.00  0.00    +0.000 S 
ATOM      3  O   UNL     1       7.836   4.859  17.145  0.00  0.00    +0.000 OA
ENDROOT
BRANCH   2   4
ATOM      4  C   UNL     1       5.533   5.264  18.244  0.00  0.00    +0.000 C 
ATOM      5  C   UNL     1       5.144   4.166  18.913  0.00  0.00    +0.000 C 
BRANCH   5   6
ATOM      6  C   UNL     1       3.740   3.768  19.051  0.00  0.00    +0.000 A 
ATOM      7  C   UNL     1       2.814   3.934  18.005  0.00  0.00    +0.000 A 
ATOM      8  C   UNL     1       1.478   3.550  18.159  0.00  0.00    +0.000 A 
ATOM      9  C   UNL     1       1.066   3.016  19.372  0.00  0.00    +0.000 A 
ATOM     10  C   UNL     1       1.971   2.875  20.421  0.00  0.00    +0.000 A 
ATOM     11  C   UNL     1       3.299   3.252  20.274  0.00  0.00    +0.000 A 
BRANCH   9  12
ATOM     12  O   UNL     1      -0.225   2.618  19.583  0.00  0.00    +0.000 OA
ATOM     13  H   UNL     1      -0.404   1.857  19.005  0.00  0.00    +0.000 HD
ENDBRANCH   9  12
BRANCH  10  14
ATOM     14  O   UNL     1       1.553   2.357  21.613  0.00  0.00    +0.000 OA
ATOM     15  H   UNL     1       0.606   2.594  21.665  0.00  0.00    +0.000 HD
ENDBRANCH  10  14
ENDBRANCH   5   6
ENDBRANCH   2   4
BRANCH   2  16
ATOM     16  N   UNL     1       7.248   7.284  17.660  0.00  0.00    +0.000 NA
ATOM     17  H   UNL     1       6.345   7.721  17.849  0.00  0.00    +0.000 HD
BRANCH  16  18
ATOM     18  C   UNL     1       8.355   8.114  18.211  0.00  0.00    +0.000 C 
BRANCH  18  19
ATOM     19  C   UNL     1       8.144   9.610  17.991  0.00  0.00    +0.000 C 
BRANCH  19  20
ATOM     20  C   UNL     1       9.231  10.434  18.629  0.00  0.00    +0.000 A 
ATOM     21  C   UNL     1       9.248  10.615  20.020  0.00  0.00    +0.000 A 
ATOM     22  C   UNL     1      10.256  11.363  20.623  0.00  0.00    +0.000 A 
ATOM     23  C   UNL     1      11.254  11.942  19.842  0.00  0.00    +0.000 A 
ATOM     24  C   UNL     1      11.241  11.775  18.457  0.00  0.00    +0.000 A 
ATOM     25  C   UNL     1      10.233  11.026  17.850  0.00  0.00    +0.000 A 
ENDBRANCH  19  20
ENDBRANCH  18  19
ENDBRANCH  16  18
ENDBRANCH   2  16
TORSDOF 8
ENDMDL
MODEL 7
REMARK VINA RESULT:      -7.0      1.263      2.065
REMARK  Name = 
REMARK  8 active torsions:
REMARK  status: ('A' for Active; 'I' for Inactive)
REMARK    1  A    between atoms: S_2  and  C_4
REMARK    2  A    between atoms: S_2  and  N_14
REMARK    3  A    between atoms: C_5  and  C_6
REMARK    4  A    between atoms: C_9  and  O_10
REMARK    5  A    between atoms: C_11  and  O_12
REMARK    6  A    between atoms: N_14  and  C_15
REMARK    7  A    between atoms: C_15  and  C_16
REMARK    8  A    between atoms: C_16  and  C_17
REMARK                            x       y       z     vdW  Elec       q    Type
REMARK                         _______ _______ _______ _____ _____    ______ ____
ROOT
ATOM      1  O   UNL     1       6.527   6.219  16.181  0.00  0.00    +0.000 OA
ATOM      2  S   UNL     1       5.591   5.586  17.087  0.00  0.00    +0.000 S 
ATOM      3  O   UNL     1       6.051   4.951  18.303  0.00  0.00    +0.000 OA
ENDROOT
BRANCH   2   4
ATOM      4  C   UNL     1       4.372   6.738  17.488  0.00  0.00    +0.000 C 
ATOM      5  C   UNL     1       3.643   6.566  18.602  0.00  0.00    +0.000 C 
BRANCH   5   6
ATOM      6  C   UNL     1       2.609   7.509  19.037  0.00  0.00    +0.000 A 
ATOM      7  C   UNL     1       2.015   7.428  20.309  0.00  0.00    +0.000 A 
ATOM      8  C   UNL     1       1.027   8.336  20.702  0.00  0.00    +0.000 A 
ATOM      9  C   UNL     1       0.621   9.318  19.809  0.00  0.00    +0.000 A 
ATOM     10  C   UNL     1       1.185   9.388  18.537  0.00  0.00    +0.000 A 
ATOM     11  C   UNL     1       2.167   8.490  18.142  0.00  0.00    +0.000 A 
BRANCH   9  12
ATOM     12  O   UNL     1      -0.336  10.238  20.135  0.00  0.00    +0.000 OA
ATOM     13  H   UNL     1      -0.161  11.048  19.626  0.00  0.00    +0.000 HD
ENDBRANCH   9  12
BRANCH  10  14
ATOM     14  O   UNL     1       0.772  10.352  17.663  0.00  0.00    +0.000 OA
ATOM     15  H   UNL     1      -0.138  10.088  17.419  0.00  0.00    +0.000 HD
ENDBRANCH  10  14
ENDBRANCH   5   6
ENDBRANCH   2   4
BRANCH   2  16
ATOM     16  N   UNL     1       4.786   4.408  16.159  0.00  0.00    +0.000 NA
ATOM     17  H   UNL     1       5.403   4.087  15.411  0.00  0.00    +0.000 HD
BRANCH  16  18
ATOM     18  C   UNL     1       4.235   3.250  16.916  0.00  0.00    +0.000 C 
BRANCH  18  19
ATOM     19  C   UNL     1       2.739   3.378  17.192  0.00  0.00    +0.000 C 
BRANCH  19  20
ATOM     20  C   UNL     1       2.432   3.345  18.667  0.00  0.00    +0.000 A 
ATOM     21  C   UNL     1       1.223   3.874  19.142  0.00  0.00    +0.000 A 
ATOM     22  C   UNL     1       0.922   3.836  20.502  0.00  0.00    +0.000 A 
ATOM     23  C   UNL     1       1.829   3.276  21.399  0.00  0.00    +0.000 A 
ATOM     24  C   UNL     1       3.038   2.756  20.936  0.00  0.00    +0.000 A 
ATOM     25  C   UNL     1       3.342   2.791  19.576  0.00  0.00    +0.000 A 
ENDBRANCH  19  20
ENDBRANCH  18  19
ENDBRANCH  16  18
ENDBRANCH   2  16
TORSDOF 8
ENDMDL
MODEL 8
REMARK VINA RESULT:      -6.9      1.430      1.861
REMARK  Name = 
REMARK  8 active torsions:
REMARK  status: ('A' for Active; 'I' for Inactive)
REMARK    1  A    between atoms: S_2  and  C_4
REMARK    2  A    between atoms: S_2  and  N_14
REMARK    3  A    between atoms: C_5  and  C_6
REMARK    4  A    between atoms: C_9  and  O_10
REMARK    5  A    between atoms: C_11  and  O_12
REMARK    6  A    between atoms: N_14  and  C_15
REMARK    7  A    between atoms: C_15  and  C_16
REMARK    8  A    between atoms: C_16  and  C_17
REMARK                            x       y       z     vdW  Elec       q    Type
REMARK                         _______ _______ _______ _____ _____    ______ ____
ROOT
ATOM      1  O   UNL     1       6.991   4.923  17.263  0.00  0.00    +0.000 OA
ATOM      2  S   UNL     1       5.733   4.544  17.874  0.00  0.00    +0.000 S 
ATOM      3  O   UNL     1       5.698   3.959  19.197  0.00  0.00    +0.000 OA
ENDROOT
BRANCH   2   4
ATOM      4  C   UNL     1       4.691   5.918  17.847  0.00  0.00    +0.000 C 
ATOM      5  C   UNL     1       3.740   6.043  18.786  0.00  0.00    +0.000 C 
BRANCH   5   6
ATOM      6  C   UNL     1       2.831   7.191  18.858  0.00  0.00    +0.000 A 
ATOM      7  C   UNL     1       2.683   8.091  17.787  0.00  0.00    +0.000 A 
ATOM      8  C   UNL     1       1.813   9.182  17.878  0.00  0.00    +0.000 A 
ATOM      9  C   UNL     1       1.102   9.380  19.053  0.00  0.00    +0.000 A 
ATOM     10  C   UNL     1       1.264   8.509  20.128  0.00  0.00    +0.000 A 
ATOM     11  C   UNL     1       2.125   7.423  20.043  0.00  0.00    +0.000 A 
BRANCH   9  12
ATOM     12  O   UNL     1       0.233  10.425  19.203  0.00  0.00    +0.000 OA
ATOM     13  H   UNL     1      -0.567  10.090  19.644  0.00  0.00    +0.000 HD
ENDBRANCH   9  12
BRANCH  10  14
ATOM     14  O   UNL     1       0.566   8.718  21.283  0.00  0.00    +0.000 OA
ATOM     15  H   UNL     1       1.254   8.893  21.956  0.00  0.00    +0.000 HD
ENDBRANCH  10  14
ENDBRANCH   5   6
ENDBRANCH   2   4
BRANCH   2  16
ATOM     16  N   UNL     1       5.019   3.437  16.797  0.00  0.00    +0.000 NA
ATOM     17  H   UNL     1       5.733   3.069  16.167  0.00  0.00    +0.000 HD
BRANCH  16  18
ATOM     18  C   UNL     1       4.252   2.325  17.424  0.00  0.00    +0.000 C 
BRANCH  18  19
ATOM     19  C   UNL     1       2.753   2.604  17.497  0.00  0.00    +0.000 C 
BRANCH  19  20
ATOM     20  C   UNL     1       2.297   2.878  18.906  0.00  0.00    +0.000 A 
ATOM     21  C   UNL     1       1.147   3.648  19.133  0.00  0.00    +0.000 A 
ATOM     22  C   UNL     1       0.707   3.897  20.431  0.00  0.00    +0.000 A 
ATOM     23  C   UNL     1       1.417   3.383  21.515  0.00  0.00    +0.000 A 
ATOM     24  C   UNL     1       2.567   2.624  21.299  0.00  0.00    +0.000 A 
ATOM     25  C   UNL     1       3.009   2.373  20.001  0.00  0.00    +0.000 A 
ENDBRANCH  19  20
ENDBRANCH  18  19
ENDBRANCH  16  18
ENDBRANCH   2  16
TORSDOF 8
ENDMDL
MODEL 9
REMARK VINA RESULT:      -6.9      4.458      5.731
REMARK  Name = 
REMARK  8 active torsions:
REMARK  status: ('A' for Active; 'I' for Inactive)
REMARK    1  A    between atoms: S_2  and  C_4
REMARK    2  A    between atoms: S_2  and  N_14
REMARK    3  A    between atoms: C_5  and  C_6
REMARK    4  A    between atoms: C_9  and  O_10
REMARK    5  A    between atoms: C_11  and  O_12
REMARK    6  A    between atoms: N_14  and  C_15
REMARK    7  A    between atoms: C_15  and  C_16
REMARK    8  A    between atoms: C_16  and  C_17
REMARK                            x       y       z     vdW  Elec       q    Type
REMARK                         _______ _______ _______ _____ _____    ______ ____
ROOT
ATOM      1  O   UNL     1       7.560   6.300  16.060  0.00  0.00    +0.000 OA
ATOM      2  S   UNL     1       7.230   6.655  17.424  0.00  0.00    +0.000 S 
ATOM      3  O   UNL     1       7.768   5.902  18.537  0.00  0.00    +0.000 OA
ENDROOT
BRANCH   2   4
ATOM      4  C   UNL     1       7.607   8.323  17.649  0.00  0.00    +0.000 C 
ATOM      5  C   UNL     1       8.554   8.671  18.535  0.00  0.00    +0.000 C 
BRANCH   5   6
ATOM      6  C   UNL     1       8.960  10.061  18.768  0.00  0.00    +0.000 A 
ATOM      7  C   UNL     1       9.618  10.455  19.947  0.00  0.00    +0.000 A 
ATOM      8  C   UNL     1       9.994  11.786  20.151  0.00  0.00    +0.000 A 
ATOM      9  C   UNL     1       9.692  12.728  19.177  0.00  0.00    +0.000 A 
ATOM     10  C   UNL     1       9.015  12.350  18.020  0.00  0.00    +0.000 A 
ATOM     11  C   UNL     1       8.641  11.030  17.811  0.00  0.00    +0.000 A 
BRANCH   9  12
ATOM     12  O   UNL     1      10.036  14.044  19.315  0.00  0.00    +0.000 OA
ATOM     13  H   UNL     1      10.617  14.283  18.573  0.00  0.00    +0.000 HD
ENDBRANCH   9  12
BRANCH  10  14
ATOM     14  O   UNL     1       8.715  13.286  17.073  0.00  0.00    +0.000 OA
ATOM     15  H   UNL     1       7.963  13.785  17.451  0.00  0.00    +0.000 HD
ENDBRANCH  10  14
ENDBRANCH   5   6
ENDBRANCH   2   4
BRANCH   2  16
ATOM     16  N   UNL     1       5.533   6.577  17.517  0.00  0.00    +0.000 NA
ATOM     17  H   UNL     1       5.145   7.516  17.418  0.00  0.00    +0.000 HD
BRANCH  16  18
ATOM     18  C   UNL     1       4.873   5.637  16.569  0.00  0.00    +0.000 C 
BRANCH  18  19
ATOM     19  C   UNL     1       4.963   4.180  17.017  0.00  0.00    +0.000 C 
BRANCH  19  20
ATOM     20  C   UNL     1       3.758   3.759  17.817  0.00  0.00    +0.000 A 
ATOM     21  C   UNL     1       2.493   4.278  17.504  0.00  0.00    +0.000 A 
ATOM     22  C   UNL     1       1.370   3.886  18.227  0.00  0.00    +0.000 A 
ATOM     23  C   UNL     1       1.500   2.976  19.274  0.00  0.00    +0.000 A 
ATOM     24  C   UNL     1       2.755   2.461  19.599  0.00  0.00    +0.000 A 
ATOM     25  C   UNL     1       3.882   2.852  18.876  0.00  0.00    +0.000 A 
ENDBRANCH  19  20
ENDBRANCH  18  19
ENDBRANCH  16  18
ENDBRANCH   2  16
TORSDOF 8
ENDMDL
