MODEL 1
REMARK VINA RESULT:      -7.1      0.000      0.000
REMARK  Name = 
REMARK  5 active torsions:
REMARK  status: ('A' for Active; 'I' for Inactive)
REMARK    1  A    between atoms: C_1  and  C_2
REMARK    2  A    between atoms: C_2  and  C_3
REMARK    3  A    between atoms: C_13  and  N_14
REMARK    4  A    between atoms: C_15  and  C_17
REMARK    5  A    between atoms: C_23  and  C_24
REMARK                            x       y       z     vdW  Elec       q    Type
REMARK                         _______ _______ _______ _____ _____    ______ ____
ROOT
ATOM      1  C   UNL     1      -2.363  15.268  25.608  0.00  0.00    +0.000 C 
ATOM      2  C   UNL     1      -3.188  15.140  24.310  0.00  0.00    +0.000 C 
ATOM      3  C   UNL     1      -4.585  15.728  24.566  0.00  0.00    +0.000 C 
ATOM      4  C   UNL     1      -2.508  15.925  23.180  0.00  0.00    +0.000 C 
ATOM      5  C   UNL     1      -1.167  15.312  22.845  0.00  0.00    +0.000 C 
ATOM      6  O   UNL     1      -0.163  16.006  22.712  0.00  0.00    +0.000 OA
ATOM      7  C   UNL     1      -1.112  13.832  22.662  0.00  0.00    +0.000 C 
ATOM      8  C   UNL     1      -2.096  13.098  23.204  0.00  0.00    +0.000 C 
ATOM      9  C   UNL     1      -3.316  13.658  23.893  0.00  0.00    +0.000 C 
ATOM     10  O   UNL     1      -2.018  11.688  23.269  0.00  0.00    +0.000 OA
ATOM     11  C   UNL     1      -0.947  11.015  22.736  0.00  0.00    +0.000 C 
ATOM     12  O   UNL     1      -0.676   9.874  23.100  0.00  0.00    +0.000 OA
ATOM     13  C   UNL     1      -0.267  11.721  21.566  0.00  0.00    +0.000 C 
ATOM     14  C   UNL     1       0.050  13.199  21.926  0.00  0.00    +0.000 C 
ENDROOT
BRANCH  14  15
ATOM     15  C   UNL     1       0.491  13.958  20.661  0.00  0.00    +0.000 A 
ATOM     16  C   UNL     1      -0.465  14.416  19.726  0.00  0.00    +0.000 A 
ATOM     17  C   UNL     1      -0.091  15.141  18.594  0.00  0.00    +0.000 A 
ATOM     18  C   UNL     1       1.250  15.410  18.360  0.00  0.00    +0.000 A 
ATOM     19  C   UNL     1       2.217  14.940  19.247  0.00  0.00    +0.000 A 
ATOM     20  C   UNL     1       1.845  14.211  20.383  0.00  0.00    +0.000 A 
ATOM     21 CL   UNL     1       3.118  13.637  21.403  0.00  0.00    +0.000 Cl
ENDBRANCH  14  15
BRANCH  13  22
ATOM     22  N   UNL     1      -1.159  11.583  20.403  0.00  0.00    +0.000 N 
ATOM     23  C   UNL     1      -0.954  10.672  19.392  0.00  0.00    +0.000 C 
ATOM     24  O   UNL     1       0.010   9.918  19.342  0.00  0.00    +0.000 OA
ATOM     25  H   UNL     1      -1.921  12.238  20.319  0.00  0.00    +0.000 HD
BRANCH  23  26
ATOM     26  C   UNL     1      -1.968  10.705  18.298  0.00  0.00    +0.000 A 
ATOM     27  C   UNL     1      -1.747   9.944  17.146  0.00  0.00    +0.000 A 
ATOM     28  C   UNL     1      -2.656   9.999  16.086  0.00  0.00    +0.000 A 
ATOM     29  C   UNL     1      -3.789  10.808  16.176  0.00  0.00    +0.000 A 
ATOM     30  C   UNL     1      -4.028  11.549  17.330  0.00  0.00    +0.000 A 
ATOM     31  C   UNL     1      -3.127  11.491  18.394  0.00  0.00    +0.000 A 
ENDBRANCH  23  26
ENDBRANCH  13  22
TORSDOF 3
ENDMDL
MODEL 2
REMARK VINA RESULT:      -6.9      2.743      4.785
REMARK  Name = 
REMARK  5 active torsions:
REMARK  status: ('A' for Active; 'I' for Inactive)
REMARK    1  A    between atoms: C_1  and  C_2
REMARK    2  A    between atoms: C_2  and  C_3
REMARK    3  A    between atoms: C_13  and  N_14
REMARK    4  A    between atoms: C_15  and  C_17
REMARK    5  A    between atoms: C_23  and  C_24
REMARK                            x       y       z     vdW  Elec       q    Type
REMARK                         _______ _______ _______ _____ _____    ______ ____
ROOT
ATOM      1  C   UNL     1       2.413  16.492  20.715  0.00  0.00    +0.000 C 
ATOM      2  C   UNL     1       2.191  15.751  19.380  0.00  0.00    +0.000 C 
ATOM      3  C   UNL     1       2.955  16.502  18.278  0.00  0.00    +0.000 C 
ATOM      4  C   UNL     1       2.730  14.318  19.483  0.00  0.00    +0.000 C 
ATOM      5  C   UNL     1       1.937  13.527  20.498  0.00  0.00    +0.000 C 
ATOM      6  O   UNL     1       2.493  12.836  21.346  0.00  0.00    +0.000 OA
ATOM      7  C   UNL     1       0.448  13.601  20.419  0.00  0.00    +0.000 C 
ATOM      8  C   UNL     1      -0.092  14.648  19.776  0.00  0.00    +0.000 C 
ATOM      9  C   UNL     1       0.687  15.703  19.030  0.00  0.00    +0.000 C 
ATOM     10  O   UNL     1      -1.479  14.917  19.833  0.00  0.00    +0.000 OA
ATOM     11  C   UNL     1      -2.332  14.085  20.517  0.00  0.00    +0.000 C 
ATOM     12  O   UNL     1      -3.431  14.481  20.891  0.00  0.00    +0.000 OA
ATOM     13  C   UNL     1      -1.875  12.631  20.598  0.00  0.00    +0.000 C 
ATOM     14  C   UNL     1      -0.404  12.544  21.089  0.00  0.00    +0.000 C 
ENDROOT
BRANCH  14  15
ATOM     15  C   UNL     1       0.117  11.105  20.916  0.00  0.00    +0.000 A 
ATOM     16  C   UNL     1       0.761  10.710  19.722  0.00  0.00    +0.000 A 
ATOM     17  C   UNL     1       1.276   9.424  19.559  0.00  0.00    +0.000 A 
ATOM     18  C   UNL     1       1.143   8.495  20.582  0.00  0.00    +0.000 A 
ATOM     19  C   UNL     1       0.482   8.846  21.757  0.00  0.00    +0.000 A 
ATOM     20  C   UNL     1      -0.037  10.135  21.923  0.00  0.00    +0.000 A 
ATOM     21 CL   UNL     1      -0.875  10.466  23.399  0.00  0.00    +0.000 Cl
ENDBRANCH  14  15
BRANCH  13  22
ATOM     22  N   UNL     1      -2.081  12.039  19.266  0.00  0.00    +0.000 N 
ATOM     23  C   UNL     1      -3.317  11.689  18.772  0.00  0.00    +0.000 C 
ATOM     24  O   UNL     1      -4.358  11.796  19.409  0.00  0.00    +0.000 OA
ATOM     25  H   UNL     1      -1.261  11.825  18.718  0.00  0.00    +0.000 HD
BRANCH  23  26
ATOM     26  C   UNL     1      -3.303  11.091  17.405  0.00  0.00    +0.000 A 
ATOM     27  C   UNL     1      -2.306  10.166  17.080  0.00  0.00    +0.000 A 
ATOM     28  C   UNL     1      -2.241   9.632  15.790  0.00  0.00    +0.000 A 
ATOM     29  C   UNL     1      -3.175  10.014  14.826  0.00  0.00    +0.000 A 
ATOM     30  C   UNL     1      -4.185  10.916  15.150  0.00  0.00    +0.000 A 
ATOM     31  C   UNL     1      -4.258  11.446  16.439  0.00  0.00    +0.000 A 
ENDBRANCH  23  26
ENDBRANCH  13  22
TORSDOF 3
ENDMDL
MODEL 3
REMARK VINA RESULT:      -6.9      2.700      5.165
REMARK  Name = 
REMARK  5 active torsions:
REMARK  status: ('A' for Active; 'I' for Inactive)
REMARK    1  A    between atoms: C_1  and  C_2
REMARK    2  A    between atoms: C_2  and  C_3
REMARK    3  A    between atoms: C_13  and  N_14
REMARK    4  A    between atoms: C_15  and  C_17
REMARK    5  A    between atoms: C_23  and  C_24
REMARK                            x       y       z     vdW  Elec       q    Type
REMARK                         _______ _______ _______ _____ _____    ______ ____
ROOT
ATOM      1  C   UNL     1       3.631  16.641  20.021  0.00  0.00    +0.000 C 
ATOM      2  C   UNL     1       3.251  15.615  18.934  0.00  0.00    +0.000 C 
ATOM      3  C   UNL     1       4.229  15.773  17.758  0.00  0.00    +0.000 C 
ATOM      4  C   UNL     1       3.363  14.191  19.496  0.00  0.00    +0.000 C 
ATOM      5  C   UNL     1       2.349  13.978  20.597  0.00  0.00    +0.000 C 
ATOM      6  O   UNL     1       2.663  13.456  21.662  0.00  0.00    +0.000 OA
ATOM      7  C   UNL     1       0.944  14.408  20.333  0.00  0.00    +0.000 C 
ATOM      8  C   UNL     1       0.739  15.314  19.364  0.00  0.00    +0.000 C 
ATOM      9  C   UNL     1       1.805  15.855  18.444  0.00  0.00    +0.000 C 
ATOM     10  O   UNL     1      -0.518  15.937  19.186  0.00  0.00    +0.000 OA
ATOM     11  C   UNL     1      -1.590  15.601  19.976  0.00  0.00    +0.000 C 
ATOM     12  O   UNL     1      -2.545  16.362  20.097  0.00  0.00    +0.000 OA
ATOM     13  C   UNL     1      -1.562  14.174  20.516  0.00  0.00    +0.000 C 
ATOM     14  C   UNL     1      -0.190  13.861  21.173  0.00  0.00    +0.000 C 
ENDROOT
BRANCH  14  15
ATOM     15  C   UNL     1      -0.090  12.354  21.473  0.00  0.00    +0.000 A 
ATOM     16  C   UNL     1       0.662  11.501  20.634  0.00  0.00    +0.000 A 
ATOM     17  C   UNL     1       0.800  10.140  20.910  0.00  0.00    +0.000 A 
ATOM     18  C   UNL     1       0.174   9.596  22.023  0.00  0.00    +0.000 A 
ATOM     19  C   UNL     1      -0.603  10.407  22.848  0.00  0.00    +0.000 A 
ATOM     20  C   UNL     1      -0.744  11.772  22.573  0.00  0.00    +0.000 A 
ATOM     21 CL   UNL     1      -1.758  12.689  23.631  0.00  0.00    +0.000 Cl
ENDBRANCH  14  15
BRANCH  13  22
ATOM     22  N   UNL     1      -1.885  13.281  19.389  0.00  0.00    +0.000 N 
ATOM     23  C   UNL     1      -2.928  12.384  19.406  0.00  0.00    +0.000 C 
ATOM     24  O   UNL     1      -3.661  12.211  20.372  0.00  0.00    +0.000 OA
ATOM     25  H   UNL     1      -1.266  13.291  18.594  0.00  0.00    +0.000 HD
BRANCH  23  26
ATOM     26  C   UNL     1      -3.074  11.564  18.167  0.00  0.00    +0.000 A 
ATOM     27  C   UNL     1      -2.060  10.661  17.830  0.00  0.00    +0.000 A 
ATOM     28  C   UNL     1      -2.149   9.919  16.649  0.00  0.00    +0.000 A 
ATOM     29  C   UNL     1      -3.251  10.073  15.806  0.00  0.00    +0.000 A 
ATOM     30  C   UNL     1      -4.275  10.952  16.149  0.00  0.00    +0.000 A 
ATOM     31  C   UNL     1      -4.194  11.688  17.331  0.00  0.00    +0.000 A 
ENDBRANCH  23  26
ENDBRANCH  13  22
TORSDOF 3
ENDMDL
MODEL 4
REMARK VINA RESULT:      -6.8      2.166      6.076
REMARK  Name = 
REMARK  5 active torsions:
REMARK  status: ('A' for Active; 'I' for Inactive)
REMARK    1  A    between atoms: C_1  and  C_2
REMARK    2  A    between atoms: C_2  and  C_3
REMARK    3  A    between atoms: C_13  and  N_14
REMARK    4  A    between atoms: C_15  and  C_17
REMARK    5  A    between atoms: C_23  and  C_24
REMARK                            x       y       z     vdW  Elec       q    Type
REMARK                         _______ _______ _______ _____ _____    ______ ____
ROOT
ATOM      1  C   UNL     1      -3.647   9.240  17.914  0.00  0.00    +0.000 C 
ATOM      2  C   UNL     1      -2.666  10.173  17.173  0.00  0.00    +0.000 C 
ATOM      3  C   UNL     1      -2.798   9.913  15.664  0.00  0.00    +0.000 C 
ATOM      4  C   UNL     1      -3.015  11.638  17.466  0.00  0.00    +0.000 C 
ATOM      5  C   UNL     1      -2.808  11.947  18.931  0.00  0.00    +0.000 C 
ATOM      6  O   UNL     1      -3.652  12.555  19.582  0.00  0.00    +0.000 OA
ATOM      7  C   UNL     1      -1.526  11.503  19.555  0.00  0.00    +0.000 C 
ATOM      8  C   UNL     1      -0.845  10.519  18.948  0.00  0.00    +0.000 C 
ATOM      9  C   UNL     1      -1.213   9.898  17.623  0.00  0.00    +0.000 C 
ATOM     10  O   UNL     1       0.257   9.888  19.571  0.00  0.00    +0.000 OA
ATOM     11  C   UNL     1       0.696  10.293  20.807  0.00  0.00    +0.000 C 
ATOM     12  O   UNL     1       1.373   9.549  21.510  0.00  0.00    +0.000 OA
ATOM     13  C   UNL     1       0.429  11.761  21.129  0.00  0.00    +0.000 C 
ATOM     14  C   UNL     1      -1.057  12.122  20.854  0.00  0.00    +0.000 C 
ENDROOT
BRANCH  14  15
ATOM     15  C   UNL     1      -1.243  13.649  20.934  0.00  0.00    +0.000 A 
ATOM     16  C   UNL     1      -0.964  14.468  19.816  0.00  0.00    +0.000 A 
ATOM     17  C   UNL     1      -1.164  15.848  19.853  0.00  0.00    +0.000 A 
ATOM     18  C   UNL     1      -1.632  16.446  21.015  0.00  0.00    +0.000 A 
ATOM     19  C   UNL     1      -1.882  15.667  22.143  0.00  0.00    +0.000 A 
ATOM     20  C   UNL     1      -1.681  14.282  22.110  0.00  0.00    +0.000 A 
ATOM     21 CL   UNL     1      -1.981  13.405  23.569  0.00  0.00    +0.000 Cl
ENDBRANCH  14  15
BRANCH  13  22
ATOM     22  N   UNL     1       1.379  12.557  20.334  0.00  0.00    +0.000 N 
ATOM     23  C   UNL     1       2.129  13.587  20.854  0.00  0.00    +0.000 C 
ATOM     24  O   UNL     1       2.048  13.969  22.015  0.00  0.00    +0.000 OA
ATOM     25  H   UNL     1       1.430  12.371  19.345  0.00  0.00    +0.000 HD
BRANCH  23  26
ATOM     26  C   UNL     1       3.021  14.274  19.874  0.00  0.00    +0.000 A 
ATOM     27  C   UNL     1       2.549  14.511  18.579  0.00  0.00    +0.000 A 
ATOM     28  C   UNL     1       3.383  15.106  17.629  0.00  0.00    +0.000 A 
ATOM     29  C   UNL     1       4.686  15.471  17.970  0.00  0.00    +0.000 A 
ATOM     30  C   UNL     1       5.153  15.261  19.266  0.00  0.00    +0.000 A 
ATOM     31  C   UNL     1       4.321  14.674  20.219  0.00  0.00    +0.000 A 
ENDBRANCH  23  26
ENDBRANCH  13  22
TORSDOF 3
ENDMDL
MODEL 5
REMARK VINA RESULT:      -6.8      2.277      5.781
REMARK  Name = 
REMARK  5 active torsions:
REMARK  status: ('A' for Active; 'I' for Inactive)
REMARK    1  A    between atoms: C_1  and  C_2
REMARK    2  A    between atoms: C_2  and  C_3
REMARK    3  A    between atoms: C_13  and  N_14
REMARK    4  A    between atoms: C_15  and  C_17
REMARK    5  A    between atoms: C_23  and  C_24
REMARK                            x       y       z     vdW  Elec       q    Type
REMARK                         _______ _______ _______ _____ _____    ______ ____
ROOT
ATOM      1  C   UNL     1      -6.603  10.737  18.580  0.00  0.00    +0.000 C 
ATOM      2  C   UNL     1      -6.130  12.149  18.175  0.00  0.00    +0.000 C 
ATOM      3  C   UNL     1      -7.195  12.768  17.255  0.00  0.00    +0.000 C 
ATOM      4  C   UNL     1      -5.969  13.025  19.424  0.00  0.00    +0.000 C 
ATOM      5  C   UNL     1      -4.864  12.489  20.305  0.00  0.00    +0.000 C 
ATOM      6  O   UNL     1      -5.018  12.362  21.516  0.00  0.00    +0.000 OA
ATOM      7  C   UNL     1      -3.569  12.138  19.651  0.00  0.00    +0.000 C 
ATOM      8  C   UNL     1      -3.580  11.904  18.330  0.00  0.00    +0.000 C 
ATOM      9  C   UNL     1      -4.778  12.074  17.429  0.00  0.00    +0.000 C 
ATOM     10  O   UNL     1      -2.457  11.360  17.664  0.00  0.00    +0.000 OA
ATOM     11  C   UNL     1      -1.296  11.091  18.345  0.00  0.00    +0.000 C 
ATOM     12  O   UNL     1      -0.473  10.298  17.898  0.00  0.00    +0.000 OA
ATOM     13  C   UNL     1      -1.053  11.976  19.566  0.00  0.00    +0.000 C 
ATOM     14  C   UNL     1      -2.308  12.009  20.479  0.00  0.00    +0.000 C 
ENDROOT
BRANCH  14  15
ATOM     15  C   UNL     1      -2.140  13.099  21.554  0.00  0.00    +0.000 A 
ATOM     16  C   UNL     1      -2.497  14.439  21.282  0.00  0.00    +0.000 A 
ATOM     17  C   UNL     1      -2.390  15.435  22.254  0.00  0.00    +0.000 A 
ATOM     18  C   UNL     1      -1.907  15.118  23.516  0.00  0.00    +0.000 A 
ATOM     19  C   UNL     1      -1.514  13.811  23.800  0.00  0.00    +0.000 A 
ATOM     20  C   UNL     1      -1.618  12.810  22.827  0.00  0.00    +0.000 A 
ATOM     21 CL   UNL     1      -1.071  11.228  23.260  0.00  0.00    +0.000 Cl
ENDBRANCH  14  15
BRANCH  13  22
ATOM     22  N   UNL     1      -0.661  13.304  19.064  0.00  0.00    +0.000 N 
ATOM     23  C   UNL     1       0.483  13.958  19.458  0.00  0.00    +0.000 C 
ATOM     24  O   UNL     1       1.263  13.520  20.294  0.00  0.00    +0.000 OA
ATOM     25  H   UNL     1      -1.303  13.777  18.448  0.00  0.00    +0.000 HD
BRANCH  23  26
ATOM     26  C   UNL     1       0.686  15.302  18.840  0.00  0.00    +0.000 A 
ATOM     27  C   UNL     1      -0.431  16.103  18.580  0.00  0.00    +0.000 A 
ATOM     28  C   UNL     1      -0.271  17.343  17.955  0.00  0.00    +0.000 A 
ATOM     29  C   UNL     1       1.001  17.787  17.594  0.00  0.00    +0.000 A 
ATOM     30  C   UNL     1       2.120  17.005  17.873  0.00  0.00    +0.000 A 
ATOM     31  C   UNL     1       1.965  15.770  18.504  0.00  0.00    +0.000 A 
ENDBRANCH  23  26
ENDBRANCH  13  22
TORSDOF 3
ENDMDL
MODEL 6
REMARK VINA RESULT:      -6.4      2.513      5.152
REMARK  Name = 
REMARK  5 active torsions:
REMARK  status: ('A' for Active; 'I' for Inactive)
REMARK    1  A    between atoms: C_1  and  C_2
REMARK    2  A    between atoms: C_2  and  C_3
REMARK    3  A    between atoms: C_13  and  N_14
REMARK    4  A    between atoms: C_15  and  C_17
REMARK    5  A    between atoms: C_23  and  C_24
REMARK                            x       y       z     vdW  Elec       q    Type
REMARK                         _______ _______ _______ _____ _____    ______ ____
ROOT
ATOM      1  C   UNL     1       1.848  17.273  19.703  0.00  0.00    +0.000 C 
ATOM      2  C   UNL     1       0.344  17.244  19.360  0.00  0.00    +0.000 C 
ATOM      3  C   UNL     1      -0.014  18.561  18.651  0.00  0.00    +0.000 C 
ATOM      4  C   UNL     1       0.044  16.068  18.422  0.00  0.00    +0.000 C 
ATOM      5  C   UNL     1       0.302  14.754  19.125  0.00  0.00    +0.000 C 
ATOM      6  O   UNL     1       0.936  13.854  18.583  0.00  0.00    +0.000 OA
ATOM      7  C   UNL     1      -0.261  14.584  20.496  0.00  0.00    +0.000 C 
ATOM      8  C   UNL     1      -0.573  15.692  21.186  0.00  0.00    +0.000 C 
ATOM      9  C   UNL     1      -0.503  17.098  20.645  0.00  0.00    +0.000 C 
ATOM     10  O   UNL     1      -0.907  15.640  22.559  0.00  0.00    +0.000 OA
ATOM     11  C   UNL     1      -0.966  14.442  23.227  0.00  0.00    +0.000 C 
ATOM     12  O   UNL     1      -0.878  14.398  24.450  0.00  0.00    +0.000 OA
ATOM     13  C   UNL     1      -1.321  13.242  22.353  0.00  0.00    +0.000 C 
ATOM     14  C   UNL     1      -0.422  13.199  21.087  0.00  0.00    +0.000 C 
ENDROOT
BRANCH  14  15
ATOM     15  C   UNL     1      -0.963  12.146  20.101  0.00  0.00    +0.000 A 
ATOM     16  C   UNL     1      -2.094  12.425  19.300  0.00  0.00    +0.000 A 
ATOM     17  C   UNL     1      -2.577  11.502  18.372  0.00  0.00    +0.000 A 
ATOM     18  C   UNL     1      -1.951  10.270  18.235  0.00  0.00    +0.000 A 
ATOM     19  C   UNL     1      -0.856   9.956  19.037  0.00  0.00    +0.000 A 
ATOM     20  C   UNL     1      -0.370  10.879  19.970  0.00  0.00    +0.000 A 
ATOM     21 CL   UNL     1       0.969  10.384  20.947  0.00  0.00    +0.000 Cl
ENDBRANCH  14  15
BRANCH  13  22
ATOM     22  N   UNL     1      -2.757  13.344  22.044  0.00  0.00    +0.000 N 
ATOM     23  C   UNL     1      -3.736  12.690  22.757  0.00  0.00    +0.000 C 
ATOM     24  O   UNL     1      -3.505  11.928  23.688  0.00  0.00    +0.000 OA
ATOM     25  H   UNL     1      -3.023  13.872  21.228  0.00  0.00    +0.000 HD
BRANCH  23  26
ATOM     26  C   UNL     1      -5.129  12.917  22.271  0.00  0.00    +0.000 A 
ATOM     27  C   UNL     1      -6.140  13.165  23.205  0.00  0.00    +0.000 A 
ATOM     28  C   UNL     1      -7.461  13.330  22.778  0.00  0.00    +0.000 A 
ATOM     29  C   UNL     1      -7.773  13.253  21.420  0.00  0.00    +0.000 A 
ATOM     30  C   UNL     1      -6.767  13.031  20.483  0.00  0.00    +0.000 A 
ATOM     31  C   UNL     1      -5.446  12.874  20.905  0.00  0.00    +0.000 A 
ENDBRANCH  23  26
ENDBRANCH  13  22
TORSDOF 3
ENDMDL
MODEL 7
REMARK VINA RESULT:      -6.4      2.630      4.150
REMARK  Name = 
REMARK  5 active torsions:
REMARK  status: ('A' for Active; 'I' for Inactive)
REMARK    1  A    between atoms: C_1  and  C_2
REMARK    2  A    between atoms: C_2  and  C_3
REMARK    3  A    between atoms: C_13  and  N_14
REMARK    4  A    between atoms: C_15  and  C_17
REMARK    5  A    between atoms: C_23  and  C_24
REMARK                            x       y       z     vdW  Elec       q    Type
REMARK                         _______ _______ _______ _____ _____    ______ ____
ROOT
ATOM      1  C   UNL     1       0.075  17.035  23.560  0.00  0.00    +0.000 C 
ATOM      2  C   UNL     1      -0.605  16.996  22.176  0.00  0.00    +0.000 C 
ATOM      3  C   UNL     1      -0.450  18.379  21.523  0.00  0.00    +0.000 C 
ATOM      4  C   UNL     1       0.070  15.940  21.291  0.00  0.00    +0.000 C 
ATOM      5  C   UNL     1      -0.144  14.558  21.863  0.00  0.00    +0.000 C 
ATOM      6  O   UNL     1       0.782  13.759  21.967  0.00  0.00    +0.000 OA
ATOM      7  C   UNL     1      -1.529  14.190  22.279  0.00  0.00    +0.000 C 
ATOM      8  C   UNL     1      -2.391  15.188  22.529  0.00  0.00    +0.000 C 
ATOM      9  C   UNL     1      -2.106  16.654  22.319  0.00  0.00    +0.000 C 
ATOM     10  O   UNL     1      -3.648  14.947  23.130  0.00  0.00    +0.000 OA
ATOM     11  C   UNL     1      -4.049  13.671  23.440  0.00  0.00    +0.000 C 
ATOM     12  O   UNL     1      -4.928  13.472  24.275  0.00  0.00    +0.000 OA
ATOM     13  C   UNL     1      -3.454  12.582  22.552  0.00  0.00    +0.000 C 
ATOM     14  C   UNL     1      -1.912  12.736  22.451  0.00  0.00    +0.000 C 
ENDROOT
BRANCH  14  15
ATOM     15  C   UNL     1      -1.367  11.801  21.356  0.00  0.00    +0.000 A 
ATOM     16  C   UNL     1      -1.514  12.130  19.989  0.00  0.00    +0.000 A 
ATOM     17  C   UNL     1      -0.993  11.318  18.982  0.00  0.00    +0.000 A 
ATOM     18  C   UNL     1      -0.327  10.147  19.316  0.00  0.00    +0.000 A 
ATOM     19  C   UNL     1      -0.198   9.780  20.654  0.00  0.00    +0.000 A 
ATOM     20  C   UNL     1      -0.721  10.592  21.668  0.00  0.00    +0.000 A 
ATOM     21 CL   UNL     1      -0.547  10.034  23.295  0.00  0.00    +0.000 Cl
ENDBRANCH  14  15
BRANCH  13  22
ATOM     22  N   UNL     1      -4.135  12.670  21.249  0.00  0.00    +0.000 N 
ATOM     23  C   UNL     1      -5.469  12.384  21.067  0.00  0.00    +0.000 C 
ATOM     24  O   UNL     1      -6.207  11.988  21.961  0.00  0.00    +0.000 OA
ATOM     25  H   UNL     1      -3.572  12.891  20.442  0.00  0.00    +0.000 HD
BRANCH  23  26
ATOM     26  C   UNL     1      -5.958  12.522  19.663  0.00  0.00    +0.000 A 
ATOM     27  C   UNL     1      -5.145  12.074  18.616  0.00  0.00    +0.000 A 
ATOM     28  C   UNL     1      -5.558  12.240  17.291  0.00  0.00    +0.000 A 
ATOM     29  C   UNL     1      -6.783  12.846  17.010  0.00  0.00    +0.000 A 
ATOM     30  C   UNL     1      -7.608  13.272  18.049  0.00  0.00    +0.000 A 
ATOM     31  C   UNL     1      -7.202  13.101  19.373  0.00  0.00    +0.000 A 
ENDBRANCH  23  26
ENDBRANCH  13  22
TORSDOF 3
ENDMDL
MODEL 8
REMARK VINA RESULT:      -6.4      2.565      4.293
REMARK  Name = 
REMARK  5 active torsions:
REMARK  status: ('A' for Active; 'I' for Inactive)
REMARK    1  A    between atoms: C_1  and  C_2
REMARK    2  A    between atoms: C_2  and  C_3
REMARK    3  A    between atoms: C_13  and  N_14
REMARK    4  A    between atoms: C_15  and  C_17
REMARK    5  A    between atoms: C_23  and  C_24
REMARK                            x       y       z     vdW  Elec       q    Type
REMARK                         _______ _______ _______ _____ _____    ______ ____
ROOT
ATOM      1  C   UNL     1       0.982  16.854  23.344  0.00  0.00    +0.000 C 
ATOM      2  C   UNL     1       0.269  16.871  21.975  0.00  0.00    +0.000 C 
ATOM      3  C   UNL     1       0.563  18.218  21.294  0.00  0.00    +0.000 C 
ATOM      4  C   UNL     1       0.802  15.733  21.095  0.00  0.00    +0.000 C 
ATOM      5  C   UNL     1       0.448  14.392  21.696  0.00  0.00    +0.000 C 
ATOM      6  O   UNL     1       1.281  13.495  21.794  0.00  0.00    +0.000 OA
ATOM      7  C   UNL     1      -0.960  14.188  22.148  0.00  0.00    +0.000 C 
ATOM      8  C   UNL     1      -1.699  15.280  22.399  0.00  0.00    +0.000 C 
ATOM      9  C   UNL     1      -1.256  16.702  22.156  0.00  0.00    +0.000 C 
ATOM     10  O   UNL     1      -2.961  15.191  23.031  0.00  0.00    +0.000 OA
ATOM     11  C   UNL     1      -3.495  13.973  23.372  0.00  0.00    +0.000 C 
ATOM     12  O   UNL     1      -4.370  13.887  24.228  0.00  0.00    +0.000 OA
ATOM     13  C   UNL     1      -3.046  12.810  22.490  0.00  0.00    +0.000 C 
ATOM     14  C   UNL     1      -1.499  12.789  22.354  0.00  0.00    +0.000 C 
ENDROOT
BRANCH  14  15
ATOM     15  C   UNL     1      -1.088  11.782  21.264  0.00  0.00    +0.000 A 
ATOM     16  C   UNL     1      -1.212  12.111  19.895  0.00  0.00    +0.000 A 
ATOM     17  C   UNL     1      -0.809  11.231  18.892  0.00  0.00    +0.000 A 
ATOM     18  C   UNL     1      -0.286   9.991  19.233  0.00  0.00    +0.000 A 
ATOM     19  C   UNL     1      -0.184   9.626  20.574  0.00  0.00    +0.000 A 
ATOM     20  C   UNL     1      -0.590  10.507  21.583  0.00  0.00    +0.000 A 
ATOM     21 CL   UNL     1      -0.461   9.951  23.215  0.00  0.00    +0.000 Cl
ENDBRANCH  14  15
BRANCH  13  22
ATOM     22  N   UNL     1      -3.743  12.955  21.200  0.00  0.00    +0.000 N 
ATOM     23  C   UNL     1      -5.043  12.557  20.991  0.00  0.00    +0.000 C 
ATOM     24  O   UNL     1      -5.732  12.008  21.842  0.00  0.00    +0.000 OA
ATOM     25  H   UNL     1      -3.210  13.305  20.419  0.00  0.00    +0.000 HD
BRANCH  23  26
ATOM     26  C   UNL     1      -5.555  12.779  19.606  0.00  0.00    +0.000 A 
ATOM     27  C   UNL     1      -6.602  13.686  19.408  0.00  0.00    +0.000 A 
ATOM     28  C   UNL     1      -7.133  13.873  18.129  0.00  0.00    +0.000 A 
ATOM     29  C   UNL     1      -6.617  13.161  17.045  0.00  0.00    +0.000 A 
ATOM     30  C   UNL     1      -5.557  12.276  17.232  0.00  0.00    +0.000 A 
ATOM     31  C   UNL     1      -5.020  12.092  18.506  0.00  0.00    +0.000 A 
ENDBRANCH  23  26
ENDBRANCH  13  22
TORSDOF 3
ENDMDL
MODEL 9
REMARK VINA RESULT:      -6.3      1.012      1.604
REMARK  Name = 
REMARK  5 active torsions:
REMARK  status: ('A' for Active; 'I' for Inactive)
REMARK    1  A    between atoms: C_1  and  C_2
REMARK    2  A    between atoms: C_2  and  C_3
REMARK    3  A    between atoms: C_13  and  N_14
REMARK    4  A    between atoms: C_15  and  C_17
REMARK    5  A    between atoms: C_23  and  C_24
REMARK                            x       y       z     vdW  Elec       q    Type
REMARK                         _______ _______ _______ _____ _____    ______ ____
ROOT
ATOM      1  C   UNL     1      -2.579  15.243  25.672  0.00  0.00    +0.000 C 
ATOM      2  C   UNL     1      -3.324  15.143  24.324  0.00  0.00    +0.000 C 
ATOM      3  C   UNL     1      -4.711  15.785  24.491  0.00  0.00    +0.000 C 
ATOM      4  C   UNL     1      -2.545  15.898  23.239  0.00  0.00    +0.000 C 
ATOM      5  C   UNL     1      -1.210  15.234  22.990  0.00  0.00    +0.000 C 
ATOM      6  O   UNL     1      -0.174  15.889  22.919  0.00  0.00    +0.000 OA
ATOM      7  C   UNL     1      -1.200  13.752  22.810  0.00  0.00    +0.000 C 
ATOM      8  C   UNL     1      -2.243  13.058  23.290  0.00  0.00    +0.000 C 
ATOM      9  C   UNL     1      -3.482  13.665  23.900  0.00  0.00    +0.000 C 
ATOM     10  O   UNL     1      -2.224  11.646  23.359  0.00  0.00    +0.000 OA
ATOM     11  C   UNL     1      -1.147  10.931  22.896  0.00  0.00    +0.000 C 
ATOM     12  O   UNL     1      -0.944   9.782  23.276  0.00  0.00    +0.000 OA
ATOM     13  C   UNL     1      -0.369  11.608  21.771  0.00  0.00    +0.000 C 
ATOM     14  C   UNL     1      -0.019  13.073  22.150  0.00  0.00    +0.000 C 
ENDROOT
BRANCH  14  15
ATOM     15  C   UNL     1       0.529  13.812  20.915  0.00  0.00    +0.000 A 
ATOM     16  C   UNL     1       1.922  13.959  20.723  0.00  0.00    +0.000 A 
ATOM     17  C   UNL     1       2.442  14.588  19.592  0.00  0.00    +0.000 A 
ATOM     18  C   UNL     1       1.580  15.102  18.632  0.00  0.00    +0.000 A 
ATOM     19  C   UNL     1       0.202  15.001  18.812  0.00  0.00    +0.000 A 
ATOM     20  C   UNL     1      -0.323  14.372  19.947  0.00  0.00    +0.000 A 
ATOM     21 CL   UNL     1      -2.044  14.330  20.101  0.00  0.00    +0.000 Cl
ENDBRANCH  14  15
BRANCH  13  22
ATOM     22  N   UNL     1      -1.190  11.501  20.554  0.00  0.00    +0.000 N 
ATOM     23  C   UNL     1      -0.914  10.630  19.525  0.00  0.00    +0.000 C 
ATOM     24  O   UNL     1       0.063   9.891  19.503  0.00  0.00    +0.000 OA
ATOM     25  H   UNL     1      -1.956  12.148  20.449  0.00  0.00    +0.000 HD
BRANCH  23  26
ATOM     26  C   UNL     1      -1.864  10.690  18.375  0.00  0.00    +0.000 A 
ATOM     27  C   UNL     1      -2.984  11.524  18.466  0.00  0.00    +0.000 A 
ATOM     28  C   UNL     1      -3.915  11.558  17.424  0.00  0.00    +0.000 A 
ATOM     29  C   UNL     1      -3.728  10.767  16.290  0.00  0.00    +0.000 A 
ATOM     30  C   UNL     1      -2.602   9.954  16.184  0.00  0.00    +0.000 A 
ATOM     31  C   UNL     1      -1.666   9.922  17.218  0.00  0.00    +0.000 A 
ENDBRANCH  23  26
ENDBRANCH  13  22
TORSDOF 3
ENDMDL
